
     RDKit          3D

 35 36  0  0  0  0  0  0  0  0999 V2000
    9.8940   -5.9467   25.7802 C   0  0  0  0  0  0  0  0  0  0  0  0
    9.2921   -4.5688   25.8624 C   0  0  0  0  0  0  0  0  0  0  0  0
    9.5232   -3.7320   26.9630 C   0  0  0  0  0  0  0  0  0  0  0  0
    8.9185   -2.4772   27.0534 C   0  0  0  0  0  0  0  0  0  0  0  0
    8.0849   -2.0420   26.0235 C   0  0  0  0  0  0  0  0  0  0  0  0
    7.5797   -0.6455   26.0780 N   0  0  0  0  0  4  0  0  0  0  0  0
    7.3694   -0.0660   25.0154 O   0  0  0  0  0  0  0  0  0  0  0  0
    7.4203   -0.1290   27.1682 O   0  0  0  0  0  1  0  0  0  0  0  0
    7.7538   -2.8906   24.9454 C   0  0  0  0  0  0  0  0  0  0  0  0
    6.7404   -2.5307   23.8891 C   0  0  0  0  0  0  0  0  0  0  0  0
    7.4098   -1.8660   22.7738 N   0  0  0  0  0  0  0  0  0  0  0  0
    6.7566   -1.7649   21.5660 C   0  0  0  0  0  0  0  0  0  0  0  0
    5.8117   -2.4433   21.2222 O   0  0  0  0  0  0  0  0  0  0  0  0
    7.3687   -0.7883   20.8015 N   0  0  0  0  0  0  0  0  0  0  0  0
    6.7405   -0.0377   19.7723 C   0  0  0  0  0  0  0  0  0  0  0  0
    5.5164    0.5947   20.0269 C   0  0  0  0  0  0  0  0  0  0  0  0
    4.8900    1.2928   18.9902 C   0  0  0  0  0  0  0  0  0  0  0  0
    5.5095    1.3346   17.7376 C   0  0  0  0  0  0  0  0  0  0  0  0
    6.6925    0.7524   17.4786 N   0  0  0  0  0  0  0  0  0  0  0  0
    7.2986    0.1016   18.4819 C   0  0  0  0  0  0  0  0  0  0  0  0
    8.2656   -0.3506   18.2602 H   0  0  0  0  0  0  0  0  0  0  0  0
    5.0365    1.8574   16.9107 H   0  0  0  0  0  0  0  0  0  0  0  0
    3.9447    1.8029   19.1454 H   0  0  0  0  0  0  0  0  0  0  0  0
    5.0794    0.5309   21.0221 H   0  0  0  0  0  0  0  0  0  0  0  0
    8.3203   -0.6070   21.0658 H   0  0  0  0  0  0  0  0  0  0  0  0
    7.8376   -0.9939   23.0441 H   0  0  0  0  0  0  0  0  0  0  0  0
    6.2595   -3.4305   23.4953 H   0  0  0  0  0  0  0  0  0  0  0  0
    5.9415   -1.9190   24.3313 H   0  0  0  0  0  0  0  0  0  0  0  0
    8.4090   -4.1278   24.8659 C   0  0  0  0  0  0  0  0  0  0  0  0
    8.2317   -4.7611   23.9964 H   0  0  0  0  0  0  0  0  0  0  0  0
    9.0866   -1.8055   27.8898 H   0  0  0  0  0  0  0  0  0  0  0  0
   10.1481   -4.0890   27.7766 H   0  0  0  0  0  0  0  0  0  0  0  0
    9.2081   -6.6783   26.2239 H   0  0  0  0  0  0  0  0  0  0  0  0
   10.8513   -6.0332   26.3038 H   0  0  0  0  0  0  0  0  0  0  0  0
   10.0504   -6.2311   24.7363 H   0  0  0  0  0  0  0  0  0  0  0  0
  1  2  1  0
  2  3  2  0
  3  4  1  0
  4  5  2  0
  5  6  1  0
  6  7  2  0
  6  8  1  0
  5  9  1  0
  9 10  1  0
 10 11  1  0
 11 12  1  0
 12 13  2  0
 12 14  1  0
 14 15  1  0
 15 16  2  0
 16 17  1  0
 17 18  2  0
 18 19  1  0
 19 20  2  0
 20 21  1  0
 18 22  1  0
 17 23  1  0
 16 24  1  0
 14 25  1  0
 11 26  1  0
 10 27  1  0
 10 28  1  0
  9 29  2  0
 29 30  1  0
  4 31  1  0
  3 32  1  0
  1 33  1  0
  1 34  1  0
  1 35  1  0
 29  2  1  0
 20 15  1  0
M  CHG  2   6   1   8  -1
M  END
>  <plip>  (1) 
-0.10344827586206896

>  <filename>  (1) 
[H][c]1[n][c]([H])[c]([N]([H])[C](=[O])[N]([H])[C]([H])([H])[c]2[c]([H])[c]([C]([H])([H])[H])[c]([H])[c]([H])[c]2[N+](=[O])[O-])[c]([H])[c]1[H]

$$$$
