
     RDKit          3D

 34 36  0  0  0  0  0  0  0  0999 V2000
    8.4654   -1.3022   20.7726 O   0  0  0  0  0  0  0  0  0  0  0  0
    7.4201   -0.7362   20.9889 C   0  0  0  0  0  0  0  0  0  0  0  0
    6.8114   -0.7090   22.1987 O   0  0  0  0  0  0  0  0  0  0  0  0
    7.4130   -1.4153   23.3130 C   0  0  0  0  0  0  0  0  0  0  0  0
    6.7845   -0.9054   24.6100 C   0  0  0  0  0  0  0  0  0  0  0  0
    7.4485   -1.5795   25.8269 C   0  0  0  0  0  0  0  0  0  0  0  0
    7.5846   -3.0917   25.6962 C   0  0  0  0  0  0  0  0  0  0  0  0
    7.8465   -3.8711   26.8369 C   0  0  0  0  0  0  0  0  0  0  0  0
    8.0198   -5.2520   26.7476 C   0  0  0  0  0  0  0  0  0  0  0  0
    7.9412   -5.8667   25.4967 C   0  0  0  0  0  0  0  0  0  0  0  0
    7.6722   -5.1068   24.3546 C   0  0  0  0  0  0  0  0  0  0  0  0
    7.4979   -3.7165   24.4350 C   0  0  0  0  0  0  0  0  0  0  0  0
    7.1715   -2.9226   23.1749 C   0  0  0  0  0  0  0  0  0  0  0  0
    7.7475   -3.2951   22.3210 H   0  0  0  0  0  0  0  0  0  0  0  0
    6.1168   -3.0764   22.9107 H   0  0  0  0  0  0  0  0  0  0  0  0
    7.6006   -5.5860   23.3803 H   0  0  0  0  0  0  0  0  0  0  0  0
    8.1133   -6.9329   25.4419 H   0  0  0  0  0  0  0  0  0  0  0  0
    8.2249   -5.8531   27.6338 H   0  0  0  0  0  0  0  0  0  0  0  0
    7.9223   -3.3847   27.8055 H   0  0  0  0  0  0  0  0  0  0  0  0
    6.8974   -1.3426   26.7444 H   0  0  0  0  0  0  0  0  0  0  0  0
    8.4515   -1.1583   25.9900 H   0  0  0  0  0  0  0  0  0  0  0  0
    5.7111   -1.1419   24.6092 H   0  0  0  0  0  0  0  0  0  0  0  0
    6.8699    0.1859   24.6747 H   0  0  0  0  0  0  0  0  0  0  0  0
    8.4896   -1.2115   23.3180 H   0  0  0  0  0  0  0  0  0  0  0  0
    6.6422    0.0093   19.9528 C   0  0  0  0  0  0  0  0  0  0  0  0
    5.4179    0.6597   20.1889 C   0  0  0  0  0  0  0  0  0  0  0  0
    4.8027    1.3074   19.1196 C   0  0  0  0  0  0  0  0  0  0  0  0
    5.4119    1.2786   17.8599 C   0  0  0  0  0  0  0  0  0  0  0  0
    6.5729    0.6544   17.6293 N   0  0  0  0  0  0  0  0  0  0  0  0
    7.1707    0.0442   18.6570 C   0  0  0  0  0  0  0  0  0  0  0  0
    8.1167   -0.4369   18.4260 H   0  0  0  0  0  0  0  0  0  0  0  0
    4.9534    1.7697   17.0025 H   0  0  0  0  0  0  0  0  0  0  0  0
    3.8715    1.8447   19.2460 H   0  0  0  0  0  0  0  0  0  0  0  0
    4.9731    0.6560   21.1851 H   0  0  0  0  0  0  0  0  0  0  0  0
  1  2  2  0
  2  3  1  0
  3  4  1  0
  4  5  1  0
  5  6  1  0
  6  7  1  0
  7  8  2  0
  8  9  1  0
  9 10  2  0
 10 11  1  0
 11 12  2  0
 12 13  1  0
 13 14  1  0
 13 15  1  0
 11 16  1  0
 10 17  1  0
  9 18  1  0
  8 19  1  0
  6 20  1  0
  6 21  1  0
  5 22  1  0
  5 23  1  0
  4 24  1  0
  2 25  1  0
 25 26  2  0
 26 27  1  0
 27 28  2  0
 28 29  1  0
 29 30  2  0
 30 31  1  0
 28 32  1  0
 27 33  1  0
 26 34  1  0
 13  4  1  0
 30 25  1  0
 12  7  1  0
M  END
>  <plip>  (1) 
-0.03571428571428571

>  <filename>  (1) 
[H][c]1[n][c]([H])[c]([C](=[O])[O][C]2([H])[C]([H])([H])[c]3[c]([H])[c]([H])[c]([H])[c]([H])[c]3[C]([H])([H])[C]2([H])[H])[c]([H])[c]1[H]

$$$$
