
     RDKit          3D

 42 44  0  0  0  0  0  0  0  0999 V2000
    4.9256    1.7955   16.9813 H   0  0  0  0  0  0  0  0  0  0  0  0
    5.3920    1.2995   17.8303 C   0  0  0  0  0  0  0  0  0  0  0  0
    6.5568    0.6827   17.5752 N   0  0  0  0  0  0  0  0  0  0  0  0
    7.1577    0.0669   18.6009 C   0  0  0  0  0  0  0  0  0  0  0  0
    8.1064   -0.4144   18.3605 H   0  0  0  0  0  0  0  0  0  0  0  0
    6.6375    0.0090   19.9053 C   0  0  0  0  0  0  0  0  0  0  0  0
    7.4030   -0.6668   21.0135 C   0  0  0  0  0  0  0  0  0  0  0  0
    7.8944   -1.5825   20.6620 H   0  0  0  0  0  0  0  0  0  0  0  0
    6.7338   -0.9632   21.8292 H   0  0  0  0  0  0  0  0  0  0  0  0
    8.4448    0.2072   21.5499 N   0  0  0  0  0  0  0  0  0  0  0  0
    9.7875    0.1881   21.2816 C   0  0  0  0  0  0  0  0  0  0  0  0
   10.2503   -0.5720   20.6633 H   0  0  0  0  0  0  0  0  0  0  0  0
   10.4005    1.1851   21.8438 N   0  0  0  0  0  0  0  0  0  0  0  0
    9.4418    1.9282   22.5083 N   0  0  0  0  0  0  0  0  0  0  0  0
    8.2966    1.3425   22.3097 C   0  0  0  0  0  0  0  0  0  0  0  0
    7.0856    1.7051   22.7307 O   0  0  0  0  0  0  0  0  0  0  0  0
    7.0049    2.8866   23.5737 C   0  0  0  0  0  0  0  0  0  0  0  0
    7.5809    2.7137   24.4882 H   0  0  0  0  0  0  0  0  0  0  0  0
    7.4509    3.7383   23.0461 H   0  0  0  0  0  0  0  0  0  0  0  0
    5.5397    3.1342   23.8911 C   0  0  0  0  0  0  0  0  0  0  0  0
    4.9882    3.3484   22.9693 H   0  0  0  0  0  0  0  0  0  0  0  0
    5.4631    4.0418   24.5019 H   0  0  0  0  0  0  0  0  0  0  0  0
    4.8497    1.9832   24.6143 C   0  0  0  0  0  0  0  0  0  0  0  0
    4.8615    1.1030   23.9615 H   0  0  0  0  0  0  0  0  0  0  0  0
    3.7789    2.2424   24.7698 H   0  0  0  0  0  0  0  0  0  0  0  0
    5.4843    1.6303   25.8792 N   0  0  0  0  0  0  0  0  0  0  0  0
    5.0183    0.3420   26.3947 C   0  0  0  0  0  0  0  0  0  0  0  0
    5.5219   -0.4801   25.8696 H   0  0  0  0  0  0  0  0  0  0  0  0
    3.9314    0.1971   26.2316 H   0  0  0  0  0  0  0  0  0  0  0  0
    5.3361    0.3645   27.8959 C   0  0  0  0  0  0  0  0  0  0  0  0
    6.2785   -0.1493   28.1085 H   0  0  0  0  0  0  0  0  0  0  0  0
    4.5642   -0.1653   28.4615 H   0  0  0  0  0  0  0  0  0  0  0  0
    5.4247    1.8631   28.2679 C   0  0  0  0  0  0  0  0  0  0  0  0
    4.6306    2.1712   28.9538 H   0  0  0  0  0  0  0  0  0  0  0  0
    6.3675    2.0869   28.7755 H   0  0  0  0  0  0  0  0  0  0  0  0
    5.3028    2.6300   26.9365 C   0  0  0  0  0  0  0  0  0  0  0  0
    4.3120    3.1172   26.8626 H   0  0  0  0  0  0  0  0  0  0  0  0
    6.0447    3.4348   26.8506 H   0  0  0  0  0  0  0  0  0  0  0  0
    5.4218    0.6521   20.1458 C   0  0  0  0  0  0  0  0  0  0  0  0
    4.9987    0.6446   21.1524 H   0  0  0  0  0  0  0  0  0  0  0  0
    4.7925    1.3148   19.0919 C   0  0  0  0  0  0  0  0  0  0  0  0
    3.8655    1.8493   19.2354 H   0  0  0  0  0  0  0  0  0  0  0  0
  1  2  1  0
  2  3  2  0
  3  4  1  0
  4  5  1  0
  4  6  2  0
  6  7  1  0
  7  8  1  0
  7  9  1  0
  7 10  1  0
 10 11  1  0
 11 12  1  0
 11 13  2  0
 13 14  1  0
 14 15  2  0
 15 16  1  0
 16 17  1  0
 17 18  1  0
 17 19  1  0
 17 20  1  0
 20 21  1  0
 20 22  1  0
 20 23  1  0
 23 24  1  0
 23 25  1  0
 23 26  1  0
 26 27  1  0
 27 28  1  0
 27 29  1  0
 27 30  1  0
 30 31  1  0
 30 32  1  0
 30 33  1  0
 33 34  1  0
 33 35  1  0
 33 36  1  0
 36 37  1  0
 36 38  1  0
  6 39  1  0
 39 40  1  0
 39 41  2  0
 41 42  1  0
 41  2  1  0
 15 10  1  0
 36 26  1  0
M  END
>  <plip>  (1) 
-0.03571428571428571

>  <filename>  (1) 
[H][c]1[n][c]([H])[c]([C]([H])([H])[n]2[c]([H])[n][n][c]2[O][C]([H])([H])[C]([H])([H])[C]([H])([H])[N]2[C]([H])([H])[C]([H])([H])[C]([H])([H])[C]2([H])[H])[c]([H])[c]1[H]

$$$$
