
     RDKit          3D

 22 23  0  0  0  0  0  0  0  0999 V2000
    8.3493   -1.4213   20.6119 O   0  0  0  0  0  0  0  0  0  0  0  0
    7.4248   -0.6861   20.9352 C   0  0  0  0  0  0  0  0  0  0  0  0
    7.0685   -0.5628   22.4139 C   0  0  0  0  0  0  0  0  0  0  0  0
    7.2688    0.8143   22.8777 N   0  0  0  0  0  0  0  0  0  0  0  0
    6.3498    1.6053   23.5508 C   0  0  0  0  0  0  0  0  0  0  0  0
    6.9009    2.7512   23.8297 N   0  0  0  0  0  0  0  0  0  0  0  0
    8.1793    2.6286   23.2962 C   0  0  0  0  0  0  0  0  0  0  0  0
    9.4709    4.0285   23.4226 Br  0  0  0  0  0  0  0  0  0  0  0  0
    8.4279    1.4812   22.7130 N   0  0  0  0  0  0  0  0  0  0  0  0
    5.3342    1.3047   23.8028 H   0  0  0  0  0  0  0  0  0  0  0  0
    6.0362   -0.8686   22.5455 H   0  0  0  0  0  0  0  0  0  0  0  0
    7.6871   -1.2439   23.0030 H   0  0  0  0  0  0  0  0  0  0  0  0
    6.6648    0.0067   19.9032 C   0  0  0  0  0  0  0  0  0  0  0  0
    5.4493    0.6473   20.1721 C   0  0  0  0  0  0  0  0  0  0  0  0
    4.8279    1.2997   19.1113 C   0  0  0  0  0  0  0  0  0  0  0  0
    5.4075    1.2889   17.8385 C   0  0  0  0  0  0  0  0  0  0  0  0
    6.5715    0.6641   17.5900 N   0  0  0  0  0  0  0  0  0  0  0  0
    7.1864    0.0427   18.6048 C   0  0  0  0  0  0  0  0  0  0  0  0
    8.1358   -0.4435   18.3981 H   0  0  0  0  0  0  0  0  0  0  0  0
    4.8950    1.7924   17.0226 H   0  0  0  0  0  0  0  0  0  0  0  0
    3.8929    1.8262   19.2603 H   0  0  0  0  0  0  0  0  0  0  0  0
    4.9974    0.6463   21.1672 H   0  0  0  0  0  0  0  0  0  0  0  0
  1  2  2  0
  2  3  1  0
  3  4  1  0
  4  5  1  0
  5  6  2  0
  6  7  1  0
  7  8  1  0
  7  9  2  0
  5 10  1  0
  3 11  1  0
  3 12  1  0
  2 13  1  0
 13 14  2  0
 14 15  1  0
 15 16  2  0
 16 17  1  0
 17 18  2  0
 18 19  1  0
 16 20  1  0
 15 21  1  0
 14 22  1  0
  9  4  1  0
 18 13  1  0
M  END
>  <plip>  (1) 
-0.03571428571428571

>  <filename>  (1) 
[H][c]1[n][c]([H])[c]([C](=[O])[C]([H])([H])[n]2[n][c]([Br])[n][c]2[H])[c]([H])[c]1[H]

$$$$
