
     RDKit          3D

 30 31  0  0  0  0  0  0  0  0999 V2000
    6.1772    5.4438   22.1224 H   0  0  0  0  0  0  0  0  0  0  0  0
    5.5068    4.9796   22.6409 O   0  0  0  0  0  0  0  0  0  0  0  0
    6.1786    4.4060   23.7532 C   0  0  0  0  0  0  0  0  0  0  0  0
    5.3833    3.9689   24.3615 H   0  0  0  0  0  0  0  0  0  0  0  0
    6.6629    5.1851   24.3612 H   0  0  0  0  0  0  0  0  0  0  0  0
    7.1905    3.3434   23.3772 C   0  0  0  0  0  0  0  0  0  0  0  0
    8.5504    3.6574   23.2231 C   0  0  0  0  0  0  0  0  0  0  0  0
    8.8843    4.6768   23.4018 H   0  0  0  0  0  0  0  0  0  0  0  0
    9.4700    2.6838   22.8211 C   0  0  0  0  0  0  0  0  0  0  0  0
   10.5186    2.9462   22.7046 H   0  0  0  0  0  0  0  0  0  0  0  0
    9.0368    1.3794   22.5771 C   0  0  0  0  0  0  0  0  0  0  0  0
    9.7378    0.6089   22.2675 H   0  0  0  0  0  0  0  0  0  0  0  0
    7.6848    1.0372   22.7272 C   0  0  0  0  0  0  0  0  0  0  0  0
    7.2424   -0.3814   22.4134 C   0  0  0  0  0  0  0  0  0  0  0  0
    7.8197   -1.1146   22.9842 H   0  0  0  0  0  0  0  0  0  0  0  0
    6.1926   -0.5233   22.6937 H   0  0  0  0  0  0  0  0  0  0  0  0
    7.4449   -0.7465   20.9422 C   0  0  0  0  0  0  0  0  0  0  0  0
    8.2585   -1.5870   20.6180 O   0  0  0  0  0  0  0  0  0  0  0  0
    6.6553    0.0096   19.9174 C   0  0  0  0  0  0  0  0  0  0  0  0
    7.1680    0.0512   18.6123 C   0  0  0  0  0  0  0  0  0  0  0  0
    8.1092   -0.4365   18.3779 H   0  0  0  0  0  0  0  0  0  0  0  0
    6.5692    0.6662   17.5912 N   0  0  0  0  0  0  0  0  0  0  0  0
    5.4091    1.2872   17.8465 C   0  0  0  0  0  0  0  0  0  0  0  0
    4.9337    1.7801   16.9989 H   0  0  0  0  0  0  0  0  0  0  0  0
    4.8093    1.3072   19.1102 C   0  0  0  0  0  0  0  0  0  0  0  0
    3.8743    1.8412   19.2507 H   0  0  0  0  0  0  0  0  0  0  0  0
    5.4367    0.6593   20.1757 C   0  0  0  0  0  0  0  0  0  0  0  0
    4.9775    0.6512   21.1693 H   0  0  0  0  0  0  0  0  0  0  0  0
    6.7758    2.0254   23.1185 C   0  0  0  0  0  0  0  0  0  0  0  0
    5.7201    1.7754   23.2087 H   0  0  0  0  0  0  0  0  0  0  0  0
  1  2  1  0
  2  3  1  0
  3  4  1  0
  3  5  1  0
  3  6  1  0
  6  7  2  0
  7  8  1  0
  7  9  1  0
  9 10  1  0
  9 11  2  0
 11 12  1  0
 11 13  1  0
 13 14  1  0
 14 15  1  0
 14 16  1  0
 14 17  1  0
 17 18  2  0
 17 19  1  0
 19 20  2  0
 20 21  1  0
 20 22  1  0
 22 23  2  0
 23 24  1  0
 23 25  1  0
 25 26  1  0
 25 27  2  0
 27 28  1  0
 13 29  2  0
 29 30  1  0
 29  6  1  0
 27 19  1  0
M  END
>  <plip>  (1) 
-0.06896551724137931

>  <filename>  (1) 
[H][O][C]([H])([H])[c]1[c]([H])[c]([H])[c]([H])[c]([C]([H])([H])[C](=[O])[c]2[c]([H])[n][c]([H])[c]([H])[c]2[H])[c]1[H]

$$$$
