
     RDKit          3D

 30 32  0  0  0  0  0  0  0  0999 V2000
    4.9361    1.8373   16.9915 H   0  0  0  0  0  0  0  0  0  0  0  0
    5.4329    1.3238   17.8127 C   0  0  0  0  0  0  0  0  0  0  0  0
    6.5955    0.7178   17.5168 N   0  0  0  0  0  0  0  0  0  0  0  0
    7.2025    0.0410   18.4972 C   0  0  0  0  0  0  0  0  0  0  0  0
    8.1489   -0.4398   18.2566 H   0  0  0  0  0  0  0  0  0  0  0  0
    6.6899   -0.0845   19.8044 C   0  0  0  0  0  0  0  0  0  0  0  0
    7.4093   -0.8073   20.7937 N   0  0  0  0  0  0  0  0  0  0  0  0
    8.7715   -0.6232   21.0373 C   0  0  0  0  0  0  0  0  0  0  0  0
    9.3847   -0.0149   20.3975 H   0  0  0  0  0  0  0  0  0  0  0  0
    9.0688   -1.3746   22.1171 C   0  0  0  0  0  0  0  0  0  0  0  0
   10.1928   -1.7178   22.7562 O   0  0  0  0  0  0  0  0  0  0  0  0
   11.3478   -1.0155   22.4663 C   0  0  0  0  0  0  0  0  0  0  0  0
   12.5205   -1.7478   22.2967 C   0  0  0  0  0  0  0  0  0  0  0  0
   12.4606   -2.8271   22.3040 H   0  0  0  0  0  0  0  0  0  0  0  0
   13.7460   -1.0835   22.2019 C   0  0  0  0  0  0  0  0  0  0  0  0
   14.6585   -1.6712   22.1086 H   0  0  0  0  0  0  0  0  0  0  0  0
   13.7974    0.3153   22.2535 C   0  0  0  0  0  0  0  0  0  0  0  0
   14.7456    0.8428   22.2100 H   0  0  0  0  0  0  0  0  0  0  0  0
   12.5962    1.0283   22.3293 C   0  0  0  0  0  0  0  0  0  0  0  0
   12.6171    2.7662   22.2499 Cl  0  0  0  0  0  0  0  0  0  0  0  0
   11.3648    0.3800   22.4350 C   0  0  0  0  0  0  0  0  0  0  0  0
   10.4424    0.9405   22.5155 H   0  0  0  0  0  0  0  0  0  0  0  0
    7.9266   -1.9726   22.5700 N   0  0  0  0  0  0  0  0  0  0  0  0
    7.8644   -2.6453   23.3122 H   0  0  0  0  0  0  0  0  0  0  0  0
    6.8746   -1.7217   21.7197 C   0  0  0  0  0  0  0  0  0  0  0  0
    5.7718   -2.2195   21.7491 O   0  0  0  0  0  0  0  0  0  0  0  0
    5.4897    0.5697   20.1080 C   0  0  0  0  0  0  0  0  0  0  0  0
    5.0993    0.5399   21.1245 H   0  0  0  0  0  0  0  0  0  0  0  0
    4.8549    1.2831   19.0863 C   0  0  0  0  0  0  0  0  0  0  0  0
    3.9233    1.8064   19.2654 H   0  0  0  0  0  0  0  0  0  0  0  0
  1  2  1  0
  2  3  2  0
  3  4  1  0
  4  5  1  0
  4  6  2  0
  6  7  1  0
  7  8  1  0
  8  9  1  0
  8 10  2  0
 10 11  1  0
 11 12  1  0
 12 13  2  0
 13 14  1  0
 13 15  1  0
 15 16  1  0
 15 17  2  0
 17 18  1  0
 17 19  1  0
 19 20  1  0
 19 21  2  0
 21 22  1  0
 10 23  1  0
 23 24  1  0
 23 25  1  0
 25 26  2  0
  6 27  1  0
 27 28  1  0
 27 29  2  0
 29 30  1  0
 29  2  1  0
 25  7  1  0
 21 12  1  0
M  END
>  <plip>  (1) 
-0.10714285714285714

>  <filename>  (1) 
[H][c]1[n][c]([H])[c](-[n]2[c]([H])[c]([O][c]3[c]([H])[c]([H])[c]([H])[c]([Cl])[c]3[H])[n]([H])[c]2=[O])[c]([H])[c]1[H]

$$$$
