
     RDKit          3D

 44 48  0  0  0  0  0  0  0  0999 V2000
    4.9521    1.8514   16.9336 H   0  0  0  0  0  0  0  0  0  0  0  0
    5.4020    1.3157   17.7664 C   0  0  0  0  0  0  0  0  0  0  0  0
    6.5399    0.6569   17.5023 N   0  0  0  0  0  0  0  0  0  0  0  0
    7.1259    0.0116   18.5141 C   0  0  0  0  0  0  0  0  0  0  0  0
    8.0429   -0.5245   18.2770 H   0  0  0  0  0  0  0  0  0  0  0  0
    6.6296    0.0008   19.8302 C   0  0  0  0  0  0  0  0  0  0  0  0
    7.3791   -0.6603   20.9066 C   0  0  0  0  0  0  0  0  0  0  0  0
    8.1923   -1.7050   20.7263 N   0  0  0  0  0  0  0  0  0  0  0  0
    8.6742   -1.9260   21.9503 N   0  0  0  0  0  0  0  0  0  0  0  0
    8.2562   -1.0964   22.9102 C   0  0  0  0  0  0  0  0  0  0  0  0
    7.3727   -0.2424   22.2839 C   0  0  0  0  0  0  0  0  0  0  0  0
    6.7710    0.9214   22.7748 N   0  0  0  0  0  0  0  0  0  0  0  0
    6.3708    0.8940   24.1782 C   0  0  0  0  0  0  0  0  0  0  0  0
    7.2439    0.7843   24.8475 H   0  0  0  0  0  0  0  0  0  0  0  0
    5.7316    0.0233   24.3596 H   0  0  0  0  0  0  0  0  0  0  0  0
    5.6078    2.1535   24.5524 C   0  0  0  0  0  0  0  0  0  0  0  0
    4.8225    2.1828   25.7136 C   0  0  0  0  0  0  0  0  0  0  0  0
    4.7529    1.2946   26.3422 H   0  0  0  0  0  0  0  0  0  0  0  0
    4.1287    3.3415   26.0689 C   0  0  0  0  0  0  0  0  0  0  0  0
    3.5162    3.3530   26.9651 H   0  0  0  0  0  0  0  0  0  0  0  0
    4.2181    4.4838   25.2656 C   0  0  0  0  0  0  0  0  0  0  0  0
    3.6730    5.3847   25.5298 H   0  0  0  0  0  0  0  0  0  0  0  0
    5.0068    4.4632   24.1141 C   0  0  0  0  0  0  0  0  0  0  0  0
    5.0748    5.3443   23.4778 H   0  0  0  0  0  0  0  0  0  0  0  0
    5.7078    3.3093   23.7479 C   0  0  0  0  0  0  0  0  0  0  0  0
    6.5147    3.2899   22.4619 C   0  0  0  0  0  0  0  0  0  0  0  0
    5.8257    3.1378   21.6178 H   0  0  0  0  0  0  0  0  0  0  0  0
    7.0275    4.2420   22.2950 H   0  0  0  0  0  0  0  0  0  0  0  0
    7.5099    2.1443   22.4390 C   0  0  0  0  0  0  0  0  0  0  0  0
    7.9490    2.0398   21.4416 H   0  0  0  0  0  0  0  0  0  0  0  0
    8.3438    2.2973   23.1498 H   0  0  0  0  0  0  0  0  0  0  0  0
    9.0152   -1.3275   24.1856 C   0  0  0  0  0  0  0  0  0  0  0  0
    8.3479   -1.6434   24.9964 H   0  0  0  0  0  0  0  0  0  0  0  0
    9.5361   -0.4186   24.5115 H   0  0  0  0  0  0  0  0  0  0  0  0
   10.0352   -2.4288   23.7806 C   0  0  0  0  0  0  0  0  0  0  0  0
   10.0718   -3.2386   24.5096 H   0  0  0  0  0  0  0  0  0  0  0  0
   11.0262   -1.9947   23.7027 H   0  0  0  0  0  0  0  0  0  0  0  0
    9.6442   -2.9054   22.3555 C   0  0  0  0  0  0  0  0  0  0  0  0
   10.4904   -2.8558   21.6698 H   0  0  0  0  0  0  0  0  0  0  0  0
    9.1959   -3.9033   22.3260 H   0  0  0  0  0  0  0  0  0  0  0  0
    5.4264    0.6860   20.0863 C   0  0  0  0  0  0  0  0  0  0  0  0
    4.9906    0.7074   21.0869 H   0  0  0  0  0  0  0  0  0  0  0  0
    4.7987    1.3382   19.0296 C   0  0  0  0  0  0  0  0  0  0  0  0
    3.8646    1.8726   19.1672 H   0  0  0  0  0  0  0  0  0  0  0  0
  1  2  1  0
  2  3  2  0
  3  4  1  0
  4  5  1  0
  4  6  2  0
  6  7  1  0
  7  8  2  0
  8  9  1  0
  9 10  1  0
 10 11  2  0
 11 12  1  0
 12 13  1  0
 13 14  1  0
 13 15  1  0
 13 16  1  0
 16 17  2  0
 17 18  1  0
 17 19  1  0
 19 20  1  0
 19 21  2  0
 21 22  1  0
 21 23  1  0
 23 24  1  0
 23 25  2  0
 25 26  1  0
 26 27  1  0
 26 28  1  0
 26 29  1  0
 29 30  1  0
 29 31  1  0
 10 32  1  0
 32 33  1  0
 32 34  1  0
 32 35  1  0
 35 36  1  0
 35 37  1  0
 35 38  1  0
 38 39  1  0
 38 40  1  0
  6 41  1  0
 41 42  1  0
 41 43  2  0
 43 44  1  0
 43  2  1  0
 11  7  1  0
 29 12  1  0
 38  9  1  0
 25 16  1  0
M  END
>  <plip>  (1) 
-0.06896551724137931

>  <filename>  (1) 
[H][c]1[n][c]([H])[c](-[c]2[n][n]3[c]([c]2[N]2[C]([H])([H])[c]4[c]([H])[c]([H])[c]([H])[c]([H])[c]4[C]([H])([H])[C]2([H])[H])[C]([H])([H])[C]([H])([H])[C]3([H])[H])[c]([H])[c]1[H]

$$$$
