
     RDKit          3D

 45 46  0  0  0  0  0  0  0  0999 V2000
    9.4995   -0.7041   22.4890 C   0  0  0  0  0  0  0  0  0  0  0  0
    8.7852   -0.0126   21.3168 C   0  0  0  0  0  0  0  0  0  0  0  0
    8.6207    1.4897   21.5908 C   0  0  0  0  0  0  0  0  0  0  0  0
    9.5802    1.9554   21.8397 H   0  0  0  0  0  0  0  0  0  0  0  0
    7.9449    1.6601   22.4413 H   0  0  0  0  0  0  0  0  0  0  0  0
    8.2032    2.0203   20.7267 H   0  0  0  0  0  0  0  0  0  0  0  0
    7.4095   -0.6664   21.0287 C   0  0  0  0  0  0  0  0  0  0  0  0
    7.5373   -2.1574   20.6736 N   0  0  0  0  0  4  0  0  0  0  0  0
    7.1581   -3.1050   21.7791 C   0  0  0  0  0  0  0  0  0  0  0  0
    5.6316   -3.2380   21.9360 C   0  0  0  0  0  0  0  0  0  0  0  0
    5.2936   -3.9643   23.1287 O   0  0  0  0  0  0  0  0  0  0  0  0
    5.3464   -3.3898   24.3386 C   0  0  0  0  0  0  0  0  0  0  0  0
    5.7294   -2.1340   24.4607 N   0  0  0  0  0  0  0  0  0  0  0  0
    5.6809   -1.5591   25.6712 C   0  0  0  0  0  0  0  0  0  0  0  0
    5.3576   -2.2608   26.8274 C   0  0  0  0  0  0  0  0  0  0  0  0
    5.0250   -3.6132   26.7188 C   0  0  0  0  0  0  0  0  0  0  0  0
    4.9995   -4.1774   25.4484 C   0  0  0  0  0  0  0  0  0  0  0  0
    4.6698   -5.5990   25.1840 C   0  0  0  0  0  0  0  0  0  0  0  0
    3.5928   -5.7307   24.3950 F   0  0  0  0  0  0  0  0  0  0  0  0
    4.4064   -6.2602   26.3316 F   0  0  0  0  0  0  0  0  0  0  0  0
    5.6855   -6.2396   24.5838 F   0  0  0  0  0  0  0  0  0  0  0  0
    4.8030   -4.2215   27.6004 H   0  0  0  0  0  0  0  0  0  0  0  0
    5.3823   -1.7585   27.7839 H   0  0  0  0  0  0  0  0  0  0  0  0
    5.9071   -0.4928   25.7021 H   0  0  0  0  0  0  0  0  0  0  0  0
    5.1903   -3.8523   21.1441 H   0  0  0  0  0  0  0  0  0  0  0  0
    5.1663   -2.2470   21.9166 H   0  0  0  0  0  0  0  0  0  0  0  0
    7.5606   -2.7417   22.7346 H   0  0  0  0  0  0  0  0  0  0  0  0
    7.5738   -4.1040   21.6211 H   0  0  0  0  0  0  0  0  0  0  0  0
    8.5286   -2.2695   20.3650 H   0  0  0  0  0  0  0  0  0  0  0  0
    6.9491   -2.2641   19.8082 H   0  0  0  0  0  0  0  0  0  0  0  0
    6.6407   -0.0196   19.8967 C   0  0  0  0  0  0  0  0  0  0  0  0
    5.4304    0.6505   20.1396 C   0  0  0  0  0  0  0  0  0  0  0  0
    4.7961    1.3114   19.0855 C   0  0  0  0  0  0  0  0  0  0  0  0
    5.3963    1.2871   17.8249 C   0  0  0  0  0  0  0  0  0  0  0  0
    6.5497    0.6521   17.5722 N   0  0  0  0  0  0  0  0  0  0  0  0
    7.1509    0.0225   18.5910 C   0  0  0  0  0  0  0  0  0  0  0  0
    8.1093   -0.4330   18.3253 H   0  0  0  0  0  0  0  0  0  0  0  0
    4.9391    1.8050   16.9821 H   0  0  0  0  0  0  0  0  0  0  0  0
    3.8695    1.8581   19.2324 H   0  0  0  0  0  0  0  0  0  0  0  0
    5.0012    0.6501   21.1431 H   0  0  0  0  0  0  0  0  0  0  0  0
    6.8151   -0.6196   21.9514 H   0  0  0  0  0  0  0  0  0  0  0  0
    9.4006   -0.1500   20.4126 H   0  0  0  0  0  0  0  0  0  0  0  0
    8.8761   -0.6869   23.3943 H   0  0  0  0  0  0  0  0  0  0  0  0
   10.4387   -0.1923   22.7277 H   0  0  0  0  0  0  0  0  0  0  0  0
    9.7492   -1.7525   22.2820 H   0  0  0  0  0  0  0  0  0  0  0  0
  1  2  1  0
  2  3  1  0
  3  4  1  0
  3  5  1  0
  3  6  1  0
  2  7  1  0
  7  8  1  0
  8  9  1  0
  9 10  1  0
 10 11  1  0
 11 12  1  0
 12 13  2  0
 13 14  1  0
 14 15  2  0
 15 16  1  0
 16 17  2  0
 17 18  1  0
 18 19  1  0
 18 20  1  0
 18 21  1  0
 16 22  1  0
 15 23  1  0
 14 24  1  0
 10 25  1  0
 10 26  1  0
  9 27  1  0
  9 28  1  0
  8 29  1  0
  8 30  1  0
  7 31  1  0
 31 32  2  0
 32 33  1  0
 33 34  2  0
 34 35  1  0
 35 36  2  0
 36 37  1  0
 34 38  1  0
 33 39  1  0
 32 40  1  0
  7 41  1  0
  2 42  1  0
  1 43  1  0
  1 44  1  0
  1 45  1  0
 17 12  1  0
 36 31  1  0
M  CHG  1   8   1
M  END
>  <plip>  (1) 
-0.06896551724137931

>  <filename>  (1) 
[H][c]1[n][c]([O][C]([H])([H])[C]([H])([H])[N+]([H])([H])[C]([H])([c]2[c]([H])[n][c]([H])[c]([H])[c]2[H])[C]([H])([C]([H])([H])[H])[C]([H])([H])[H])[c]([C]([F])([F])[F])[c]([H])[c]1[H]

$$$$
