
     RDKit          3D

 49 51  0  0  0  0  0  0  0  0999 V2000
    8.8550   -0.9597   20.7461 C   0  0  0  0  0  0  0  0  0  0  0  0
    7.3474   -0.7486   20.9941 C   0  0  0  0  0  0  0  0  0  0  0  0
    6.5911   -2.0846   21.1170 C   0  0  0  0  0  0  0  0  0  0  0  0
    7.2430   -2.8253   22.2970 C   0  0  0  0  0  0  0  0  0  0  0  0
    8.0894   -3.6884   22.0106 O   0  0  0  0  0  0  0  0  0  0  0  0
    6.8914   -2.3923   23.4258 O   0  0  0  0  0  1  0  0  0  0  0  0
    5.5315   -1.8863   21.3380 H   0  0  0  0  0  0  0  0  0  0  0  0
    6.6408   -2.6782   20.1982 H   0  0  0  0  0  0  0  0  0  0  0  0
    7.1908   -0.0717   22.2758 N   0  0  0  0  0  0  0  0  0  0  0  0
    7.6364    1.2018   22.4736 C   0  0  0  0  0  0  0  0  0  0  0  0
    8.2187    1.8249   21.5952 O   0  0  0  0  0  0  0  0  0  0  0  0
    7.2774    1.8521   23.8063 C   0  0  0  0  0  0  0  0  0  0  0  0
    5.8395    2.4494   23.8394 C   0  0  0  0  0  0  0  0  0  0  0  0
    5.5782    3.4973   22.7357 C   0  0  0  0  0  0  0  0  0  0  0  0
    6.4277    4.7690   22.8975 C   0  0  0  0  0  0  0  0  0  0  0  0
    6.4991    5.2887   24.3299 C   0  0  0  0  0  0  0  0  0  0  0  0
    6.9635    6.5923   24.5748 C   0  0  0  0  0  0  0  0  0  0  0  0
    7.0960    7.0870   25.8761 C   0  0  0  0  0  0  0  0  0  0  0  0
    6.7527    6.2726   26.9638 C   0  0  0  0  0  0  0  0  0  0  0  0
    6.2775    4.9788   26.7304 C   0  0  0  0  0  0  0  0  0  0  0  0
    6.1390    4.4742   25.4247 C   0  0  0  0  0  0  0  0  0  0  0  0
    5.5476    3.0828   25.2155 C   0  0  0  0  0  0  0  0  0  0  0  0
    5.9020    2.4111   26.0088 H   0  0  0  0  0  0  0  0  0  0  0  0
    4.4593    3.1629   25.3549 H   0  0  0  0  0  0  0  0  0  0  0  0
    5.9930    4.3440   27.5697 H   0  0  0  0  0  0  0  0  0  0  0  0
    6.8453    6.6459   27.9823 H   0  0  0  0  0  0  0  0  0  0  0  0
    7.4551    8.1014   26.0390 H   0  0  0  0  0  0  0  0  0  0  0  0
    7.2218    7.2197   23.7215 H   0  0  0  0  0  0  0  0  0  0  0  0
    6.0383    5.5595   22.2391 H   0  0  0  0  0  0  0  0  0  0  0  0
    7.4513    4.5714   22.5429 H   0  0  0  0  0  0  0  0  0  0  0  0
    4.5159    3.7782   22.7732 H   0  0  0  0  0  0  0  0  0  0  0  0
    5.7598    3.0634   21.7429 H   0  0  0  0  0  0  0  0  0  0  0  0
    5.1257    1.6177   23.7017 H   0  0  0  0  0  0  0  0  0  0  0  0
    7.3865    1.1330   24.6295 H   0  0  0  0  0  0  0  0  0  0  0  0
    8.0080    2.6480   23.9879 H   0  0  0  0  0  0  0  0  0  0  0  0
    6.9870   -0.7139   23.0412 H   0  0  0  0  0  0  0  0  0  0  0  0
    6.6683    0.0466   19.8849 C   0  0  0  0  0  0  0  0  0  0  0  0
    5.4282    0.6755   20.0960 C   0  0  0  0  0  0  0  0  0  0  0  0
    4.8003    1.3119   19.0269 C   0  0  0  0  0  0  0  0  0  0  0  0
    5.4314    1.2906   17.7739 C   0  0  0  0  0  0  0  0  0  0  0  0
    6.6040    0.6876   17.5420 N   0  0  0  0  0  0  0  0  0  0  0  0
    7.1915    0.0883   18.5926 C   0  0  0  0  0  0  0  0  0  0  0  0
    8.1495   -0.3884   18.3848 H   0  0  0  0  0  0  0  0  0  0  0  0
    4.9630    1.7679   16.9176 H   0  0  0  0  0  0  0  0  0  0  0  0
    3.8517    1.8276   19.1521 H   0  0  0  0  0  0  0  0  0  0  0  0
    4.9855    0.6701   21.0970 H   0  0  0  0  0  0  0  0  0  0  0  0
    9.3385   -0.0063   20.5220 H   0  0  0  0  0  0  0  0  0  0  0  0
    9.0306   -1.6611   19.9272 H   0  0  0  0  0  0  0  0  0  0  0  0
    9.3190   -1.3782   21.6417 H   0  0  0  0  0  0  0  0  0  0  0  0
  1  2  1  0
  2  3  1  0
  3  4  1  0
  4  5  2  0
  4  6  1  0
  3  7  1  0
  3  8  1  0
  2  9  1  0
  9 10  1  0
 10 11  2  0
 10 12  1  0
 12 13  1  0
 13 14  1  0
 14 15  1  0
 15 16  1  0
 16 17  2  0
 17 18  1  0
 18 19  2  0
 19 20  1  0
 20 21  2  0
 21 22  1  0
 22 23  1  0
 22 24  1  0
 20 25  1  0
 19 26  1  0
 18 27  1  0
 17 28  1  0
 15 29  1  0
 15 30  1  0
 14 31  1  0
 14 32  1  0
 13 33  1  0
 12 34  1  0
 12 35  1  0
  9 36  1  0
  2 37  1  0
 37 38  2  0
 38 39  1  0
 39 40  2  0
 40 41  1  0
 41 42  2  0
 42 43  1  0
 40 44  1  0
 39 45  1  0
 38 46  1  0
  1 47  1  0
  1 48  1  0
  1 49  1  0
 22 13  1  0
 42 37  1  0
 21 16  1  0
M  CHG  1   6  -1
M  END
>  <plip>  (1) 
-0.10344827586206896

>  <filename>  (1) 
[H][c]1[n][c]([H])[c]([C]([N]([H])[C](=[O])[C]([H])([H])[C]2([H])[C]([H])([H])[c]3[c]([H])[c]([H])[c]([H])[c]([H])[c]3[C]([H])([H])[C]2([H])[H])([C]([H])([H])[H])[C]([H])([H])[C](=[O])[O-])[c]([H])[c]1[H]

$$$$
