
     RDKit          3D

 46 48  0  0  0  0  0  0  0  0999 V2000
    6.7188    7.9949   27.3716 C   0  0  0  0  0  0  0  0  0  0  0  0
    7.1613    6.6542   26.8470 C   0  0  0  0  0  0  0  0  0  0  0  0
    8.4910    6.2282   26.9756 C   0  0  0  0  0  0  0  0  0  0  0  0
    8.9032    5.0299   26.4077 C   0  0  0  0  0  0  0  0  0  0  0  0
    7.9888    4.2051   25.7350 C   0  0  0  0  0  0  0  0  0  0  0  0
    8.4565    2.9601   25.2025 N   0  0  0  0  0  0  0  0  0  0  0  0
    9.3801    2.2608   25.8540 N   0  0  0  0  0  0  0  0  0  0  0  0
    9.5881    1.1798   25.1266 C   0  0  0  0  0  0  0  0  0  0  0  0
   10.5560    0.1140   25.5151 C   0  0  0  0  0  0  0  0  0  0  0  0
   11.3969    0.0810   24.8153 H   0  0  0  0  0  0  0  0  0  0  0  0
   10.0755   -0.8672   25.4678 H   0  0  0  0  0  0  0  0  0  0  0  0
   10.9285    0.3078   26.5238 H   0  0  0  0  0  0  0  0  0  0  0  0
    8.7524    1.2614   24.0006 C   0  0  0  0  0  0  0  0  0  0  0  0
    8.5984    0.1551   23.0233 C   0  0  0  0  0  0  0  0  0  0  0  0
    9.2858   -0.8626   23.0849 O   0  0  0  0  0  0  0  0  0  0  0  0
    7.6510    0.3162   22.0742 N   0  0  0  0  0  0  0  0  0  0  0  0
    7.4783   -0.6424   20.9857 C   0  0  0  0  0  0  0  0  0  0  0  0
    6.7994   -1.9317   21.4700 C   0  0  0  0  0  0  0  0  0  0  0  0
    6.6795   -2.6231   20.6288 H   0  0  0  0  0  0  0  0  0  0  0  0
    7.4217   -2.4025   22.2378 H   0  0  0  0  0  0  0  0  0  0  0  0
    5.8107   -1.7275   21.8956 H   0  0  0  0  0  0  0  0  0  0  0  0
    6.7270    0.0523   19.8733 C   0  0  0  0  0  0  0  0  0  0  0  0
    5.4936    0.6804   20.0972 C   0  0  0  0  0  0  0  0  0  0  0  0
    4.8650    1.3307   19.0353 C   0  0  0  0  0  0  0  0  0  0  0  0
    5.4763    1.3198   17.7771 C   0  0  0  0  0  0  0  0  0  0  0  0
    6.6443    0.7092   17.5345 N   0  0  0  0  0  0  0  0  0  0  0  0
    7.2416    0.1021   18.5701 C   0  0  0  0  0  0  0  0  0  0  0  0
    8.1993   -0.3686   18.3470 H   0  0  0  0  0  0  0  0  0  0  0  0
    5.0165    1.8320   16.9327 H   0  0  0  0  0  0  0  0  0  0  0  0
    3.9382    1.8694   19.1804 H   0  0  0  0  0  0  0  0  0  0  0  0
    5.0412    0.6652   21.0939 H   0  0  0  0  0  0  0  0  0  0  0  0
    8.4784   -0.9308   20.6291 H   0  0  0  0  0  0  0  0  0  0  0  0
    7.2267    1.2299   21.9970 H   0  0  0  0  0  0  0  0  0  0  0  0
    8.0559    2.4098   24.0626 N   0  0  0  0  0  0  0  0  0  0  0  0
    6.6253    4.5768   25.6372 C   0  0  0  0  0  0  0  0  0  0  0  0
    5.5805    3.6871   25.0142 C   0  0  0  0  0  0  0  0  0  0  0  0
    5.7334    3.5798   23.9360 H   0  0  0  0  0  0  0  0  0  0  0  0
    4.5635    4.0518   25.1927 H   0  0  0  0  0  0  0  0  0  0  0  0
    5.6620    2.6724   25.4142 H   0  0  0  0  0  0  0  0  0  0  0  0
    6.2555    5.8159   26.1860 C   0  0  0  0  0  0  0  0  0  0  0  0
    5.2172    6.1386   26.1089 H   0  0  0  0  0  0  0  0  0  0  0  0
    9.9406    4.7232   26.4768 H   0  0  0  0  0  0  0  0  0  0  0  0
    9.2064    6.8312   27.5329 H   0  0  0  0  0  0  0  0  0  0  0  0
    6.9550    8.7866   26.6508 H   0  0  0  0  0  0  0  0  0  0  0  0
    5.6390    8.0231   27.5480 H   0  0  0  0  0  0  0  0  0  0  0  0
    7.2212    8.2540   28.3095 H   0  0  0  0  0  0  0  0  0  0  0  0
  1  2  1  0
  2  3  2  0
  3  4  1  0
  4  5  2  0
  5  6  1  0
  6  7  1  0
  7  8  2  0
  8  9  1  0
  9 10  1  0
  9 11  1  0
  9 12  1  0
  8 13  1  0
 13 14  1  0
 14 15  2  0
 14 16  1  0
 16 17  1  0
 17 18  1  0
 18 19  1  0
 18 20  1  0
 18 21  1  0
 17 22  1  0
 22 23  2  0
 23 24  1  0
 24 25  2  0
 25 26  1  0
 26 27  2  0
 27 28  1  0
 25 29  1  0
 24 30  1  0
 23 31  1  0
 17 32  1  0
 16 33  1  0
 13 34  2  0
  5 35  1  0
 35 36  1  0
 36 37  1  0
 36 38  1  0
 36 39  1  0
 35 40  2  0
 40 41  1  0
  4 42  1  0
  3 43  1  0
  1 44  1  0
  1 45  1  0
  1 46  1  0
 40  2  1  0
 34  6  1  0
 27 22  1  0
M  END
>  <plip>  (1) 
-0.06666666666666667

>  <filename>  (1) 
[H][c]1[n][c]([H])[c]([C]([H])([N]([H])[C](=[O])[c]2[n][n](-[c]3[c]([H])[c]([H])[c]([C]([H])([H])[H])[c]([H])[c]3[C]([H])([H])[H])[n][c]2[C]([H])([H])[H])[C]([H])([H])[H])[c]([H])[c]1[H]

$$$$
