
     RDKit          3D

 30 31  0  0  0  0  0  0  0  0999 V2000
   10.3513    0.4447   20.4957 H   0  0  0  0  0  0  0  0  0  0  0  0
    9.5522    0.7974   20.0825 O   0  0  0  0  0  0  0  0  0  0  0  0
    8.9407    1.7209   20.9506 C   0  0  0  0  0  0  0  0  0  0  0  0
    9.5964    2.5838   21.1590 H   0  0  0  0  0  0  0  0  0  0  0  0
    8.0665    2.1327   20.4342 H   0  0  0  0  0  0  0  0  0  0  0  0
    8.5110    1.1079   22.3095 C   0  0  0  0  0  0  0  0  0  0  0  0
    7.9717   -0.2750   22.0898 N   0  0  0  0  0  0  0  0  0  0  0  0
    8.3035   -1.2811   22.9256 N   0  0  0  0  0  0  0  0  0  0  0  0
    7.8575   -2.3883   22.4348 N   0  0  0  0  0  0  0  0  0  0  0  0
    7.2157   -2.1236   21.2709 C   0  0  0  0  0  0  0  0  0  0  0  0
    6.7672   -2.9095   20.6779 H   0  0  0  0  0  0  0  0  0  0  0  0
    7.2417   -0.7686   21.0346 C   0  0  0  0  0  0  0  0  0  0  0  0
    6.6045    0.0352   19.9533 C   0  0  0  0  0  0  0  0  0  0  0  0
    7.1557    0.0536   18.6571 C   0  0  0  0  0  0  0  0  0  0  0  0
    8.1034   -0.4511   18.4871 H   0  0  0  0  0  0  0  0  0  0  0  0
    6.6054    0.6749   17.6030 N   0  0  0  0  0  0  0  0  0  0  0  0
    5.4516    1.3273   17.8209 C   0  0  0  0  0  0  0  0  0  0  0  0
    5.0180    1.8296   16.9620 H   0  0  0  0  0  0  0  0  0  0  0  0
    4.8057    1.3795   19.0620 C   0  0  0  0  0  0  0  0  0  0  0  0
    3.8732    1.9231   19.1771 H   0  0  0  0  0  0  0  0  0  0  0  0
    5.4020    0.7291   20.1509 C   0  0  0  0  0  0  0  0  0  0  0  0
    4.9519    0.7378   21.1430 H   0  0  0  0  0  0  0  0  0  0  0  0
    9.7152    1.0583   23.2748 C   0  0  0  0  0  0  0  0  0  0  0  0
   10.5156    0.4179   22.8934 H   0  0  0  0  0  0  0  0  0  0  0  0
   10.1300    2.0597   23.4317 H   0  0  0  0  0  0  0  0  0  0  0  0
    9.4068    0.6608   24.2456 H   0  0  0  0  0  0  0  0  0  0  0  0
    7.4311    2.0092   22.9254 C   0  0  0  0  0  0  0  0  0  0  0  0
    7.8626    3.0008   23.1182 H   0  0  0  0  0  0  0  0  0  0  0  0
    6.5867    2.1418   22.2427 H   0  0  0  0  0  0  0  0  0  0  0  0
    7.0682    1.5948   23.8716 H   0  0  0  0  0  0  0  0  0  0  0  0
  1  2  1  0
  2  3  1  0
  3  4  1  0
  3  5  1  0
  3  6  1  0
  6  7  1  0
  7  8  1  0
  8  9  2  0
  9 10  1  0
 10 11  1  0
 10 12  2  0
 12 13  1  0
 13 14  2  0
 14 15  1  0
 14 16  1  0
 16 17  2  0
 17 18  1  0
 17 19  1  0
 19 20  1  0
 19 21  2  0
 21 22  1  0
  6 23  1  0
 23 24  1  0
 23 25  1  0
 23 26  1  0
  6 27  1  0
 27 28  1  0
 27 29  1  0
 27 30  1  0
 12  7  1  0
 21 13  1  0
M  END
>  <plip>  (1) 
-0.06666666666666667

>  <filename>  (1) 
[H][O][C]([H])([H])[C]([n]1[n][n][c]([H])[c]1-[c]1[c]([H])[n][c]([H])[c]([H])[c]1[H])([C]([H])([H])[H])[C]([H])([H])[H]

$$$$
