
     RDKit          3D

 47 49  0  0  0  0  0  0  0  0999 V2000
    5.7006   -3.8233   20.4742 C   0  0  0  0  0  0  0  0  0  0  0  0
    6.5384   -2.7008   20.3215 O   0  0  0  0  0  0  0  0  0  0  0  0
    6.6988   -1.9337   21.4746 C   0  0  0  0  0  0  0  0  0  0  0  0
    7.4208   -2.6561   22.4478 O   0  0  0  0  0  0  0  0  0  0  0  0
    6.7381   -2.9647   23.6493 C   0  0  0  0  0  0  0  0  0  0  0  0
    7.4095   -3.5701   24.2649 H   0  0  0  0  0  0  0  0  0  0  0  0
    6.4778   -2.0654   24.2276 H   0  0  0  0  0  0  0  0  0  0  0  0
    5.8188   -3.5435   23.4787 H   0  0  0  0  0  0  0  0  0  0  0  0
    7.4377   -0.6403   21.0150 C   0  0  0  0  0  0  0  0  0  0  0  0
    7.7381    0.2506   22.1198 N   0  0  0  0  0  0  0  0  0  0  0  0
    8.7009    1.2133   22.0541 C   0  0  0  0  0  0  0  0  0  0  0  0
    9.4742    1.3082   21.1141 O   0  0  0  0  0  0  0  0  0  0  0  0
    8.6980    2.0841   23.2710 C   0  0  0  0  0  0  0  0  0  0  0  0
    9.5960    3.0523   23.4797 C   0  0  0  0  0  0  0  0  0  0  0  0
    9.6557    4.0158   24.5969 C   0  0  0  0  0  0  0  0  0  0  0  0
    8.6126    4.1808   25.5990 C   0  0  0  0  0  0  0  0  0  0  0  0
    8.7229    5.0234   26.6065 N   0  0  0  0  0  0  0  0  0  0  0  0
    9.9096    5.7276   26.6881 C   0  0  0  0  0  0  0  0  0  0  0  0
   10.1370    6.5791   27.7983 C   0  0  0  0  0  0  0  0  0  0  0  0
   11.3601    7.2022   27.9480 C   0  0  0  0  0  0  0  0  0  0  0  0
   12.3992    7.0070   26.9963 C   0  0  0  0  0  0  0  0  0  0  0  0
   12.1967    6.2170   25.8877 C   0  0  0  0  0  0  0  0  0  0  0  0
   10.9446    5.5652   25.7043 C   0  0  0  0  0  0  0  0  0  0  0  0
   10.7811    4.7180   24.6401 N   0  0  0  0  0  0  0  0  0  0  0  0
   12.9642    6.0277   25.1433 H   0  0  0  0  0  0  0  0  0  0  0  0
   13.3668    7.4749   27.1621 H   0  0  0  0  0  0  0  0  0  0  0  0
   11.5453    7.8366   28.8082 H   0  0  0  0  0  0  0  0  0  0  0  0
    9.3251    6.6734   28.5109 H   0  0  0  0  0  0  0  0  0  0  0  0
    7.6946    3.5925   25.5597 H   0  0  0  0  0  0  0  0  0  0  0  0
   10.4346    3.1961   22.7968 H   0  0  0  0  0  0  0  0  0  0  0  0
    7.9256    1.8625   24.0071 H   0  0  0  0  0  0  0  0  0  0  0  0
    7.0816    0.3621   22.8686 H   0  0  0  0  0  0  0  0  0  0  0  0
    6.6834    0.1048   19.9121 C   0  0  0  0  0  0  0  0  0  0  0  0
    5.4471    0.7335   20.1257 C   0  0  0  0  0  0  0  0  0  0  0  0
    4.8120    1.3417   19.0394 C   0  0  0  0  0  0  0  0  0  0  0  0
    5.4315    1.3122   17.7839 C   0  0  0  0  0  0  0  0  0  0  0  0
    6.6046    0.7081   17.5529 N   0  0  0  0  0  0  0  0  0  0  0  0
    7.1974    0.1270   18.6085 C   0  0  0  0  0  0  0  0  0  0  0  0
    8.1416   -0.3734   18.3954 H   0  0  0  0  0  0  0  0  0  0  0  0
    4.9603    1.7899   16.9253 H   0  0  0  0  0  0  0  0  0  0  0  0
    3.8561    1.8418   19.1494 H   0  0  0  0  0  0  0  0  0  0  0  0
    4.9779    0.7664   21.1146 H   0  0  0  0  0  0  0  0  0  0  0  0
    8.3943   -0.9935   20.6155 H   0  0  0  0  0  0  0  0  0  0  0  0
    5.7081   -1.6476   21.8777 H   0  0  0  0  0  0  0  0  0  0  0  0
    6.1756   -4.6408   21.0309 H   0  0  0  0  0  0  0  0  0  0  0  0
    5.4622   -4.1788   19.4690 H   0  0  0  0  0  0  0  0  0  0  0  0
    4.7804   -3.5397   21.0052 H   0  0  0  0  0  0  0  0  0  0  0  0
  1  2  1  0
  2  3  1  0
  3  4  1  0
  4  5  1  0
  5  6  1  0
  5  7  1  0
  5  8  1  0
  3  9  1  0
  9 10  1  0
 10 11  1  0
 11 12  2  0
 11 13  1  0
 13 14  2  3
 14 15  1  0
 15 16  2  0
 16 17  1  0
 17 18  2  0
 18 19  1  0
 19 20  2  0
 20 21  1  0
 21 22  2  0
 22 23  1  0
 23 24  2  0
 22 25  1  0
 21 26  1  0
 20 27  1  0
 19 28  1  0
 16 29  1  0
 14 30  1  0
 13 31  1  0
 10 32  1  0
  9 33  1  0
 33 34  2  0
 34 35  1  0
 35 36  2  0
 36 37  1  0
 37 38  2  0
 38 39  1  0
 36 40  1  0
 35 41  1  0
 34 42  1  0
  9 43  1  0
  3 44  1  0
  1 45  1  0
  1 46  1  0
  1 47  1  0
 24 15  1  0
 38 33  1  0
 23 18  1  0
M  END
>  <plip>  (1) 
-0.17857142857142858

>  <filename>  (1) 
[H][C]([C](=[O])[N]([H])[C]([H])([c]1[c]([H])[n][c]([H])[c]([H])[c]1[H])[C]([H])([O][C]([H])([H])[H])[O][C]([H])([H])[H])=[C]([H])[c]1[n][c]2[c]([H])[c]([H])[c]([H])[c]([H])[c]2[n][c]1[H]

$$$$
