
     RDKit          3D

 29 30  0  0  0  0  0  0  0  0999 V2000
   10.9105    0.3132   24.0648 C   0  0  0  0  0  0  0  0  0  0  0  0
   10.5091    0.8199   22.6774 C   0  0  2  0  0  0  0  0  0  0  0  0
    9.4800    1.8340   22.7049 N   0  0  0  0  0  0  0  0  0  0  0  0
    8.3178    1.4463   22.1121 C   0  0  0  0  0  0  0  0  0  0  0  0
    7.2929    2.0838   22.1112 O   0  0  0  0  0  0  0  0  0  0  0  0
    8.5460    0.2091   21.5266 N   0  0  0  0  0  0  0  0  0  0  0  0
    7.4923   -0.6551   20.9988 C   0  0  1  0  0  0  0  0  0  0  0  0
    6.6481   -1.2400   22.1309 C   0  0  0  0  0  0  0  0  0  0  0  0
    6.2301   -0.4457   22.7600 H   0  0  0  0  0  0  0  0  0  0  0  0
    5.8231   -1.8203   21.7080 H   0  0  0  0  0  0  0  0  0  0  0  0
    7.2460   -1.9109   22.7573 H   0  0  0  0  0  0  0  0  0  0  0  0
    6.6877    0.0524   19.9323 C   0  0  0  0  0  0  0  0  0  0  0  0
    5.4485    0.6618   20.1620 C   0  0  0  0  0  0  0  0  0  0  0  0
    4.8079    1.3023   19.1006 C   0  0  0  0  0  0  0  0  0  0  0  0
    5.4036    1.2851   17.8381 C   0  0  0  0  0  0  0  0  0  0  0  0
    6.5666    0.6675   17.5887 N   0  0  0  0  0  0  0  0  0  0  0  0
    7.1828    0.0802   18.6200 C   0  0  0  0  0  0  0  0  0  0  0  0
    8.1224   -0.4155   18.3759 H   0  0  0  0  0  0  0  0  0  0  0  0
    4.9299    1.7811   16.9925 H   0  0  0  0  0  0  0  0  0  0  0  0
    3.8797    1.8346   19.2499 H   0  0  0  0  0  0  0  0  0  0  0  0
    4.9981    0.6519   21.1583 H   0  0  0  0  0  0  0  0  0  0  0  0
    8.0298   -1.4849   20.5236 H   0  0  0  0  0  0  0  0  0  0  0  0
    9.8104   -0.2508   21.8181 C   0  0  0  0  0  0  0  0  0  0  0  0
   10.2615   -1.3110   21.4580 O   0  0  0  0  0  0  0  0  0  0  0  0
    9.4525    2.6911   23.2196 H   0  0  0  0  0  0  0  0  0  0  0  0
   11.4034    1.1689   22.1384 H   0  0  0  0  0  0  0  0  0  0  0  0
   11.3659    1.1058   24.6698 H   0  0  0  0  0  0  0  0  0  0  0  0
   11.6329   -0.4987   23.9549 H   0  0  0  0  0  0  0  0  0  0  0  0
   10.0330   -0.0671   24.5982 H   0  0  0  0  0  0  0  0  0  0  0  0
  1  2  1  0
  2  3  1  0
  3  4  1  0
  4  5  2  0
  4  6  1  0
  6  7  1  0
  7  8  1  0
  8  9  1  0
  8 10  1  0
  8 11  1  0
  7 12  1  0
 12 13  2  0
 13 14  1  0
 14 15  2  0
 15 16  1  0
 16 17  2  0
 17 18  1  0
 15 19  1  0
 14 20  1  0
 13 21  1  0
  7 22  1  6
  6 23  1  0
 23 24  2  0
  3 25  1  0
  2 26  1  6
  1 27  1  0
  1 28  1  0
  1 29  1  0
 23  2  1  0
 17 12  1  0
M  END
>  <plip>  (1) 
-0.0

>  <filename>  (1) 
[H][c]1[n][c]([H])[c]([C@@]([H])([N]2[C](=[O])[N]([H])[C@@]([H])([C]([H])([H])[H])[C]2=[O])[C]([H])([H])[H])[c]([H])[c]1[H]

$$$$
