
     RDKit          3D

 40 42  0  0  0  0  0  0  0  0999 V2000
   11.3926    1.7129   23.2490 N   0  0  0  0  0  0  0  0  0  0  0  0
   10.5571    1.3881   24.3111 C   0  0  0  0  0  0  0  0  0  0  0  0
   11.0688    0.7056   25.4161 C   0  0  0  0  0  0  0  0  0  0  0  0
   10.2148    0.2368   26.4100 C   0  0  0  0  0  0  0  0  0  0  0  0
    8.8470    0.5070   26.3457 C   0  0  0  0  0  0  0  0  0  0  0  0
    8.3651    1.2668   25.2767 C   0  0  0  0  0  0  0  0  0  0  0  0
    6.6548    1.6405   25.2670 Cl  0  0  0  0  0  0  0  0  0  0  0  0
    9.1914    1.7483   24.2538 C   0  0  0  0  0  0  0  0  0  0  0  0
    8.6526    2.5515   23.0828 C   0  0  0  0  0  0  0  0  0  0  0  0
    7.8239    1.7246   22.2225 N   0  0  0  0  0  0  0  0  0  0  0  0
    8.3731    0.7202   21.4862 C   0  0  0  0  0  0  0  0  0  0  0  0
    9.5695    0.7022   21.2112 O   0  0  0  0  0  0  0  0  0  0  0  0
    7.3611   -0.3293   20.9728 C   0  0  0  0  0  0  0  0  0  0  0  0
    6.5630    0.2840   19.8179 C   0  0  0  0  0  0  0  0  0  0  0  0
    5.3532    0.9565   20.0263 C   0  0  0  0  0  0  0  0  0  0  0  0
    4.7072    1.5408   18.9335 C   0  0  0  0  0  0  0  0  0  0  0  0
    5.3086    1.4537   17.6723 C   0  0  0  0  0  0  0  0  0  0  0  0
    6.4780    0.8355   17.4467 N   0  0  0  0  0  0  0  0  0  0  0  0
    7.0808    0.2793   18.5046 C   0  0  0  0  0  0  0  0  0  0  0  0
    8.0474   -0.1845   18.3047 H   0  0  0  0  0  0  0  0  0  0  0  0
    4.8239    1.8931   16.8050 H   0  0  0  0  0  0  0  0  0  0  0  0
    3.7700    2.0722   19.0560 H   0  0  0  0  0  0  0  0  0  0  0  0
    4.9255    1.0261   21.0299 H   0  0  0  0  0  0  0  0  0  0  0  0
    7.9882   -1.7191   20.6675 C   0  0  0  0  0  0  0  0  0  0  0  0
    7.5188   -2.2612   22.0258 C   0  0  0  0  0  0  0  0  0  0  0  0
    6.5582   -1.0594   22.1162 C   0  0  0  0  0  0  0  0  0  0  0  0
    5.5712   -1.3204   21.7324 H   0  0  0  0  0  0  0  0  0  0  0  0
    6.4753   -0.5740   23.0988 H   0  0  0  0  0  0  0  0  0  0  0  0
    8.2967   -2.2384   22.7924 H   0  0  0  0  0  0  0  0  0  0  0  0
    7.0573   -3.2549   22.0183 H   0  0  0  0  0  0  0  0  0  0  0  0
    7.3843   -2.1765   19.8834 H   0  0  0  0  0  0  0  0  0  0  0  0
    9.0568   -1.7355   20.4280 H   0  0  0  0  0  0  0  0  0  0  0  0
    6.8829    1.5458   22.5358 H   0  0  0  0  0  0  0  0  0  0  0  0
    8.0589    3.4091   23.4135 H   0  0  0  0  0  0  0  0  0  0  0  0
    9.4679    2.9558   22.4765 H   0  0  0  0  0  0  0  0  0  0  0  0
    8.1531    0.1550   27.1000 H   0  0  0  0  0  0  0  0  0  0  0  0
   10.6165   -0.3377   27.2391 H   0  0  0  0  0  0  0  0  0  0  0  0
   12.1412    0.5493   25.4724 H   0  0  0  0  0  0  0  0  0  0  0  0
   10.9343    1.4338   22.3783 H   0  0  0  0  0  0  0  0  0  0  0  0
   12.2880    1.2582   23.3459 H   0  0  0  0  0  0  0  0  0  0  0  0
  1  2  1  0
  2  3  2  0
  3  4  1  0
  4  5  2  0
  5  6  1  0
  6  7  1  0
  6  8  2  0
  8  9  1  0
  9 10  1  0
 10 11  1  0
 11 12  2  0
 11 13  1  0
 13 14  1  0
 14 15  2  0
 15 16  1  0
 16 17  2  0
 17 18  1  0
 18 19  2  0
 19 20  1  0
 17 21  1  0
 16 22  1  0
 15 23  1  0
 13 24  1  0
 24 25  1  0
 25 26  1  0
 26 27  1  0
 26 28  1  0
 25 29  1  0
 25 30  1  0
 24 31  1  0
 24 32  1  0
 10 33  1  0
  9 34  1  0
  9 35  1  0
  5 36  1  0
  4 37  1  0
  3 38  1  0
  1 39  1  0
  1 40  1  0
  8  2  1  0
 26 13  1  0
 19 14  1  0
M  END
>  <plip>  (1) 
-0.10344827586206896

>  <filename>  (1) 
[H][c]1[n][c]([H])[c]([C]2([C](=[O])[N]([H])[C]([H])([H])[c]3[c]([Cl])[c]([H])[c]([H])[c]([H])[c]3[N]([H])[H])[C]([H])([H])[C]([H])([H])[C]2([H])[H])[c]([H])[c]1[H]

$$$$
