
     RDKit          3D

 30 31  0  0  0  0  0  0  0  0999 V2000
    7.8272    0.2432   22.1257 C   0  0  0  0  0  0  0  0  0  0  0  0
    7.4233   -0.7320   21.0093 C   0  0  0  0  0  0  0  0  0  0  0  0
    6.5980   -1.9234   21.5489 C   0  0  0  0  0  0  0  0  0  0  0  0
    7.4129   -2.8348   22.4295 C   0  0  0  0  0  0  0  0  0  0  0  0
    8.1381   -3.6844   21.9468 O   0  0  0  0  0  0  0  0  0  0  0  0
    7.3348   -2.6457   23.7816 N   0  0  0  0  0  0  0  0  0  0  0  0
    8.1996   -3.2462   24.6751 C   0  0  0  0  0  0  0  0  0  0  0  0
    7.8962   -3.2220   25.9426 N   0  0  0  0  0  0  0  0  0  0  0  0
    8.9601   -3.8569   26.5721 O   0  0  0  0  0  0  0  0  0  0  0  0
    9.8551   -4.2199   25.6493 C   0  0  0  0  0  0  0  0  0  0  0  0
    9.4481   -3.8677   24.4072 C   0  0  0  0  0  0  0  0  0  0  0  0
    9.9029   -3.9871   23.4409 H   0  0  0  0  0  0  0  0  0  0  0  0
   10.7304   -4.7233   26.0424 H   0  0  0  0  0  0  0  0  0  0  0  0
    6.6230   -2.0820   24.2106 H   0  0  0  0  0  0  0  0  0  0  0  0
    5.7235   -1.5465   22.0721 H   0  0  0  0  0  0  0  0  0  0  0  0
    6.2482   -2.5448   20.7203 H   0  0  0  0  0  0  0  0  0  0  0  0
    6.6591   -0.0129   19.9070 C   0  0  0  0  0  0  0  0  0  0  0  0
    5.4404    0.6428   20.1450 C   0  0  0  0  0  0  0  0  0  0  0  0
    4.8024    1.3071   19.0937 C   0  0  0  0  0  0  0  0  0  0  0  0
    5.3969    1.2939   17.8281 C   0  0  0  0  0  0  0  0  0  0  0  0
    6.5577    0.6749   17.5704 N   0  0  0  0  0  0  0  0  0  0  0  0
    7.1594    0.0511   18.5931 C   0  0  0  0  0  0  0  0  0  0  0  0
    8.1130   -0.4231   18.3561 H   0  0  0  0  0  0  0  0  0  0  0  0
    4.9241    1.7998   16.9867 H   0  0  0  0  0  0  0  0  0  0  0  0
    3.8717    1.8438   19.2447 H   0  0  0  0  0  0  0  0  0  0  0  0
    4.9974    0.6516   21.1422 H   0  0  0  0  0  0  0  0  0  0  0  0
    8.3359   -1.1507   20.5576 H   0  0  0  0  0  0  0  0  0  0  0  0
    6.9421    0.6094   22.6612 H   0  0  0  0  0  0  0  0  0  0  0  0
    8.3403    1.1133   21.7036 H   0  0  0  0  0  0  0  0  0  0  0  0
    8.4907   -0.2252   22.8586 H   0  0  0  0  0  0  0  0  0  0  0  0
  1  2  1  0
  2  3  1  0
  3  4  1  0
  4  5  2  0
  4  6  1  0
  6  7  1  0
  7  8  2  0
  8  9  1  0
  9 10  1  0
 10 11  2  0
 11 12  1  0
 10 13  1  0
  6 14  1  0
  3 15  1  0
  3 16  1  0
  2 17  1  0
 17 18  2  0
 18 19  1  0
 19 20  2  0
 20 21  1  0
 21 22  2  0
 22 23  1  0
 20 24  1  0
 19 25  1  0
 18 26  1  0
  2 27  1  0
  1 28  1  0
  1 29  1  0
  1 30  1  0
 11  7  1  0
 22 17  1  0
M  END
>  <plip>  (1) 
-0.034482758620689655

>  <filename>  (1) 
[H][c]1[n][c]([H])[c]([C]([H])([C]([H])([H])[H])[C]([H])([H])[C](=[O])[N]([H])[c]2[n][o][c]([H])[c]2[H])[c]([H])[c]1[H]

$$$$
