
     RDKit          3D

 49 52  0  0  0  0  0  0  0  0999 V2000
    4.8002    1.3316   19.0604 C   0  0  0  0  0  0  0  0  0  0  0  0
    5.4115    1.3040   17.8031 C   0  0  0  0  0  0  0  0  0  0  0  0
    6.5569    0.6506   17.5600 N   0  0  0  0  0  0  0  0  0  0  0  0
    7.1354    0.0332   18.6022 C   0  0  0  0  0  0  0  0  0  0  0  0
    6.6419    0.0294   19.9159 C   0  0  0  0  0  0  0  0  0  0  0  0
    7.4266   -0.7071   20.9935 C   0  0  0  0  0  0  0  0  0  0  0  0
    7.9402    0.1435   22.1672 C   0  0  0  0  0  0  0  0  0  0  0  0
    9.0172    1.1785   21.7506 C   0  0  0  0  0  0  0  0  0  0  0  0
    8.4113    2.5017   21.2498 C   0  0  0  0  0  0  0  0  0  0  0  0
    8.4180    3.4182   22.4938 C   0  0  0  0  0  0  0  0  0  0  0  0
    9.2281    2.7920   23.4787 O   0  0  0  0  0  0  0  0  0  0  0  0
    9.9341    1.7339   22.8622 C   0  0  0  0  0  0  0  0  0  0  0  0
   10.8567    2.1205   22.3905 H   0  0  0  0  0  0  0  0  0  0  0  0
   10.2155    1.0148   23.6381 H   0  0  0  0  0  0  0  0  0  0  0  0
    8.8141    4.4119   22.2323 H   0  0  0  0  0  0  0  0  0  0  0  0
    7.4210    3.5430   22.9280 H   0  0  0  0  0  0  0  0  0  0  0  0
    7.4074    2.3924   20.8204 H   0  0  0  0  0  0  0  0  0  0  0  0
    9.0627    2.9263   20.4897 H   0  0  0  0  0  0  0  0  0  0  0  0
    9.6649    0.7208   20.9892 H   0  0  0  0  0  0  0  0  0  0  0  0
    8.3578   -0.5565   22.9040 H   0  0  0  0  0  0  0  0  0  0  0  0
    7.0781    0.6383   22.6376 H   0  0  0  0  0  0  0  0  0  0  0  0
    6.5734   -1.8095   21.5206 N   0  0  0  0  0  4  0  0  0  0  0  0
    6.2232   -2.8401   20.5257 C   0  0  0  0  0  0  0  0  0  0  0  0
    5.4716   -3.9727   21.1957 C   0  0  0  0  0  0  0  0  0  0  0  0
    6.2893   -4.6565   22.2593 C   0  0  0  0  0  0  0  0  0  0  0  0
    7.1575   -5.5500   21.8788 N   0  0  0  0  0  0  0  0  0  0  0  0
    7.9579   -6.2324   23.1880 S   0  0  0  0  0  0  0  0  0  0  0  0
    7.0850   -5.3077   24.3750 C   0  0  0  0  0  0  0  0  0  0  0  0
    7.1855   -5.3321   25.7791 C   0  0  0  0  0  0  0  0  0  0  0  0
    6.4394   -4.4159   26.5076 C   0  0  0  0  0  0  0  0  0  0  0  0
    5.5680   -3.5110   25.8621 C   0  0  0  0  0  0  0  0  0  0  0  0
    5.4302   -3.5354   24.4809 C   0  0  0  0  0  0  0  0  0  0  0  0
    6.1978   -4.4372   23.7076 C   0  0  0  0  0  0  0  0  0  0  0  0
    4.7306   -2.8600   23.9974 H   0  0  0  0  0  0  0  0  0  0  0  0
    4.9959   -2.8010   26.4555 H   0  0  0  0  0  0  0  0  0  0  0  0
    6.5228   -4.4001   27.5905 H   0  0  0  0  0  0  0  0  0  0  0  0
    7.8282   -6.0634   26.2704 H   0  0  0  0  0  0  0  0  0  0  0  0
    4.5260   -3.6114   21.6099 H   0  0  0  0  0  0  0  0  0  0  0  0
    5.2646   -4.7261   20.4292 H   0  0  0  0  0  0  0  0  0  0  0  0
    7.1287   -3.2467   20.0698 H   0  0  0  0  0  0  0  0  0  0  0  0
    5.6391   -2.3962   19.7089 H   0  0  0  0  0  0  0  0  0  0  0  0
    5.6851   -1.3356   21.8438 H   0  0  0  0  0  0  0  0  0  0  0  0
    7.0165   -2.2749   22.3466 H   0  0  0  0  0  0  0  0  0  0  0  0
    8.3035   -1.1526   20.5020 H   0  0  0  0  0  0  0  0  0  0  0  0
    5.4144    0.6758   20.1329 C   0  0  0  0  0  0  0  0  0  0  0  0
    4.9434    0.6919   21.1208 H   0  0  0  0  0  0  0  0  0  0  0  0
    8.0577   -0.5018   18.3795 H   0  0  0  0  0  0  0  0  0  0  0  0
    4.9611    1.8290   16.9590 H   0  0  0  0  0  0  0  0  0  0  0  0
    3.8625    1.8610   19.1802 H   0  0  0  0  0  0  0  0  0  0  0  0
  1  2  2  0
  2  3  1  0
  3  4  2  0
  4  5  1  0
  5  6  1  0
  6  7  1  0
  7  8  1  0
  8  9  1  0
  9 10  1  0
 10 11  1  0
 11 12  1  0
 12 13  1  0
 12 14  1  0
 10 15  1  0
 10 16  1  0
  9 17  1  0
  9 18  1  0
  8 19  1  0
  7 20  1  0
  7 21  1  0
  6 22  1  0
 22 23  1  0
 23 24  1  0
 24 25  1  0
 25 26  2  0
 26 27  1  0
 27 28  1  0
 28 29  2  0
 29 30  1  0
 30 31  2  0
 31 32  1  0
 32 33  2  0
 32 34  1  0
 31 35  1  0
 30 36  1  0
 29 37  1  0
 24 38  1  0
 24 39  1  0
 23 40  1  0
 23 41  1  0
 22 42  1  0
 22 43  1  0
  6 44  1  0
  5 45  2  0
 45 46  1  0
  4 47  1  0
  2 48  1  0
  1 49  1  0
 45  1  1  0
 12  8  1  0
 33 25  1  0
 33 28  1  0
M  CHG  1  22   1
M  END
>  <plip>  (1) 
-0.06666666666666667

>  <filename>  (1) 
[H][c]1[n][c]([H])[c]([C]([H])([C]([H])([H])[C]2([H])[C]([H])([H])[O][C]([H])([H])[C]2([H])[H])[N+]([H])([H])[C]([H])([H])[C]([H])([H])[c]2[n][s][c]3[c]([H])[c]([H])[c]([H])[c]([H])[c]23)[c]([H])[c]1[H]

$$$$
