
     RDKit          3D

 37 39  0  0  0  0  0  0  0  0999 V2000
    9.4021    3.9610   23.4421 C   0  0  0  0  0  0  0  0  0  0  0  0
    8.3763    3.1506   24.1779 C   0  0  0  0  0  0  0  0  0  0  0  0
    7.7035    1.9888   23.8606 C   0  0  0  0  0  0  0  0  0  0  0  0
    7.8461    1.2140   22.5912 C   0  0  0  0  0  0  0  0  0  0  0  0
    8.4495    1.7147   21.6290 O   0  0  0  0  0  0  0  0  0  0  0  0
    7.2819   -0.0001   22.5840 N   0  0  0  0  0  0  0  0  0  0  0  0
    7.6159   -0.7386   21.1598 S   0  0  0  0  0  0  0  0  0  0  0  0
    8.9942   -0.9350   20.7346 O   0  0  0  0  0  0  0  0  0  0  0  0
    6.7699   -2.2744   21.3883 C   0  0  0  0  0  0  0  0  0  0  0  0
    7.3116   -2.7534   22.2004 H   0  0  0  0  0  0  0  0  0  0  0  0
    5.7400   -2.0670   21.6792 H   0  0  0  0  0  0  0  0  0  0  0  0
    6.8303   -2.8585   20.4701 H   0  0  0  0  0  0  0  0  0  0  0  0
    6.6579    0.0910   19.9896 C   0  0  0  0  0  0  0  0  0  0  0  0
    5.4235    0.7008   20.2322 C   0  0  0  0  0  0  0  0  0  0  0  0
    4.8150    1.3044   19.1334 C   0  0  0  0  0  0  0  0  0  0  0  0
    5.4486    1.2551   17.8842 C   0  0  0  0  0  0  0  0  0  0  0  0
    6.6179    0.6282   17.6713 N   0  0  0  0  0  0  0  0  0  0  0  0
    7.2173    0.0646   18.7155 C   0  0  0  0  0  0  0  0  0  0  0  0
    8.1724   -0.4326   18.5318 H   0  0  0  0  0  0  0  0  0  0  0  0
    4.9922    1.7326   17.0185 H   0  0  0  0  0  0  0  0  0  0  0  0
    3.8696    1.8282   19.2352 H   0  0  0  0  0  0  0  0  0  0  0  0
    4.9481    0.7238   21.2206 H   0  0  0  0  0  0  0  0  0  0  0  0
    6.8181    1.6766   24.9566 C   0  0  0  0  0  0  0  0  0  0  0  0
    5.8898    0.6301   25.1754 C   0  0  0  0  0  0  0  0  0  0  0  0
    5.1779    0.6381   26.3607 C   0  0  0  0  0  0  0  0  0  0  0  0
    4.0195   -0.6254   26.6693 Cl  0  0  0  0  0  0  0  0  0  0  0  0
    5.3621    1.6497   27.3351 C   0  0  0  0  0  0  0  0  0  0  0  0
    6.2742    2.6794   27.1228 C   0  0  0  0  0  0  0  0  0  0  0  0
    7.0004    2.6823   25.9202 C   0  0  0  0  0  0  0  0  0  0  0  0
    7.9493    3.5452   25.4189 N   0  0  0  0  0  0  0  0  0  0  0  0
    8.2680    4.3772   25.8796 H   0  0  0  0  0  0  0  0  0  0  0  0
    6.4106    3.4532   27.8731 H   0  0  0  0  0  0  0  0  0  0  0  0
    4.7807    1.6019   28.2506 H   0  0  0  0  0  0  0  0  0  0  0  0
    5.7621   -0.1432   24.4314 H   0  0  0  0  0  0  0  0  0  0  0  0
    8.9899    4.3782   22.5184 H   0  0  0  0  0  0  0  0  0  0  0  0
   10.2658    3.3536   23.1552 H   0  0  0  0  0  0  0  0  0  0  0  0
    9.7563    4.7922   24.0631 H   0  0  0  0  0  0  0  0  0  0  0  0
  1  2  1  0
  2  3  2  0
  3  4  1  0
  4  5  2  0
  4  6  1  0
  6  7  2  0
  7  8  2  0
  7  9  1  0
  9 10  1  0
  9 11  1  0
  9 12  1  0
  7 13  1  0
 13 14  2  0
 14 15  1  0
 15 16  2  0
 16 17  1  0
 17 18  2  0
 18 19  1  0
 16 20  1  0
 15 21  1  0
 14 22  1  0
  3 23  1  0
 23 24  2  0
 24 25  1  0
 25 26  1  0
 25 27  2  0
 27 28  1  0
 28 29  2  0
 29 30  1  0
 30 31  1  0
 28 32  1  0
 27 33  1  0
 24 34  1  0
  1 35  1  0
  1 36  1  0
  1 37  1  0
 30  2  1  0
 18 13  1  0
 29 23  1  0
M  END
>  <plip>  (1) 
-0.10344827586206896

>  <filename>  (1) 
[H][c]1[n][c]([H])[c]([S](=[O])(=[N][C](=[O])[c]2[c]([C]([H])([H])[H])[n]([H])[c]3[c]([H])[c]([H])[c]([Cl])[c]([H])[c]23)[C]([H])([H])[H])[c]([H])[c]1[H]

$$$$
