
     RDKit          3D

 45 47  0  0  0  0  0  0  0  0999 V2000
    7.3634    1.1734   22.4472 C   0  0  0  0  0  0  0  0  0  0  0  0
    8.1819   -0.0442   21.9701 C   0  0  0  0  0  0  0  0  0  0  0  0
    9.3346    0.4621   21.0869 C   0  0  0  0  0  0  0  0  0  0  0  0
    9.9659   -0.3770   20.7779 H   0  0  0  0  0  0  0  0  0  0  0  0
    8.9450    0.9538   20.1881 H   0  0  0  0  0  0  0  0  0  0  0  0
    9.9537    1.1792   21.6336 H   0  0  0  0  0  0  0  0  0  0  0  0
    7.3736   -1.0914   21.1676 C   0  0  0  0  0  0  0  0  0  0  0  0
    6.5146   -1.9091   22.0209 N   0  0  0  0  0  0  0  0  0  0  0  0
    6.1350   -3.2050   21.7030 C   0  0  0  0  0  0  0  0  0  0  0  0
    6.4014   -3.6457   20.5912 O   0  0  0  0  0  0  0  0  0  0  0  0
    5.4379   -4.1355   22.7208 C   0  0  0  0  0  0  0  0  0  0  0  0
    4.1315   -3.6070   23.0764 O   0  0  0  0  0  0  0  0  0  0  0  0
    3.7220   -3.7499   24.4457 C   0  0  0  0  0  0  0  0  0  0  0  0
    4.7916   -3.1198   25.3308 C   0  0  0  0  0  0  0  0  0  0  0  0
    6.0182   -3.9622   25.1964 C   0  0  0  0  0  0  0  0  0  0  0  0
    6.8255   -4.2599   26.3032 C   0  0  0  0  0  0  0  0  0  0  0  0
    8.0103   -4.9786   26.1381 C   0  0  0  0  0  0  0  0  0  0  0  0
    9.1392   -5.3204   27.6358 Br  0  0  0  0  0  0  0  0  0  0  0  0
    8.3931   -5.3952   24.8602 C   0  0  0  0  0  0  0  0  0  0  0  0
    7.5725   -5.1218   23.7535 C   0  0  0  0  0  0  0  0  0  0  0  0
    6.3654   -4.4142   23.9112 C   0  0  0  0  0  0  0  0  0  0  0  0
    7.8930   -5.4492   22.7683 H   0  0  0  0  0  0  0  0  0  0  0  0
    9.3399   -5.9168   24.7405 H   0  0  0  0  0  0  0  0  0  0  0  0
    6.5559   -3.9131   27.2973 H   0  0  0  0  0  0  0  0  0  0  0  0
    5.0137   -2.1116   24.9753 H   0  0  0  0  0  0  0  0  0  0  0  0
    4.4888   -3.0363   26.3765 H   0  0  0  0  0  0  0  0  0  0  0  0
    3.6064   -4.8085   24.6981 H   0  0  0  0  0  0  0  0  0  0  0  0
    2.7615   -3.2525   24.5989 H   0  0  0  0  0  0  0  0  0  0  0  0
    5.2582   -5.0876   22.2151 H   0  0  0  0  0  0  0  0  0  0  0  0
    6.2892   -1.5713   22.9506 H   0  0  0  0  0  0  0  0  0  0  0  0
    6.5990   -0.3927   20.0829 C   0  0  0  0  0  0  0  0  0  0  0  0
    5.4676    0.3760   20.3592 C   0  0  0  0  0  0  0  0  0  0  0  0
    4.9227    1.1296   19.3199 C   0  0  0  0  0  0  0  0  0  0  0  0
    5.5197    1.1028   18.0531 C   0  0  0  0  0  0  0  0  0  0  0  0
    6.5982    0.3486   17.7804 N   0  0  0  0  0  0  0  0  0  0  0  0
    7.1184   -0.3849   18.7814 C   0  0  0  0  0  0  0  0  0  0  0  0
    8.0097   -0.9692   18.5786 H   0  0  0  0  0  0  0  0  0  0  0  0
    5.1051    1.7283   17.2674 H   0  0  0  0  0  0  0  0  0  0  0  0
    4.0577    1.7608   19.4863 H   0  0  0  0  0  0  0  0  0  0  0  0
    5.0546    0.4171   21.3663 H   0  0  0  0  0  0  0  0  0  0  0  0
    8.1049   -1.7605   20.6997 H   0  0  0  0  0  0  0  0  0  0  0  0
    8.6020   -0.5398   22.8504 H   0  0  0  0  0  0  0  0  0  0  0  0
    6.9285    1.7114   21.5976 H   0  0  0  0  0  0  0  0  0  0  0  0
    6.5557    0.8627   23.1167 H   0  0  0  0  0  0  0  0  0  0  0  0
    8.0112    1.8697   22.9905 H   0  0  0  0  0  0  0  0  0  0  0  0
  1  2  1  0
  2  3  1  0
  3  4  1  0
  3  5  1  0
  3  6  1  0
  2  7  1  0
  7  8  1  0
  8  9  1  0
  9 10  2  0
  9 11  1  0
 11 12  1  0
 12 13  1  0
 13 14  1  0
 14 15  1  0
 15 16  2  0
 16 17  1  0
 17 18  1  0
 17 19  2  0
 19 20  1  0
 20 21  2  0
 20 22  1  0
 19 23  1  0
 16 24  1  0
 14 25  1  0
 14 26  1  0
 13 27  1  0
 13 28  1  0
 11 29  1  0
  8 30  1  0
  7 31  1  0
 31 32  2  0
 32 33  1  0
 33 34  2  0
 34 35  1  0
 35 36  2  0
 36 37  1  0
 34 38  1  0
 33 39  1  0
 32 40  1  0
  7 41  1  0
  2 42  1  0
  1 43  1  0
  1 44  1  0
  1 45  1  0
 21 11  1  0
 36 31  1  0
 21 15  1  0
M  END
>  <plip>  (1) 
-0.17857142857142858

>  <filename>  (1) 
[H][c]1[n][c]([H])[c]([C]([H])([N]([H])[C](=[O])[C]2([H])[O][C]([H])([H])[C]([H])([H])[c]3[c]([H])[c]([Br])[c]([H])[c]([H])[c]32)[C]([H])([C]([H])([H])[H])[C]([H])([H])[H])[c]([H])[c]1[H]

$$$$
