
     RDKit          3D

 34 35  0  0  0  0  0  0  0  0999 V2000
    5.0057    1.7500   16.9473 H   0  0  0  0  0  0  0  0  0  0  0  0
    5.4511    1.2516   17.8045 C   0  0  0  0  0  0  0  0  0  0  0  0
    6.6064    0.6043   17.5789 N   0  0  0  0  0  0  0  0  0  0  0  0
    7.1839   -0.0203   18.6146 C   0  0  0  0  0  0  0  0  0  0  0  0
    8.1256   -0.5357   18.4102 H   0  0  0  0  0  0  0  0  0  0  0  0
    6.6523   -0.0197   19.9262 C   0  0  0  0  0  0  0  0  0  0  0  0
    7.2705   -0.6861   21.0132 N   0  0  0  0  0  0  0  0  0  0  0  0
    8.0939   -1.2481   20.8661 H   0  0  0  0  0  0  0  0  0  0  0  0
    7.4472   -0.1580   22.2764 C   0  0  0  0  0  0  0  0  0  0  0  0
    6.9220    0.9392   22.6613 N   0  0  0  0  0  0  0  0  0  0  0  0
    7.3103    1.3285   23.9647 O   0  0  0  0  0  0  0  0  0  0  0  0
    6.9078    2.6895   24.2168 C   0  0  0  0  0  0  0  0  0  0  0  0
    5.8864    2.8293   23.8363 H   0  0  0  0  0  0  0  0  0  0  0  0
    7.8563    3.6861   23.5298 C   0  0  0  0  0  0  0  0  0  0  0  0
    7.4505    4.6971   23.6530 H   0  0  0  0  0  0  0  0  0  0  0  0
    7.8967    3.4739   22.4560 H   0  0  0  0  0  0  0  0  0  0  0  0
    9.2480    3.6356   24.1552 C   0  0  0  0  0  0  0  0  0  0  0  0
    9.7122    2.6578   23.9259 H   0  0  0  0  0  0  0  0  0  0  0  0
    9.8797    4.4180   23.7175 H   0  0  0  0  0  0  0  0  0  0  0  0
    9.1132    3.8939   25.5909 N   0  0  0  0  0  0  0  0  0  0  0  0
   10.0276    3.9967   26.0136 H   0  0  0  0  0  0  0  0  0  0  0  0
    8.3444    2.8656   26.2914 C   0  0  0  0  0  0  0  0  0  0  0  0
    8.7701    1.8503   26.1839 H   0  0  0  0  0  0  0  0  0  0  0  0
    8.3203    3.1032   27.3606 H   0  0  0  0  0  0  0  0  0  0  0  0
    6.9194    2.8817   25.7371 C   0  0  0  0  0  0  0  0  0  0  0  0
    6.3002    2.1128   26.2106 H   0  0  0  0  0  0  0  0  0  0  0  0
    6.4706    3.8556   25.9740 H   0  0  0  0  0  0  0  0  0  0  0  0
    8.2495   -1.0623   22.9662 N   0  0  0  0  0  0  0  0  0  0  0  0
    7.7754   -1.9436   22.8296 H   0  0  0  0  0  0  0  0  0  0  0  0
    8.2142   -0.7843   23.9383 H   0  0  0  0  0  0  0  0  0  0  0  0
    5.4365    0.6524   20.1381 C   0  0  0  0  0  0  0  0  0  0  0  0
    5.0271    0.6835   21.1460 H   0  0  0  0  0  0  0  0  0  0  0  0
    4.8251    1.2895   19.0538 C   0  0  0  0  0  0  0  0  0  0  0  0
    3.8927    1.8323   19.1768 H   0  0  0  0  0  0  0  0  0  0  0  0
  1  2  1  0
  2  3  2  0
  3  4  1  0
  4  5  1  0
  4  6  2  0
  6  7  1  0
  7  8  1  0
  7  9  1  0
  9 10  2  3
 10 11  1  0
 11 12  1  0
 12 13  1  0
 12 14  1  0
 14 15  1  0
 14 16  1  0
 14 17  1  0
 17 18  1  0
 17 19  1  0
 17 20  1  0
 20 21  1  0
 20 22  1  0
 22 23  1  0
 22 24  1  0
 22 25  1  0
 25 26  1  0
 25 27  1  0
  9 28  1  0
 28 29  1  0
 28 30  1  0
  6 31  1  0
 31 32  1  0
 31 33  2  0
 33 34  1  0
 33  2  1  0
 25 12  1  0
M  END
>  <plip>  (1) 
-0.10714285714285714

>  <filename>  (1) 
[H][c]1[n][c]([H])[c]([N]([H])[C](=[N][O][C]2([H])[C]([H])([H])[C]([H])([H])[N]([H])[C]([H])([H])[C]2([H])[H])[N]([H])[H])[c]([H])[c]1[H]

$$$$
