
     RDKit          3D

 27 29  0  0  0  0  0  0  0  0999 V2000
    4.9413    1.7768   16.9971 H   0  0  0  0  0  0  0  0  0  0  0  0
    5.4136    1.2829   17.8463 C   0  0  0  0  0  0  0  0  0  0  0  0
    6.5746    0.6610   17.5986 N   0  0  0  0  0  0  0  0  0  0  0  0
    7.1817    0.0454   18.6230 C   0  0  0  0  0  0  0  0  0  0  0  0
    8.1263   -0.4277   18.3695 H   0  0  0  0  0  0  0  0  0  0  0  0
    6.6535    0.0031   19.9230 C   0  0  0  0  0  0  0  0  0  0  0  0
    7.3438   -0.6923   21.0123 C   0  0  0  0  0  0  0  0  0  0  0  0
    6.9212   -0.7652   22.2413 N   0  0  0  0  0  0  0  0  0  0  0  0
    7.9031   -1.5063   22.8295 C   0  0  0  0  0  0  0  0  0  0  0  0
    7.9195   -1.9120   24.1027 O   0  0  0  0  0  0  0  0  0  0  0  0
    7.0904   -1.3879   25.0862 C   0  0  0  0  0  0  0  0  0  0  0  0
    6.7850   -2.2436   26.1515 C   0  0  0  0  0  0  0  0  0  0  0  0
    7.1782   -3.2553   26.1660 H   0  0  0  0  0  0  0  0  0  0  0  0
    5.9877   -1.7901   27.2056 C   0  0  0  0  0  0  0  0  0  0  0  0
    5.7146   -2.4300   28.0394 H   0  0  0  0  0  0  0  0  0  0  0  0
    5.5182   -0.4742   27.1963 C   0  0  0  0  0  0  0  0  0  0  0  0
    4.5007    0.1017   28.4859 Cl  0  0  0  0  0  0  0  0  0  0  0  0
    5.8610    0.3897   26.1593 C   0  0  0  0  0  0  0  0  0  0  0  0
    5.4822    1.4061   26.1696 H   0  0  0  0  0  0  0  0  0  0  0  0
    6.6602   -0.0577   25.1017 C   0  0  0  0  0  0  0  0  0  0  0  0
    6.9339    0.6075   24.2917 H   0  0  0  0  0  0  0  0  0  0  0  0
    8.8813   -1.8764   22.0504 N   0  0  0  0  0  0  0  0  0  0  0  0
    8.5069   -1.3181   20.8218 O   0  0  0  0  0  0  0  0  0  0  0  0
    5.4322    0.6532   20.1680 C   0  0  0  0  0  0  0  0  0  0  0  0
    4.9975    0.6402   21.1750 H   0  0  0  0  0  0  0  0  0  0  0  0
    4.8068    1.3075   19.1083 C   0  0  0  0  0  0  0  0  0  0  0  0
    3.8759    1.8427   19.2485 H   0  0  0  0  0  0  0  0  0  0  0  0
  1  2  1  0
  2  3  2  0
  3  4  1  0
  4  5  1  0
  4  6  2  0
  6  7  1  0
  7  8  2  0
  8  9  1  0
  9 10  1  0
 10 11  1  0
 11 12  2  0
 12 13  1  0
 12 14  1  0
 14 15  1  0
 14 16  2  0
 16 17  1  0
 16 18  1  0
 18 19  1  0
 18 20  2  0
 20 21  1  0
  9 22  2  0
 22 23  1  0
  6 24  1  0
 24 25  1  0
 24 26  2  0
 26 27  1  0
 26  2  1  0
 23  7  1  0
 20 11  1  0
M  END
>  <plip>  (1) 
-0.03571428571428571

>  <filename>  (1) 
[H][c]1[n][c]([H])[c](-[c]2[n][c]([O][c]3[c]([H])[c]([H])[c]([Cl])[c]([H])[c]3[H])[n][o]2)[c]([H])[c]1[H]

$$$$
