
     RDKit          3D

 41 41  0  0  0  0  0  0  0  0999 V2000
   12.7610    4.1894   23.3683 C   0  0  0  0  0  0  0  0  0  0  0  0
   12.8235    2.6715   23.3214 C   0  0  0  0  0  0  0  0  0  0  0  0
   11.9031    2.2850   22.3240 O   0  0  0  0  0  0  0  0  0  0  0  0
   11.8958    0.9582   21.8789 C   0  0  0  0  0  0  0  0  0  0  0  0
   10.6447    0.3143   22.4478 C   0  0  0  0  0  0  0  0  0  0  0  0
    9.2447    1.1746   21.7674 S   0  0  0  0  0  0  0  0  0  0  0  0
    9.0994    2.4445   22.4430 O   0  0  0  0  0  0  0  0  0  0  0  0
    9.3894    1.0080   20.3359 O   0  0  0  0  0  0  0  0  0  0  0  0
    7.9214    0.2943   22.1928 N   0  0  0  0  0  0  0  0  0  0  0  0
    7.6191    0.1715   23.6166 C   0  0  0  0  0  0  0  0  0  0  0  0
    8.0950   -1.1465   24.2174 C   0  0  0  0  0  0  0  0  0  0  0  0
    9.1754   -1.2870   24.1026 H   0  0  0  0  0  0  0  0  0  0  0  0
    7.8576   -1.1645   25.2835 H   0  0  0  0  0  0  0  0  0  0  0  0
    7.5869   -1.9961   23.7469 H   0  0  0  0  0  0  0  0  0  0  0  0
    6.5290    0.2498   23.7433 H   0  0  0  0  0  0  0  0  0  0  0  0
    8.0499    1.0312   24.1438 H   0  0  0  0  0  0  0  0  0  0  0  0
    7.3122   -0.6117   21.2145 C   0  0  0  0  0  0  0  0  0  0  0  0
    8.2250   -1.7798   20.8306 C   0  0  0  0  0  0  0  0  0  0  0  0
    8.7911   -2.1344   21.6940 H   0  0  0  0  0  0  0  0  0  0  0  0
    8.9495   -1.5145   20.0602 H   0  0  0  0  0  0  0  0  0  0  0  0
    7.5992   -2.6015   20.4730 H   0  0  0  0  0  0  0  0  0  0  0  0
    6.7008    0.1395   20.0421 C   0  0  0  0  0  0  0  0  0  0  0  0
    5.4688    0.7947   20.2010 C   0  0  0  0  0  0  0  0  0  0  0  0
    4.8417    1.3586   19.0862 C   0  0  0  0  0  0  0  0  0  0  0  0
    5.4810    1.2720   17.8446 C   0  0  0  0  0  0  0  0  0  0  0  0
    6.6711    0.6803   17.6752 N   0  0  0  0  0  0  0  0  0  0  0  0
    7.2615    0.1494   18.7576 C   0  0  0  0  0  0  0  0  0  0  0  0
    8.2404   -0.2881   18.5771 H   0  0  0  0  0  0  0  0  0  0  0  0
    5.0183    1.6887   16.9522 H   0  0  0  0  0  0  0  0  0  0  0  0
    3.8813    1.8557   19.1648 H   0  0  0  0  0  0  0  0  0  0  0  0
    5.0085    0.8656   21.1869 H   0  0  0  0  0  0  0  0  0  0  0  0
    6.4605   -1.0537   21.7550 H   0  0  0  0  0  0  0  0  0  0  0  0
   10.6160    0.4596   23.5291 H   0  0  0  0  0  0  0  0  0  0  0  0
   10.5322   -0.7280   22.1539 H   0  0  0  0  0  0  0  0  0  0  0  0
   12.8100    0.4181   22.1795 H   0  0  0  0  0  0  0  0  0  0  0  0
   11.8589    0.9926   20.7845 H   0  0  0  0  0  0  0  0  0  0  0  0
   13.8392    2.3247   23.0647 H   0  0  0  0  0  0  0  0  0  0  0  0
   12.5626    2.2249   24.2990 H   0  0  0  0  0  0  0  0  0  0  0  0
   11.7619    4.5126   23.6850 H   0  0  0  0  0  0  0  0  0  0  0  0
   13.5090    4.6012   24.0528 H   0  0  0  0  0  0  0  0  0  0  0  0
   12.9486    4.5841   22.3626 H   0  0  0  0  0  0  0  0  0  0  0  0
  1  2  1  0
  2  3  1  0
  3  4  1  0
  4  5  1  0
  5  6  1  0
  6  7  2  0
  6  8  2  0
  6  9  1  0
  9 10  1  0
 10 11  1  0
 11 12  1  0
 11 13  1  0
 11 14  1  0
 10 15  1  0
 10 16  1  0
  9 17  1  0
 17 18  1  0
 18 19  1  0
 18 20  1  0
 18 21  1  0
 17 22  1  0
 22 23  2  0
 23 24  1  0
 24 25  2  0
 25 26  1  0
 26 27  2  0
 27 28  1  0
 25 29  1  0
 24 30  1  0
 23 31  1  0
 17 32  1  0
  5 33  1  0
  5 34  1  0
  4 35  1  0
  4 36  1  0
  2 37  1  0
  2 38  1  0
  1 39  1  0
  1 40  1  0
  1 41  1  0
 27 22  1  0
M  END
>  <plip>  (1) 
-0.07142857142857142

>  <filename>  (1) 
[H][c]1[n][c]([H])[c]([C]([H])([N]([C]([H])([H])[C]([H])([H])[H])[S](=[O])(=[O])[C]([H])([H])[C]([H])([H])[O][C]([H])([H])[C]([H])([H])[H])[C]([H])([H])[H])[c]([H])[c]1[H]

$$$$
