
     RDKit          3D

 39 41  0  0  0  0  0  0  0  0999 V2000
    4.9119    1.8179   16.9697 H   0  0  0  0  0  0  0  0  0  0  0  0
    5.3879    1.3065   17.8045 C   0  0  0  0  0  0  0  0  0  0  0  0
    6.5443    0.6851   17.5331 N   0  0  0  0  0  0  0  0  0  0  0  0
    7.1618    0.0678   18.5502 C   0  0  0  0  0  0  0  0  0  0  0  0
    8.1086   -0.4124   18.2959 H   0  0  0  0  0  0  0  0  0  0  0  0
    6.6766    0.0070   19.8739 C   0  0  0  0  0  0  0  0  0  0  0  0
    7.4181   -0.7490   20.9726 C   0  0  2  0  0  0  0  0  0  0  0  0
    8.3378   -1.1537   20.5251 H   0  0  0  0  0  0  0  0  0  0  0  0
    6.6109   -1.9356   21.5812 C   0  0  0  0  0  0  0  0  0  0  0  0
    7.1296   -2.8920   21.4369 H   0  0  0  0  0  0  0  0  0  0  0  0
    5.6318   -2.0545   21.1025 H   0  0  0  0  0  0  0  0  0  0  0  0
    6.4193   -1.6651   23.0077 N   0  0  0  0  0  0  0  0  0  0  0  0
    5.5750   -1.1089   23.0822 H   0  0  0  0  0  0  0  0  0  0  0  0
    7.4807   -0.7607   23.4230 C   0  0  0  0  0  0  0  0  0  0  0  0
    8.3692   -1.3267   23.7511 H   0  0  0  0  0  0  0  0  0  0  0  0
    7.1323   -0.1834   24.2910 H   0  0  0  0  0  0  0  0  0  0  0  0
    7.7916    0.1364   22.2060 C   0  0  1  0  0  0  0  0  0  0  0  0
    7.1144    1.0096   22.2239 H   0  0  0  0  0  0  0  0  0  0  0  0
    9.2371    0.6657   22.2189 C   0  0  0  0  0  0  0  0  0  0  0  0
    9.8947   -0.2247   22.1957 H   0  0  0  0  0  0  0  0  0  0  0  0
    9.5614    1.5147   20.9764 C   0  0  0  0  0  0  0  0  0  0  0  0
    8.8467    2.3542   20.9143 H   0  0  0  0  0  0  0  0  0  0  0  0
    9.3924    0.9051   20.0803 H   0  0  0  0  0  0  0  0  0  0  0  0
   11.0075    2.0539   21.0036 C   0  0  0  0  0  0  0  0  0  0  0  0
   11.7067    1.2068   20.9336 H   0  0  0  0  0  0  0  0  0  0  0  0
   11.2251    2.6917   20.1387 H   0  0  0  0  0  0  0  0  0  0  0  0
   11.2902    2.8407   22.2934 C   0  0  0  0  0  0  0  0  0  0  0  0
   10.6589    3.7430   22.3120 H   0  0  0  0  0  0  0  0  0  0  0  0
   12.3294    3.1958   22.2989 H   0  0  0  0  0  0  0  0  0  0  0  0
   10.9895    1.9893   23.5377 C   0  0  0  0  0  0  0  0  0  0  0  0
   11.6885    1.1381   23.5691 H   0  0  0  0  0  0  0  0  0  0  0  0
   11.1655    2.5676   24.4540 H   0  0  0  0  0  0  0  0  0  0  0  0
    9.5465    1.4545   23.5125 C   0  0  0  0  0  0  0  0  0  0  0  0
    9.3696    0.8216   24.3934 H   0  0  0  0  0  0  0  0  0  0  0  0
    8.8341    2.2948   23.5875 H   0  0  0  0  0  0  0  0  0  0  0  0
    5.4580    0.6555   20.1237 C   0  0  0  0  0  0  0  0  0  0  0  0
    5.0234    0.6469   21.1273 H   0  0  0  0  0  0  0  0  0  0  0  0
    4.8063    1.3153   19.0785 C   0  0  0  0  0  0  0  0  0  0  0  0
    3.8736    1.8432   19.2376 H   0  0  0  0  0  0  0  0  0  0  0  0
  1  2  1  0
  2  3  2  0
  3  4  1  0
  4  5  1  0
  4  6  2  0
  6  7  1  0
  7  8  1  6
  7  9  1  0
  9 10  1  0
  9 11  1  0
  9 12  1  0
 12 13  1  0
 12 14  1  0
 14 15  1  0
 14 16  1  0
 14 17  1  0
 17 18  1  1
 17 19  1  0
 19 20  1  0
 19 21  1  0
 21 22  1  0
 21 23  1  0
 21 24  1  0
 24 25  1  0
 24 26  1  0
 24 27  1  0
 27 28  1  0
 27 29  1  0
 27 30  1  0
 30 31  1  0
 30 32  1  0
 30 33  1  0
 33 34  1  0
 33 35  1  0
  6 36  1  0
 36 37  1  0
 36 38  2  0
 38 39  1  0
 38  2  1  0
 17  7  1  0
 33 19  1  0
M  END
>  <plip>  (1) 
-0.07142857142857142

>  <filename>  (1) 
[H][c]1[n][c]([H])[c]([C@]2([H])[C]([H])([H])[N]([H])[C]([H])([H])[C@@]2([H])[C]2([H])[C]([H])([H])[C]([H])([H])[C]([H])([H])[C]([H])([H])[C]2([H])[H])[c]([H])[c]1[H]

$$$$
