
     RDKit          3D

 34 36  0  0  0  0  0  0  0  0999 V2000
    4.9756    1.7959   16.9817 H   0  0  0  0  0  0  0  0  0  0  0  0
    5.4269    1.2907   17.8336 C   0  0  0  0  0  0  0  0  0  0  0  0
    6.5795    0.6457   17.5907 N   0  0  0  0  0  0  0  0  0  0  0  0
    7.1595    0.0093   18.6195 C   0  0  0  0  0  0  0  0  0  0  0  0
    8.1076   -0.4812   18.3995 H   0  0  0  0  0  0  0  0  0  0  0  0
    6.6434   -0.0155   19.9459 C   0  0  0  0  0  0  0  0  0  0  0  0
    7.2551   -0.7100   21.0203 N   0  0  0  0  0  0  0  0  0  0  0  0
    7.8910   -1.9999   20.8097 C   0  0  0  0  0  0  0  0  0  0  0  0
    8.6443   -1.9031   20.0151 H   0  0  0  0  0  0  0  0  0  0  0  0
    7.1605   -2.7629   20.5200 H   0  0  0  0  0  0  0  0  0  0  0  0
    8.6037   -2.2812   22.1302 C   0  0  0  0  0  0  0  0  0  0  0  0
    9.4358   -2.9806   21.9894 H   0  0  0  0  0  0  0  0  0  0  0  0
    7.9129   -2.6851   22.8801 H   0  0  0  0  0  0  0  0  0  0  0  0
    9.0620   -0.8782   22.5344 C   0  0  0  0  0  0  0  0  0  0  0  0
    9.9418   -0.5773   21.9525 H   0  0  0  0  0  0  0  0  0  0  0  0
    9.3161   -0.7802   23.5937 H   0  0  0  0  0  0  0  0  0  0  0  0
    7.8948    0.0281   22.0901 C   0  0  2  0  0  0  0  0  0  0  0  0
    8.2651    0.9878   21.7218 H   0  0  0  0  0  0  0  0  0  0  0  0
    6.6695    0.4780   23.3780 S   0  0  0  0  0  0  0  0  0  0  0  0
    7.5173    1.9115   24.0088 C   0  0  0  0  0  0  0  0  0  0  0  0
    8.4161    1.7375   25.0656 C   0  0  0  0  0  0  0  0  0  0  0  0
    8.5772    0.7380   25.4627 H   0  0  0  0  0  0  0  0  0  0  0  0
    9.1272    2.8303   25.5607 C   0  0  0  0  0  0  0  0  0  0  0  0
    9.7939    2.6729   26.3921 H   0  0  0  0  0  0  0  0  0  0  0  0
    8.9787    4.0970   24.9890 C   0  0  0  0  0  0  0  0  0  0  0  0
    9.5590    4.9379   25.3612 H   0  0  0  0  0  0  0  0  0  0  0  0
    8.0938    4.2687   23.9195 C   0  0  0  0  0  0  0  0  0  0  0  0
    7.9905    5.2455   23.4561 H   0  0  0  0  0  0  0  0  0  0  0  0
    7.3562    3.1821   23.4312 C   0  0  0  0  0  0  0  0  0  0  0  0
    6.6835    3.3150   22.5854 H   0  0  0  0  0  0  0  0  0  0  0  0
    5.4534    0.6917   20.1771 C   0  0  0  0  0  0  0  0  0  0  0  0
    5.0613    0.7362   21.1915 H   0  0  0  0  0  0  0  0  0  0  0  0
    4.8258    1.3248   19.0960 C   0  0  0  0  0  0  0  0  0  0  0  0
    3.8903    1.8550   19.2242 H   0  0  0  0  0  0  0  0  0  0  0  0
  1  2  1  0
  2  3  2  0
  3  4  1  0
  4  5  1  0
  4  6  2  0
  6  7  1  0
  7  8  1  0
  8  9  1  0
  8 10  1  0
  8 11  1  0
 11 12  1  0
 11 13  1  0
 11 14  1  0
 14 15  1  0
 14 16  1  0
 14 17  1  0
 17 18  1  6
 17 19  1  0
 19 20  1  0
 20 21  2  0
 21 22  1  0
 21 23  1  0
 23 24  1  0
 23 25  2  0
 25 26  1  0
 25 27  1  0
 27 28  1  0
 27 29  2  0
 29 30  1  0
  6 31  1  0
 31 32  1  0
 31 33  2  0
 33 34  1  0
 33  2  1  0
 17  7  1  0
 29 20  1  0
M  END
>  <plip>  (1) 
-0.07142857142857142

>  <filename>  (1) 
[H][c]1[n][c]([H])[c]([N]2[C]([H])([H])[C]([H])([H])[C]([H])([H])[C@]2([H])[S][c]2[c]([H])[c]([H])[c]([H])[c]([H])[c]2[H])[c]([H])[c]1[H]

$$$$
