
     RDKit          3D

 53 55  0  0  0  0  0  0  0  0999 V2000
    7.7294    3.6831   22.4605 C   0  0  0  0  0  0  0  0  0  0  0  0
    8.2862    2.7406   23.5260 C   0  0  0  0  0  0  0  0  0  0  0  0
    8.8271    3.4443   24.7871 C   0  0  0  0  0  0  0  0  0  0  0  0
   10.0220    4.3215   24.4630 C   0  0  0  0  0  0  0  0  0  0  0  0
    9.8281    5.6462   24.0420 C   0  0  0  0  0  0  0  0  0  0  0  0
   10.8768    6.3818   23.4889 C   0  0  0  0  0  0  0  0  0  0  0  0
   12.1589    5.8306   23.3892 C   0  0  0  0  0  0  0  0  0  0  0  0
   12.3688    4.5059   23.7958 C   0  0  0  0  0  0  0  0  0  0  0  0
   11.3050    3.7627   24.2997 C   0  0  0  0  0  0  0  0  0  0  0  0
   11.4661    2.4014   24.5478 O   0  0  0  0  0  0  0  0  0  0  0  0
   12.0847    2.3376   25.2922 H   0  0  0  0  0  0  0  0  0  0  0  0
   13.3232    4.0088   23.6459 H   0  0  0  0  0  0  0  0  0  0  0  0
   12.9866    6.3986   22.9679 H   0  0  0  0  0  0  0  0  0  0  0  0
   10.6468    7.3428   23.0564 H   0  0  0  0  0  0  0  0  0  0  0  0
    8.8190    6.0668   24.0664 H   0  0  0  0  0  0  0  0  0  0  0  0
    9.0753    2.6695   25.5244 H   0  0  0  0  0  0  0  0  0  0  0  0
    8.0136    4.0334   25.2238 H   0  0  0  0  0  0  0  0  0  0  0  0
    9.4225    1.9309   22.9268 N   0  0  0  0  0  4  0  0  0  0  0  0
    9.0968    0.9976   21.8137 C   0  0  0  0  0  0  0  0  0  0  0  0
    7.9041    0.0991   22.1293 C   0  0  2  0  0  0  0  0  0  0  0  0
    8.1297   -0.9008   23.2685 C   0  0  0  0  0  0  0  0  0  0  0  0
    7.1478   -2.0594   23.0094 C   0  0  0  0  0  0  0  0  0  0  0  0
    6.6265   -1.8248   21.6129 N   0  0  0  0  0  4  0  0  0  0  0  0
    6.4471   -3.0402   20.7903 C   0  0  0  0  0  0  0  0  0  0  0  0
    5.7150   -3.7282   21.2246 H   0  0  0  0  0  0  0  0  0  0  0  0
    7.4035   -3.5751   20.6974 H   0  0  0  0  0  0  0  0  0  0  0  0
    6.1267   -2.7684   19.7807 H   0  0  0  0  0  0  0  0  0  0  0  0
    7.4975   -0.7733   20.9495 C   0  0  1  0  0  0  0  0  0  0  0  0
    6.7318   -0.0596   19.8691 C   0  0  0  0  0  0  0  0  0  0  0  0
    5.5135    0.6041   20.1144 C   0  0  0  0  0  0  0  0  0  0  0  0
    4.8979    1.2870   19.0691 C   0  0  0  0  0  0  0  0  0  0  0  0
    5.5084    1.2755   17.8106 C   0  0  0  0  0  0  0  0  0  0  0  0
    6.6548    0.6325   17.5502 N   0  0  0  0  0  0  0  0  0  0  0  0
    7.2397   -0.0160   18.5639 C   0  0  0  0  0  0  0  0  0  0  0  0
    8.1778   -0.5237   18.3257 H   0  0  0  0  0  0  0  0  0  0  0  0
    5.0509    1.8041   16.9766 H   0  0  0  0  0  0  0  0  0  0  0  0
    3.9699    1.8336   19.2123 H   0  0  0  0  0  0  0  0  0  0  0  0
    5.0597    0.6107   21.1094 H   0  0  0  0  0  0  0  0  0  0  0  0
    8.3811   -1.2779   20.5325 H   0  0  0  0  0  0  0  0  0  0  0  0
    5.7152   -1.3179   21.6939 H   0  0  0  0  0  0  0  0  0  0  0  0
    7.6527   -3.0291   23.0553 H   0  0  0  0  0  0  0  0  0  0  0  0
    6.3142   -2.0893   23.7190 H   0  0  0  0  0  0  0  0  0  0  0  0
    9.1603   -1.2766   23.2308 H   0  0  0  0  0  0  0  0  0  0  0  0
    7.9917   -0.4459   24.2554 H   0  0  0  0  0  0  0  0  0  0  0  0
    7.0363    0.7302   22.3677 H   0  0  0  0  0  0  0  0  0  0  0  0
    9.9599    0.3536   21.5848 H   0  0  0  0  0  0  0  0  0  0  0  0
    8.8895    1.5577   20.8883 H   0  0  0  0  0  0  0  0  0  0  0  0
    9.9633    1.4787   23.6936 H   0  0  0  0  0  0  0  0  0  0  0  0
   10.1048    2.6498   22.5969 H   0  0  0  0  0  0  0  0  0  0  0  0
    7.4854    2.0624   23.8582 H   0  0  0  0  0  0  0  0  0  0  0  0
    7.2719    3.1251   21.6375 H   0  0  0  0  0  0  0  0  0  0  0  0
    8.5309    4.2973   22.0317 H   0  0  0  0  0  0  0  0  0  0  0  0
    6.9666    4.3525   22.8682 H   0  0  0  0  0  0  0  0  0  0  0  0
  1  2  1  0
  2  3  1  0
  3  4  1  0
  4  5  2  0
  5  6  1  0
  6  7  2  0
  7  8  1  0
  8  9  2  0
  9 10  1  0
 10 11  1  0
  8 12  1  0
  7 13  1  0
  6 14  1  0
  5 15  1  0
  3 16  1  0
  3 17  1  0
  2 18  1  0
 18 19  1  0
 19 20  1  0
 20 21  1  0
 21 22  1  0
 22 23  1  0
 23 24  1  0
 24 25  1  0
 24 26  1  0
 24 27  1  0
 23 28  1  0
 28 29  1  0
 29 30  2  0
 30 31  1  0
 31 32  2  0
 32 33  1  0
 33 34  2  0
 34 35  1  0
 32 36  1  0
 31 37  1  0
 30 38  1  0
 28 39  1  6
 23 40  1  0
 22 41  1  0
 22 42  1  0
 21 43  1  0
 21 44  1  0
 20 45  1  1
 19 46  1  0
 19 47  1  0
 18 48  1  0
 18 49  1  0
  2 50  1  0
  1 51  1  0
  1 52  1  0
  1 53  1  0
  9  4  1  0
 28 20  1  0
 34 29  1  0
M  CHG  2  18   1  23   1
M  END
>  <plip>  (1) 
-0.17857142857142858

>  <filename>  (1) 
[H][O][c]1[c]([H])[c]([H])[c]([H])[c]([H])[c]1[C]([H])([H])[C]([H])([C]([H])([H])[H])[N+]([H])([H])[C]([H])([H])[C@]1([H])[C]([H])([H])[C]([H])([H])[N+]([H])([C]([H])([H])[H])[C@@]1([H])[c]1[c]([H])[n][c]([H])[c]([H])[c]1[H]

$$$$
