
     RDKit          3D

 42 44  0  0  0  0  0  0  0  0999 V2000
   12.1444    5.5177   22.2359 C   0  0  0  0  0  0  0  0  0  0  0  0
   12.1751    3.9946   22.0676 C   0  0  0  0  0  0  0  0  0  0  0  0
   10.9546    3.2888   22.5693 C   0  0  0  0  0  0  0  0  0  0  0  0
   10.1405    2.5543   21.8358 N   0  0  0  0  0  0  0  0  0  0  0  0
    9.1688    2.1907   22.7105 C   0  0  0  0  0  0  0  0  0  0  0  0
    8.0268    1.3271   22.2546 C   0  0  0  0  0  0  0  0  0  0  0  0
    8.4966    0.0122   21.4789 N   0  0  0  0  0  4  0  0  0  0  0  0
    9.4187   -0.8088   22.3602 C   0  0  0  0  0  0  0  0  0  0  0  0
    8.6404   -1.4259   23.5276 C   0  0  0  0  0  0  0  0  0  0  0  0
    7.4621   -2.2784   23.0335 C   0  0  0  0  0  0  0  0  0  0  0  0
    6.5479   -1.4576   22.1029 C   0  0  0  0  0  0  0  0  0  0  0  0
    7.3425   -0.8672   20.9287 C   0  0  1  0  0  0  0  0  0  0  0  0
    6.6008   -0.0685   19.8873 C   0  0  0  0  0  0  0  0  0  0  0  0
    5.3909    0.6077   20.1001 C   0  0  0  0  0  0  0  0  0  0  0  0
    4.8187    1.3123   19.0387 C   0  0  0  0  0  0  0  0  0  0  0  0
    5.4748    1.3309   17.8035 C   0  0  0  0  0  0  0  0  0  0  0  0
    6.6453    0.7067   17.5855 N   0  0  0  0  0  0  0  0  0  0  0  0
    7.1855    0.0456   18.6123 C   0  0  0  0  0  0  0  0  0  0  0  0
    8.1444   -0.4356   18.4105 H   0  0  0  0  0  0  0  0  0  0  0  0
    5.0450    1.8634   16.9574 H   0  0  0  0  0  0  0  0  0  0  0  0
    3.8869    1.8547   19.1595 H   0  0  0  0  0  0  0  0  0  0  0  0
    4.9249    0.5958   21.0871 H   0  0  0  0  0  0  0  0  0  0  0  0
    7.8253   -1.7073   20.4141 H   0  0  0  0  0  0  0  0  0  0  0  0
    6.1094   -0.6375   22.6801 H   0  0  0  0  0  0  0  0  0  0  0  0
    5.7234   -2.0659   21.7255 H   0  0  0  0  0  0  0  0  0  0  0  0
    7.8528   -3.1512   22.4915 H   0  0  0  0  0  0  0  0  0  0  0  0
    6.8885   -2.6634   23.8853 H   0  0  0  0  0  0  0  0  0  0  0  0
    9.3230   -2.0081   24.1519 H   0  0  0  0  0  0  0  0  0  0  0  0
    8.2626   -0.6144   24.1626 H   0  0  0  0  0  0  0  0  0  0  0  0
    9.8765   -1.6049   21.7593 H   0  0  0  0  0  0  0  0  0  0  0  0
   10.2283   -0.1693   22.7226 H   0  0  0  0  0  0  0  0  0  0  0  0
    9.0081    0.3796   20.6475 H   0  0  0  0  0  0  0  0  0  0  0  0
    7.4422    1.0455   23.1233 H   0  0  0  0  0  0  0  0  0  0  0  0
    7.4061    1.9026   21.5684 H   0  0  0  0  0  0  0  0  0  0  0  0
    9.3223    2.6362   23.9409 N   0  0  0  0  0  0  0  0  0  0  0  0
   10.4798    3.3421   23.8300 N   0  0  0  0  0  0  0  0  0  0  0  0
   10.8965    3.7846   24.6367 H   0  0  0  0  0  0  0  0  0  0  0  0
   12.2431    3.7317   21.0088 H   0  0  0  0  0  0  0  0  0  0  0  0
   13.0625    3.5604   22.5318 H   0  0  0  0  0  0  0  0  0  0  0  0
   12.0328    5.8216   23.2817 H   0  0  0  0  0  0  0  0  0  0  0  0
   13.0519    5.9828   21.8411 H   0  0  0  0  0  0  0  0  0  0  0  0
   11.2943    5.9401   21.6949 H   0  0  0  0  0  0  0  0  0  0  0  0
  1  2  1  0
  2  3  1  0
  3  4  2  0
  4  5  1  0
  5  6  1  0
  6  7  1  0
  7  8  1  0
  8  9  1  0
  9 10  1  0
 10 11  1  0
 11 12  1  0
 12 13  1  0
 13 14  2  0
 14 15  1  0
 15 16  2  0
 16 17  1  0
 17 18  2  0
 18 19  1  0
 16 20  1  0
 15 21  1  0
 14 22  1  0
 12 23  1  6
 11 24  1  0
 11 25  1  0
 10 26  1  0
 10 27  1  0
  9 28  1  0
  9 29  1  0
  8 30  1  0
  8 31  1  0
  7 32  1  0
  6 33  1  0
  6 34  1  0
  5 35  2  0
 35 36  1  0
 36 37  1  0
  2 38  1  0
  2 39  1  0
  1 40  1  0
  1 41  1  0
  1 42  1  0
 36  3  1  0
 12  7  1  0
 18 13  1  0
M  CHG  1   7   1
M  END
>  <plip>  (1) 
-0.07142857142857142

>  <filename>  (1) 
[H][c]1[n][c]([H])[c]([C@]2([H])[C]([H])([H])[C]([H])([H])[C]([H])([H])[C]([H])([H])[N+]2([H])[C]([H])([H])[c]2[n][c]([C]([H])([H])[C]([H])([H])[H])[n]([H])[n]2)[c]([H])[c]1[H]

$$$$
