
     RDKit          3D

 42 44  0  0  0  0  0  0  0  0999 V2000
   10.1445    1.2357   22.5019 C   0  0  0  0  0  0  0  0  0  0  0  0
    9.3199    0.3879   21.6869 O   0  0  0  0  0  0  0  0  0  0  0  0
    8.0289    0.2458   22.0197 C   0  0  0  0  0  0  0  0  0  0  0  0
    7.4908    0.8140   22.9450 O   0  0  0  0  0  0  0  0  0  0  0  0
    7.3345   -0.7723   21.0716 C   0  0  0  0  0  0  0  0  0  0  0  0
    6.4530   -1.6569   21.8274 N   0  0  0  0  0  0  0  0  0  0  0  0
    5.9573   -2.8128   21.2993 C   0  0  0  0  0  0  0  0  0  0  0  0
    6.2144   -3.1696   20.1627 O   0  0  0  0  0  0  0  0  0  0  0  0
    5.1083   -3.5884   22.2590 C   0  0  0  0  0  0  0  0  0  0  0  0
    4.6912   -3.3715   23.5502 C   0  0  0  0  0  0  0  0  0  0  0  0
    3.7386   -4.3849   23.8487 C   0  0  0  0  0  0  0  0  0  0  0  0
    3.7202   -5.1944   22.7548 C   0  0  0  0  0  0  0  0  0  0  0  0
    3.0802   -6.3149   22.4149 O   0  0  0  0  0  0  0  0  0  0  0  0
    2.4752   -7.0720   23.4035 C   0  0  0  0  0  0  0  0  0  0  0  0
    3.0883   -7.2846   24.6393 C   0  0  0  0  0  0  0  0  0  0  0  0
    2.4265   -8.0622   25.5910 C   0  0  0  0  0  0  0  0  0  0  0  0
    1.1848   -8.6351   25.2937 C   0  0  0  0  0  0  0  0  0  0  0  0
    0.6088   -8.4431   24.0310 C   0  0  0  0  0  0  0  0  0  0  0  0
    1.2567   -7.6600   23.0699 C   0  0  0  0  0  0  0  0  0  0  0  0
    0.8528   -7.4928   22.0743 H   0  0  0  0  0  0  0  0  0  0  0  0
   -0.3488   -8.8969   23.7895 H   0  0  0  0  0  0  0  0  0  0  0  0
    0.6741   -9.2304   26.0445 H   0  0  0  0  0  0  0  0  0  0  0  0
    2.8779   -8.2000   26.5698 H   0  0  0  0  0  0  0  0  0  0  0  0
    4.0523   -6.8215   24.8393 H   0  0  0  0  0  0  0  0  0  0  0  0
    4.5290   -4.7406   21.7977 O   0  0  0  0  0  0  0  0  0  0  0  0
    3.1043   -4.4754   24.7209 H   0  0  0  0  0  0  0  0  0  0  0  0
    5.0172   -2.5948   24.2393 H   0  0  0  0  0  0  0  0  0  0  0  0
    5.9956   -1.2596   22.6386 H   0  0  0  0  0  0  0  0  0  0  0  0
    6.5890   -0.0729   19.9376 C   0  0  0  0  0  0  0  0  0  0  0  0
    5.3942    0.6286   20.1432 C   0  0  0  0  0  0  0  0  0  0  0  0
    4.8209    1.2923   19.0580 C   0  0  0  0  0  0  0  0  0  0  0  0
    5.4632    1.2365   17.8158 C   0  0  0  0  0  0  0  0  0  0  0  0
    6.5908    0.5453   17.5929 N   0  0  0  0  0  0  0  0  0  0  0  0
    7.1184   -0.1000   18.6413 C   0  0  0  0  0  0  0  0  0  0  0  0
    8.0367   -0.6631   18.4544 H   0  0  0  0  0  0  0  0  0  0  0  0
    5.0558    1.7667   16.9586 H   0  0  0  0  0  0  0  0  0  0  0  0
    3.9077    1.8667   19.1662 H   0  0  0  0  0  0  0  0  0  0  0  0
    4.9242    0.6628   21.1301 H   0  0  0  0  0  0  0  0  0  0  0  0
    8.1418   -1.3738   20.6320 H   0  0  0  0  0  0  0  0  0  0  0  0
    9.9874    1.0610   23.5714 H   0  0  0  0  0  0  0  0  0  0  0  0
   11.1667    0.9817   22.2194 H   0  0  0  0  0  0  0  0  0  0  0  0
    9.9430    2.2914   22.2936 H   0  0  0  0  0  0  0  0  0  0  0  0
  1  2  1  0
  2  3  1  0
  3  4  2  0
  3  5  1  0
  5  6  1  0
  6  7  1  0
  7  8  2  0
  7  9  1  0
  9 10  2  0
 10 11  1  0
 11 12  2  0
 12 13  1  0
 13 14  1  0
 14 15  2  0
 15 16  1  0
 16 17  2  0
 17 18  1  0
 18 19  2  0
 19 20  1  0
 18 21  1  0
 17 22  1  0
 16 23  1  0
 15 24  1  0
 12 25  1  0
 11 26  1  0
 10 27  1  0
  6 28  1  0
  5 29  1  0
 29 30  2  0
 30 31  1  0
 31 32  2  0
 32 33  1  0
 33 34  2  0
 34 35  1  0
 32 36  1  0
 31 37  1  0
 30 38  1  0
  5 39  1  0
  1 40  1  0
  1 41  1  0
  1 42  1  0
 25  9  1  0
 34 29  1  0
 19 14  1  0
M  END
>  <plip>  (1) 
-0.1724137931034483

>  <filename>  (1) 
[H][c]1[n][c]([H])[c]([C]([H])([C](=[O])[O][C]([H])([H])[H])[N]([H])[C](=[O])[c]2[o][c]([O][c]3[c]([H])[c]([H])[c]([H])[c]([H])[c]3[H])[c]([H])[c]2[H])[c]([H])[c]1[H]

$$$$
