
     RDKit          3D

 24 24  0  0  0  0  0  0  0  0999 V2000
    4.9356    1.7828   16.9989 H   0  0  0  0  0  0  0  0  0  0  0  0
    5.4155    1.2818   17.8405 C   0  0  0  0  0  0  0  0  0  0  0  0
    6.5782    0.6628   17.5872 N   0  0  0  0  0  0  0  0  0  0  0  0
    7.2001    0.0428   18.6054 C   0  0  0  0  0  0  0  0  0  0  0  0
    8.1512   -0.4241   18.3632 H   0  0  0  0  0  0  0  0  0  0  0  0
    6.6703   -0.0051   19.9035 C   0  0  0  0  0  0  0  0  0  0  0  0
    7.2174   -0.6584   20.9789 O   0  0  0  0  0  0  0  0  0  0  0  0
    8.4522   -1.3224   20.7128 N   0  0  0  0  0  0  0  0  0  0  0  0
    8.1533   -2.1775   20.2424 H   0  0  0  0  0  0  0  0  0  0  0  0
    8.9931   -1.6870   22.0376 C   0  0  0  0  0  0  0  0  0  0  0  0
    8.2112   -2.1109   22.6823 H   0  0  0  0  0  0  0  0  0  0  0  0
    9.7791   -2.4410   21.9122 H   0  0  0  0  0  0  0  0  0  0  0  0
    9.6086   -0.4691   22.7254 C   0  0  0  0  0  0  0  0  0  0  0  0
   10.4126   -0.0707   22.0983 H   0  0  0  0  0  0  0  0  0  0  0  0
    8.8368    0.3100   22.8282 H   0  0  0  0  0  0  0  0  0  0  0  0
   10.1795   -0.8173   23.9772 O   0  0  0  0  0  0  0  0  0  0  0  0
    9.3194   -0.6364   25.0801 C   0  0  0  0  0  0  0  0  0  0  0  0
    8.3577   -1.1623   24.9585 H   0  0  0  0  0  0  0  0  0  0  0  0
    9.8283   -1.0338   25.9596 H   0  0  0  0  0  0  0  0  0  0  0  0
    9.0912    0.4295   25.2423 H   0  0  0  0  0  0  0  0  0  0  0  0
    5.4601    0.6411   20.1679 C   0  0  0  0  0  0  0  0  0  0  0  0
    5.0500    0.6091   21.1803 H   0  0  0  0  0  0  0  0  0  0  0  0
    4.8301    1.2959   19.1133 C   0  0  0  0  0  0  0  0  0  0  0  0
    3.8966    1.8246   19.2630 H   0  0  0  0  0  0  0  0  0  0  0  0
  1  2  1  0
  2  3  2  0
  3  4  1  0
  4  5  1  0
  4  6  2  0
  6  7  1  0
  7  8  1  0
  8  9  1  0
  8 10  1  0
 10 11  1  0
 10 12  1  0
 10 13  1  0
 13 14  1  0
 13 15  1  0
 13 16  1  0
 16 17  1  0
 17 18  1  0
 17 19  1  0
 17 20  1  0
  6 21  1  0
 21 22  1  0
 21 23  2  0
 23 24  1  0
 23  2  1  0
M  END
>  <plip>  (1) 
-0.03571428571428571

>  <filename>  (1) 
[H][c]1[n][c]([H])[c]([O][N]([H])[C]([H])([H])[C]([H])([H])[O][C]([H])([H])[H])[c]([H])[c]1[H]

$$$$
