
     RDKit          3D

 38 40  0  0  0  0  0  0  0  0999 V2000
    6.6604   -1.9395   21.5311 C   0  0  0  0  0  0  0  0  0  0  0  0
    7.4141   -0.7760   20.9200 C   0  0  0  0  0  0  0  0  0  0  0  0
    7.7528    0.1577   22.0260 N   0  0  0  0  0  4  0  0  0  0  0  0
    8.6567    1.2991   21.7214 C   0  0  0  0  0  0  0  0  0  0  0  0
   10.0866    0.8281   21.3988 C   0  0  0  0  0  0  0  0  0  0  0  0
   10.9558    1.8979   21.0514 O   0  0  0  0  0  0  0  0  0  0  0  0
   10.9157    3.0016   21.8559 C   0  0  0  0  0  0  0  0  0  0  0  0
   12.0151    3.8592   21.7614 C   0  0  0  0  0  0  0  0  0  0  0  0
   11.9378    5.1138   22.3516 C   0  0  0  0  0  0  0  0  0  0  0  0
   12.9586    5.9639   22.1642 F   0  0  0  0  0  0  0  0  0  0  0  0
   10.8323    5.5052   23.1084 C   0  0  0  0  0  0  0  0  0  0  0  0
    9.7822    4.5922   23.2608 C   0  0  0  0  0  0  0  0  0  0  0  0
    9.8067    3.3201   22.6699 C   0  0  0  0  0  0  0  0  0  0  0  0
    8.7117    2.2803   22.8896 C   0  0  0  0  0  0  0  0  0  0  0  0
    7.7361    2.7590   23.0357 H   0  0  0  0  0  0  0  0  0  0  0  0
    8.9142    1.7118   23.8085 H   0  0  0  0  0  0  0  0  0  0  0  0
    8.9087    4.8785   23.8405 H   0  0  0  0  0  0  0  0  0  0  0  0
   10.7952    6.4740   23.5906 H   0  0  0  0  0  0  0  0  0  0  0  0
   12.8713    3.5712   21.1771 H   0  0  0  0  0  0  0  0  0  0  0  0
   10.5042    0.2833   22.2579 H   0  0  0  0  0  0  0  0  0  0  0  0
   10.0766    0.1638   20.5388 H   0  0  0  0  0  0  0  0  0  0  0  0
    8.2772    1.8357   20.8447 H   0  0  0  0  0  0  0  0  0  0  0  0
    6.8212    0.5366   22.3230 H   0  0  0  0  0  0  0  0  0  0  0  0
    8.1253   -0.3775   22.8418 H   0  0  0  0  0  0  0  0  0  0  0  0
    6.6454   -0.0066   19.8692 C   0  0  0  0  0  0  0  0  0  0  0  0
    5.4363    0.6621   20.1185 C   0  0  0  0  0  0  0  0  0  0  0  0
    4.8135    1.3340   19.0645 C   0  0  0  0  0  0  0  0  0  0  0  0
    5.4229    1.3328   17.8066 C   0  0  0  0  0  0  0  0  0  0  0  0
    6.5836    0.7113   17.5526 N   0  0  0  0  0  0  0  0  0  0  0  0
    7.1673    0.0736   18.5737 C   0  0  0  0  0  0  0  0  0  0  0  0
    8.1161   -0.4165   18.3451 H   0  0  0  0  0  0  0  0  0  0  0  0
    4.9606    1.8500   16.9670 H   0  0  0  0  0  0  0  0  0  0  0  0
    3.8833    1.8739   19.2071 H   0  0  0  0  0  0  0  0  0  0  0  0
    4.9774    0.6619   21.1101 H   0  0  0  0  0  0  0  0  0  0  0  0
    8.3325   -1.1518   20.4556 H   0  0  0  0  0  0  0  0  0  0  0  0
    5.7422   -1.5790   21.9959 H   0  0  0  0  0  0  0  0  0  0  0  0
    6.3855   -2.6889   20.7842 H   0  0  0  0  0  0  0  0  0  0  0  0
    7.2731   -2.4245   22.2990 H   0  0  0  0  0  0  0  0  0  0  0  0
  1  2  1  0
  2  3  1  0
  3  4  1  0
  4  5  1  0
  5  6  1  0
  6  7  1  0
  7  8  2  0
  8  9  1  0
  9 10  1  0
  9 11  2  0
 11 12  1  0
 12 13  2  0
 13 14  1  0
 14 15  1  0
 14 16  1  0
 12 17  1  0
 11 18  1  0
  8 19  1  0
  5 20  1  0
  5 21  1  0
  4 22  1  0
  3 23  1  0
  3 24  1  0
  2 25  1  0
 25 26  2  0
 26 27  1  0
 27 28  2  0
 28 29  1  0
 29 30  2  0
 30 31  1  0
 28 32  1  0
 27 33  1  0
 26 34  1  0
  2 35  1  0
  1 36  1  0
  1 37  1  0
  1 38  1  0
 14  4  1  0
 30 25  1  0
 13  7  1  0
M  CHG  1   3   1
M  END
>  <plip>  (1) 
-0.14285714285714285

>  <filename>  (1) 
[H][c]1[n][c]([H])[c]([C]([H])([C]([H])([H])[H])[N+]([H])([H])[C]2([H])[C]([H])([H])[O][c]3[c]([H])[c]([F])[c]([H])[c]([H])[c]3[C]2([H])[H])[c]([H])[c]1[H]

$$$$
