
     RDKit          3D

 26 27  0  0  0  0  0  0  0  0999 V2000
    4.9867    1.8692   16.9413 H   0  0  0  0  0  0  0  0  0  0  0  0
    5.3819    1.3011   17.7796 C   0  0  0  0  0  0  0  0  0  0  0  0
    6.5265    0.6365   17.5461 N   0  0  0  0  0  0  0  0  0  0  0  0
    7.0694   -0.0165   18.5750 C   0  0  0  0  0  0  0  0  0  0  0  0
    8.0081   -0.5455   18.4081 H   0  0  0  0  0  0  0  0  0  0  0  0
    6.5001   -0.0655   19.8543 C   0  0  0  0  0  0  0  0  0  0  0  0
    7.3990   -0.7957   21.1099 S   0  0  0  0  0  0  0  0  0  0  0  0
    8.3246    0.4968   21.7128 O   0  0  0  0  0  0  0  0  0  0  0  0
    9.7510    0.5613   21.3436 C   0  0  0  0  0  0  0  0  0  0  0  0
    9.8115    0.2805   20.2858 H   0  0  0  0  0  0  0  0  0  0  0  0
   10.6147   -0.3038   22.2507 C   0  0  0  0  0  0  0  0  0  0  0  0
   10.5879   -1.3507   21.9510 H   0  0  0  0  0  0  0  0  0  0  0  0
   10.2038   -0.2274   23.2647 H   0  0  0  0  0  0  0  0  0  0  0  0
   12.0168    0.3399   22.2233 C   0  0  0  0  0  0  0  0  0  0  0  0
   12.7347   -0.2451   21.6469 H   0  0  0  0  0  0  0  0  0  0  0  0
   12.4322    0.3848   23.2343 H   0  0  0  0  0  0  0  0  0  0  0  0
   11.8139    1.7524   21.6176 C   0  0  0  0  0  0  0  0  0  0  0  0
   12.1892    1.8003   20.5914 H   0  0  0  0  0  0  0  0  0  0  0  0
   12.3528    2.5193   22.1812 H   0  0  0  0  0  0  0  0  0  0  0  0
   10.2887    1.9558   21.5847 C   0  0  0  0  0  0  0  0  0  0  0  0
    9.9461    2.6565   20.8208 H   0  0  0  0  0  0  0  0  0  0  0  0
    9.9147    2.3017   22.5540 H   0  0  0  0  0  0  0  0  0  0  0  0
    5.3075    0.6372   20.0947 C   0  0  0  0  0  0  0  0  0  0  0  0
    4.8915    0.6386   21.0993 H   0  0  0  0  0  0  0  0  0  0  0  0
    4.7343    1.3286   19.0234 C   0  0  0  0  0  0  0  0  0  0  0  0
    3.8267    1.9130   19.1355 H   0  0  0  0  0  0  0  0  0  0  0  0
  1  2  1  0
  2  3  2  0
  3  4  1  0
  4  5  1  0
  4  6  2  0
  6  7  1  0
  7  8  1  0
  8  9  1  0
  9 10  1  0
  9 11  1  0
 11 12  1  0
 11 13  1  0
 11 14  1  0
 14 15  1  0
 14 16  1  0
 14 17  1  0
 17 18  1  0
 17 19  1  0
 17 20  1  0
 20 21  1  0
 20 22  1  0
  6 23  1  0
 23 24  1  0
 23 25  2  0
 25 26  1  0
 25  2  1  0
 20  9  1  0
M  END
>  <plip>  (1) 
-0.10714285714285714

>  <filename>  (1) 
[H][c]1[n][c]([H])[c]([S][O][C]2([H])[C]([H])([H])[C]([H])([H])[C]([H])([H])[C]2([H])[H])[c]([H])[c]1[H]

$$$$
