
     RDKit          3D

 41 43  0  0  0  0  0  0  0  0999 V2000
    7.4986   -1.1436   25.3307 O   0  0  0  0  0  0  0  0  0  0  0  0
    7.0143   -0.4958   24.1669 C   0  0  0  0  0  0  0  0  0  0  0  0
    8.2460   -0.3903   23.2735 C   0  0  0  0  0  0  0  0  0  0  0  0
    8.0060    0.2313   21.9168 N   0  0  0  0  0  4  0  0  0  0  0  0
    7.3744   -0.7201   20.9550 C   0  0  0  0  0  0  0  0  0  0  0  0
    6.6398    0.0242   19.8745 C   0  0  0  0  0  0  0  0  0  0  0  0
    5.4269    0.6874   20.1166 C   0  0  0  0  0  0  0  0  0  0  0  0
    4.8040    1.3474   19.0565 C   0  0  0  0  0  0  0  0  0  0  0  0
    5.4184    1.3410   17.8009 C   0  0  0  0  0  0  0  0  0  0  0  0
    6.5738    0.7087   17.5503 N   0  0  0  0  0  0  0  0  0  0  0  0
    7.1574    0.0730   18.5739 C   0  0  0  0  0  0  0  0  0  0  0  0
    8.0886   -0.4463   18.3391 H   0  0  0  0  0  0  0  0  0  0  0  0
    4.9609    1.8603   16.9595 H   0  0  0  0  0  0  0  0  0  0  0  0
    3.8689    1.8796   19.1912 H   0  0  0  0  0  0  0  0  0  0  0  0
    4.9793    0.6887   21.1142 H   0  0  0  0  0  0  0  0  0  0  0  0
    6.6814   -1.3654   21.5057 H   0  0  0  0  0  0  0  0  0  0  0  0
    8.1395   -1.3817   20.5226 H   0  0  0  0  0  0  0  0  0  0  0  0
    9.2993    0.8378   21.4007 C   0  0  0  0  0  0  0  0  0  0  0  0
    9.6088    2.0660   22.2223 C   0  0  0  0  0  0  0  0  0  0  0  0
   10.7818    2.2084   23.0020 C   0  0  0  0  0  0  0  0  0  0  0  0
   11.0199    3.4401   23.5898 C   0  0  0  0  0  0  0  0  0  0  0  0
   10.1607    4.5227   23.4049 C   0  0  0  0  0  0  0  0  0  0  0  0
    8.9760    4.3982   22.7014 C   0  0  0  0  0  0  0  0  0  0  0  0
    8.6984    3.1303   22.1694 C   0  0  0  0  0  0  0  0  0  0  0  0
    7.4804    2.8678   21.5904 O   0  0  0  0  0  0  0  0  0  0  0  0
    7.1316    3.6968   21.2498 H   0  0  0  0  0  0  0  0  0  0  0  0
    8.3027    5.2312   22.5405 H   0  0  0  0  0  0  0  0  0  0  0  0
   10.7071    5.6454   23.9679 O   0  0  0  0  0  0  0  0  0  0  0  0
   11.8514    5.1913   24.6925 C   0  0  0  0  0  0  0  0  0  0  0  0
   12.1003    3.8375   24.3267 O   0  0  0  0  0  0  0  0  0  0  0  0
   12.7243    5.8025   24.4380 H   0  0  0  0  0  0  0  0  0  0  0  0
   11.6488    5.2563   25.7708 H   0  0  0  0  0  0  0  0  0  0  0  0
   11.5038    1.4018   23.1252 H   0  0  0  0  0  0  0  0  0  0  0  0
   10.1143    0.1049   21.4596 H   0  0  0  0  0  0  0  0  0  0  0  0
    9.1701    1.1131   20.3461 H   0  0  0  0  0  0  0  0  0  0  0  0
    7.3812    1.0713   21.9894 H   0  0  0  0  0  0  0  0  0  0  0  0
    8.9853    0.2022   23.8184 H   0  0  0  0  0  0  0  0  0  0  0  0
    8.6721   -1.3962   23.1660 H   0  0  0  0  0  0  0  0  0  0  0  0
    6.2177   -1.0766   23.6747 H   0  0  0  0  0  0  0  0  0  0  0  0
    6.6132    0.5095   24.3851 H   0  0  0  0  0  0  0  0  0  0  0  0
    6.7814   -1.2672   25.9639 H   0  0  0  0  0  0  0  0  0  0  0  0
  1  2  1  0
  2  3  1  0
  3  4  1  0
  4  5  1  0
  5  6  1  0
  6  7  2  0
  7  8  1  0
  8  9  2  0
  9 10  1  0
 10 11  2  0
 11 12  1  0
  9 13  1  0
  8 14  1  0
  7 15  1  0
  5 16  1  0
  5 17  1  0
  4 18  1  0
 18 19  1  0
 19 20  2  0
 20 21  1  0
 21 22  2  0
 22 23  1  0
 23 24  2  0
 24 25  1  0
 25 26  1  0
 23 27  1  0
 22 28  1  0
 28 29  1  0
 29 30  1  0
 29 31  1  0
 29 32  1  0
 20 33  1  0
 18 34  1  0
 18 35  1  0
  4 36  1  0
  3 37  1  0
  3 38  1  0
  2 39  1  0
  2 40  1  0
  1 41  1  0
 11  6  1  0
 24 19  1  0
 30 21  1  0
M  CHG  1   4   1
M  END
>  <plip>  (1) 
-0.13793103448275862

>  <filename>  (1) 
[H][O][c]1[c]([H])[c]2[c]([c]([H])[c]1[C]([H])([H])[N+]([H])([C]([H])([H])[c]1[c]([H])[n][c]([H])[c]([H])[c]1[H])[C]([H])([H])[C]([H])([H])[O][H])[O][C]([H])([H])[O]2

$$$$
