
     RDKit          3D

 32 33  0  0  0  0  0  0  0  0999 V2000
    4.9503    1.8269   16.9193 H   0  0  0  0  0  0  0  0  0  0  0  0
    5.4097    1.3363   17.7775 C   0  0  0  0  0  0  0  0  0  0  0  0
    6.5700    0.6991   17.5537 N   0  0  0  0  0  0  0  0  0  0  0  0
    7.1564    0.1008   18.5941 C   0  0  0  0  0  0  0  0  0  0  0  0
    8.0690   -0.4479   18.3742 H   0  0  0  0  0  0  0  0  0  0  0  0
    6.6500    0.1396   19.9064 C   0  0  0  0  0  0  0  0  0  0  0  0
    7.4013   -0.4971   20.9948 C   0  0  0  0  0  0  0  0  0  0  0  0
    7.9402   -1.7401   20.7822 N   0  0  0  0  0  0  0  0  0  0  0  0
    8.4936   -2.2652   21.8018 N   0  0  0  0  0  0  0  0  0  0  0  0
    8.4017   -1.2548   23.1569 S   0  0  0  0  0  0  0  0  0  0  0  0
    7.6322   -0.0275   22.2658 C   0  0  0  0  0  0  0  0  0  0  0  0
    7.2892    1.2436   22.9272 C   0  0  0  0  0  0  0  0  0  0  0  0
    7.0807    1.2582   24.1328 O   0  0  0  0  0  0  0  0  0  0  0  0
    7.2555    2.3536   22.1427 N   0  0  0  0  0  0  0  0  0  0  0  0
    7.2761    2.1971   21.1468 H   0  0  0  0  0  0  0  0  0  0  0  0
    6.7089    3.6354   22.6309 C   0  0  0  0  0  0  0  0  0  0  0  0
    5.2350    3.4008   23.0221 C   0  0  0  0  0  0  0  0  0  0  0  0
    4.6886    2.9827   22.1630 H   0  0  0  0  0  0  0  0  0  0  0  0
    4.7460    4.3423   23.2846 H   0  0  0  0  0  0  0  0  0  0  0  0
    5.1519    2.6970   23.8544 H   0  0  0  0  0  0  0  0  0  0  0  0
    6.7400    4.6627   21.5019 C   0  0  0  0  0  0  0  0  0  0  0  0
    6.1902    4.2560   20.6510 H   0  0  0  0  0  0  0  0  0  0  0  0
    6.2274    5.5901   21.7963 H   0  0  0  0  0  0  0  0  0  0  0  0
    7.7598    4.9340   21.2023 H   0  0  0  0  0  0  0  0  0  0  0  0
    7.5854    4.1281   23.7948 C   0  0  0  0  0  0  0  0  0  0  0  0
    7.5173    3.4353   24.6338 H   0  0  0  0  0  0  0  0  0  0  0  0
    8.6345    4.1721   23.4726 H   0  0  0  0  0  0  0  0  0  0  0  0
    7.2998    5.1365   24.1170 H   0  0  0  0  0  0  0  0  0  0  0  0
    5.4038    0.7459   20.1103 C   0  0  0  0  0  0  0  0  0  0  0  0
    4.9142    0.6964   21.0847 H   0  0  0  0  0  0  0  0  0  0  0  0
    4.7812    1.3648   19.0252 C   0  0  0  0  0  0  0  0  0  0  0  0
    3.8197    1.8548   19.1273 H   0  0  0  0  0  0  0  0  0  0  0  0
  1  2  1  0
  2  3  2  0
  3  4  1  0
  4  5  1  0
  4  6  2  0
  6  7  1  0
  7  8  1  0
  8  9  2  0
  9 10  1  0
 10 11  1  0
 11 12  1  0
 12 13  2  0
 12 14  1  0
 14 15  1  0
 14 16  1  0
 16 17  1  0
 17 18  1  0
 17 19  1  0
 17 20  1  0
 16 21  1  0
 21 22  1  0
 21 23  1  0
 21 24  1  0
 16 25  1  0
 25 26  1  0
 25 27  1  0
 25 28  1  0
  6 29  1  0
 29 30  1  0
 29 31  2  0
 31 32  1  0
 31  2  1  0
 11  7  2  0
M  END
>  <plip>  (1) 
-0.0

>  <filename>  (1) 
[H][c]1[n][c]([H])[c](-[c]2[n][n][s][c]2[C](=[O])[N]([H])[C]([C]([H])([H])[H])([C]([H])([H])[H])[C]([H])([H])[H])[c]([H])[c]1[H]

$$$$
