
     RDKit          3D

 55 57  0  0  0  0  0  0  0  0999 V2000
    2.3787   -5.1725   22.6651 C   0  0  0  0  0  0  0  0  0  0  0  0
    3.8315   -5.0714   22.8561 N   0  0  0  0  0  0  0  0  0  0  0  0
    4.4855   -3.8396   22.3775 C   0  0  0  0  0  0  0  0  0  0  0  0
    5.8801   -4.1802   21.8681 C   0  0  0  0  0  0  0  0  0  0  0  0
    6.4976   -3.1452   20.9441 C   0  0  0  0  0  0  0  0  0  0  0  0
    6.6779   -1.8781   21.6704 N   0  0  0  0  0  4  0  0  0  0  0  0
    7.4803   -0.8393   20.9559 C   0  0  0  0  0  0  0  0  0  0  0  0
    6.6371   -0.1684   19.8849 C   0  0  0  0  0  0  0  0  0  0  0  0
    5.4312    0.5078   20.1342 C   0  0  0  0  0  0  0  0  0  0  0  0
    4.8182    1.2027   19.0851 C   0  0  0  0  0  0  0  0  0  0  0  0
    5.4061    1.1684   17.8160 C   0  0  0  0  0  0  0  0  0  0  0  0
    6.5180    0.4736   17.5398 N   0  0  0  0  0  0  0  0  0  0  0  0
    7.0986   -0.1728   18.5582 C   0  0  0  0  0  0  0  0  0  0  0  0
    8.0032   -0.7278   18.3040 H   0  0  0  0  0  0  0  0  0  0  0  0
    4.9512    1.7028   16.9827 H   0  0  0  0  0  0  0  0  0  0  0  0
    3.9120    1.7797   19.2357 H   0  0  0  0  0  0  0  0  0  0  0  0
    4.9929    0.5356   21.1362 H   0  0  0  0  0  0  0  0  0  0  0  0
    8.1784    0.0991   21.9669 C   0  0  0  0  0  0  0  0  0  0  0  0
    9.3709    0.8230   21.2912 C   0  0  0  0  0  0  0  0  0  0  0  0
    9.8765    2.0203   22.1281 C   0  0  0  0  0  0  0  0  0  0  0  0
    9.5555    1.8629   23.4966 O   0  0  0  0  0  0  0  0  0  0  0  0
    8.1582    1.8965   23.7563 C   0  0  0  0  0  0  0  0  0  0  0  0
    7.3095    1.1394   22.7063 C   0  0  0  0  0  0  0  0  0  0  0  0
    6.4432    0.6860   23.2067 H   0  0  0  0  0  0  0  0  0  0  0  0
    6.9103    1.8624   21.9818 H   0  0  0  0  0  0  0  0  0  0  0  0
    7.8160    2.9422   23.8322 H   0  0  0  0  0  0  0  0  0  0  0  0
    8.0533    1.4410   24.7452 H   0  0  0  0  0  0  0  0  0  0  0  0
   10.9654    2.1025   22.0772 H   0  0  0  0  0  0  0  0  0  0  0  0
    9.4545    2.9651   21.7398 H   0  0  0  0  0  0  0  0  0  0  0  0
   10.1825    0.0995   21.1343 H   0  0  0  0  0  0  0  0  0  0  0  0
    9.0720    1.1895   20.3019 H   0  0  0  0  0  0  0  0  0  0  0  0
    8.5824   -0.5827   22.7245 H   0  0  0  0  0  0  0  0  0  0  0  0
    8.2838   -1.3651   20.4289 H   0  0  0  0  0  0  0  0  0  0  0  0
    5.7370   -1.4288   21.8119 H   0  0  0  0  0  0  0  0  0  0  0  0
    7.1153   -2.0784   22.5983 H   0  0  0  0  0  0  0  0  0  0  0  0
    5.8782   -2.9862   20.0492 H   0  0  0  0  0  0  0  0  0  0  0  0
    7.4716   -3.5118   20.5911 H   0  0  0  0  0  0  0  0  0  0  0  0
    5.8115   -5.1284   21.3253 H   0  0  0  0  0  0  0  0  0  0  0  0
    6.5259   -4.3446   22.7431 H   0  0  0  0  0  0  0  0  0  0  0  0
    3.8826   -3.4046   21.5753 H   0  0  0  0  0  0  0  0  0  0  0  0
    4.5371   -3.0879   23.1773 H   0  0  0  0  0  0  0  0  0  0  0  0
    4.2463   -5.4320   24.1851 C   0  0  0  0  0  0  0  0  0  0  0  0
    5.0551   -6.5555   24.4163 C   0  0  0  0  0  0  0  0  0  0  0  0
    5.4734   -6.8949   25.7099 C   0  0  0  0  0  0  0  0  0  0  0  0
    5.1155   -6.1116   26.8081 C   0  0  0  0  0  0  0  0  0  0  0  0
    4.3163   -4.9826   26.6138 C   0  0  0  0  0  0  0  0  0  0  0  0
    3.8952   -4.6673   25.3261 C   0  0  0  0  0  0  0  0  0  0  0  0
    3.1325   -3.5562   25.1781 F   0  0  0  0  0  0  0  0  0  0  0  0
    4.0004   -4.3440   27.4314 H   0  0  0  0  0  0  0  0  0  0  0  0
    5.4749   -6.3635   27.8033 H   0  0  0  0  0  0  0  0  0  0  0  0
    6.0767   -7.7729   25.8872 H   0  0  0  0  0  0  0  0  0  0  0  0
    5.3546   -7.1577   23.5604 H   0  0  0  0  0  0  0  0  0  0  0  0
    2.0932   -6.2031   22.4215 H   0  0  0  0  0  0  0  0  0  0  0  0
    2.0479   -4.5508   21.8314 H   0  0  0  0  0  0  0  0  0  0  0  0
    1.7858   -4.8653   23.5369 H   0  0  0  0  0  0  0  0  0  0  0  0
  1  2  1  0
  2  3  1  0
  3  4  1  0
  4  5  1  0
  5  6  1  0
  6  7  1  0
  7  8  1  0
  8  9  2  0
  9 10  1  0
 10 11  2  0
 11 12  1  0
 12 13  2  0
 13 14  1  0
 11 15  1  0
 10 16  1  0
  9 17  1  0
  7 18  1  0
 18 19  1  0
 19 20  1  0
 20 21  1  0
 21 22  1  0
 22 23  1  0
 23 24  1  0
 23 25  1  0
 22 26  1  0
 22 27  1  0
 20 28  1  0
 20 29  1  0
 19 30  1  0
 19 31  1  0
 18 32  1  0
  7 33  1  0
  6 34  1  0
  6 35  1  0
  5 36  1  0
  5 37  1  0
  4 38  1  0
  4 39  1  0
  3 40  1  0
  3 41  1  0
  2 42  1  0
 42 43  2  0
 43 44  1  0
 44 45  2  0
 45 46  1  0
 46 47  2  0
 47 48  1  0
 46 49  1  0
 45 50  1  0
 44 51  1  0
 43 52  1  0
  1 53  1  0
  1 54  1  0
  1 55  1  0
 13  8  1  0
 23 18  1  0
 47 42  1  0
M  CHG  1   6   1
M  END
>  <plip>  (1) 
-0.10714285714285714

>  <filename>  (1) 
[H][c]1[n][c]([H])[c]([C]([H])([C]2([H])[C]([H])([H])[C]([H])([H])[O][C]([H])([H])[C]2([H])[H])[N+]([H])([H])[C]([H])([H])[C]([H])([H])[C]([H])([H])[N]([c]2[c]([H])[c]([H])[c]([H])[c]([H])[c]2[F])[C]([H])([H])[H])[c]([H])[c]1[H]

$$$$
