
     RDKit          3D

 39 42  0  0  0  0  0  0  0  0999 V2000
    4.9225    1.7791   16.9990 H   0  0  0  0  0  0  0  0  0  0  0  0
    5.4061    1.2909   17.8391 C   0  0  0  0  0  0  0  0  0  0  0  0
    6.5696    0.6750   17.5769 N   0  0  0  0  0  0  0  0  0  0  0  0
    7.1677    0.0423   18.5876 C   0  0  0  0  0  0  0  0  0  0  0  0
    8.1186   -0.4373   18.3664 H   0  0  0  0  0  0  0  0  0  0  0  0
    6.6426   -0.0016   19.8886 C   0  0  0  0  0  0  0  0  0  0  0  0
    7.3758   -0.6787   20.9409 C   0  0  0  0  0  0  0  0  0  0  0  0
    8.1861   -1.7627   20.7056 N   0  0  0  0  0  0  0  0  0  0  0  0
    8.6407   -2.0593   21.8897 C   0  0  0  0  0  0  0  0  0  0  0  0
    9.8436   -3.1474   22.5195 S   0  0  0  0  0  0  0  0  0  0  0  0
    9.7382   -2.4254   24.0989 C   0  0  0  0  0  0  0  0  0  0  0  0
   10.3717   -2.8183   24.8819 H   0  0  0  0  0  0  0  0  0  0  0  0
    8.8261   -1.4386   24.1354 C   0  0  0  0  0  0  0  0  0  0  0  0
    8.5826   -0.7962   24.9677 H   0  0  0  0  0  0  0  0  0  0  0  0
    8.1785   -1.2628   22.9086 N   0  0  0  0  0  0  0  0  0  0  0  0
    7.3725   -0.3116   22.2949 C   0  0  0  0  0  0  0  0  0  0  0  0
    6.9118    0.8405   22.9012 N   0  0  0  0  0  0  0  0  0  0  0  0
    6.1813    0.7956   24.1539 C   0  0  0  0  0  0  0  0  0  0  0  0
    5.4009    1.5691   24.1359 H   0  0  0  0  0  0  0  0  0  0  0  0
    6.7928    0.9712   25.0557 H   0  0  0  0  0  0  0  0  0  0  0  0
    5.7011   -0.1797   24.2451 H   0  0  0  0  0  0  0  0  0  0  0  0
    7.5741    2.1068   22.5132 C   0  0  0  0  0  0  0  0  0  0  0  0
    7.1141    2.9299   23.0745 H   0  0  0  0  0  0  0  0  0  0  0  0
    7.3633    2.2813   21.4522 H   0  0  0  0  0  0  0  0  0  0  0  0
    9.0794    2.0801   22.7435 C   0  0  0  0  0  0  0  0  0  0  0  0
    9.9612    1.7191   21.7099 C   0  0  0  0  0  0  0  0  0  0  0  0
    9.5631    1.5102   20.7189 H   0  0  0  0  0  0  0  0  0  0  0  0
   11.3318    1.5952   21.9467 C   0  0  0  0  0  0  0  0  0  0  0  0
   12.0020    1.3242   21.1347 H   0  0  0  0  0  0  0  0  0  0  0  0
   11.8385    1.8257   23.2303 C   0  0  0  0  0  0  0  0  0  0  0  0
   12.9053    1.7378   23.4201 H   0  0  0  0  0  0  0  0  0  0  0  0
   10.9692    2.1681   24.2689 C   0  0  0  0  0  0  0  0  0  0  0  0
   11.3635    2.3262   25.2656 H   0  0  0  0  0  0  0  0  0  0  0  0
    9.5979    2.2927   24.0298 C   0  0  0  0  0  0  0  0  0  0  0  0
    8.9247    2.5475   24.8491 H   0  0  0  0  0  0  0  0  0  0  0  0
    5.4299    0.6556   20.1545 C   0  0  0  0  0  0  0  0  0  0  0  0
    5.0033    0.6417   21.1622 H   0  0  0  0  0  0  0  0  0  0  0  0
    4.8025    1.3099   19.1027 C   0  0  0  0  0  0  0  0  0  0  0  0
    3.8733    1.8435   19.2576 H   0  0  0  0  0  0  0  0  0  0  0  0
  1  2  1  0
  2  3  2  0
  3  4  1  0
  4  5  1  0
  4  6  2  0
  6  7  1  0
  7  8  1  0
  8  9  2  0
  9 10  1  0
 10 11  1  0
 11 12  1  0
 11 13  2  0
 13 14  1  0
 13 15  1  0
 15 16  1  0
 16 17  1  0
 17 18  1  0
 18 19  1  0
 18 20  1  0
 18 21  1  0
 17 22  1  0
 22 23  1  0
 22 24  1  0
 22 25  1  0
 25 26  2  0
 26 27  1  0
 26 28  1  0
 28 29  1  0
 28 30  2  0
 30 31  1  0
 30 32  1  0
 32 33  1  0
 32 34  2  0
 34 35  1  0
  6 36  1  0
 36 37  1  0
 36 38  2  0
 38 39  1  0
 38  2  1  0
 16  7  2  0
 34 25  1  0
 15  9  1  0
M  END
>  <plip>  (1) 
-0.10344827586206896

>  <filename>  (1) 
[H][c]1[n][c]([H])[c](-[c]2[n][c]3[s][c]([H])[c]([H])[n]3[c]2[N]([C]([H])([H])[H])[C]([H])([H])[c]2[c]([H])[c]([H])[c]([H])[c]([H])[c]2[H])[c]([H])[c]1[H]

$$$$
