
     RDKit          3D

 31 33  0  0  0  0  0  0  0  0999 V2000
    7.0652   -2.0628   21.1261 C   0  0  0  0  0  0  0  0  0  0  0  0
    7.2527   -0.5545   21.1539 C   0  0  1  0  0  0  0  0  0  0  0  0
    8.6627   -0.2516   21.1230 N   0  0  0  0  0  0  0  0  0  0  0  0
    9.2058    0.9255   21.4584 C   0  0  0  0  0  0  0  0  0  0  0  0
   10.5228    0.9450   21.3545 N   0  0  0  0  0  0  0  0  0  0  0  0
   11.1214    2.0940   21.7000 C   0  0  0  0  0  0  0  0  0  0  0  0
   12.3989    2.3977   21.5914 N   0  0  0  0  0  0  0  0  0  0  0  0
   12.5277    3.6752   22.0508 C   0  0  0  0  0  0  0  0  0  0  0  0
   11.3348    4.2017   22.4871 C   0  0  0  0  0  0  0  0  0  0  0  0
   10.4136    3.2013   22.2536 N   0  0  0  0  0  0  0  0  0  0  0  0
    9.0384    3.1636   22.3201 C   0  0  0  0  0  0  0  0  0  0  0  0
    8.4041    2.0424   21.9082 C   0  0  0  0  0  0  0  0  0  0  0  0
    7.3241    1.9729   21.9149 H   0  0  0  0  0  0  0  0  0  0  0  0
    8.5461    4.0623   22.6990 H   0  0  0  0  0  0  0  0  0  0  0  0
   11.0470    5.1487   22.9240 H   0  0  0  0  0  0  0  0  0  0  0  0
   13.4901    4.1759   22.0334 H   0  0  0  0  0  0  0  0  0  0  0  0
    9.3869   -0.9004   20.8649 H   0  0  0  0  0  0  0  0  0  0  0  0
    6.5615    0.1547   20.0143 C   0  0  0  0  0  0  0  0  0  0  0  0
    5.3268    0.7939   20.1563 C   0  0  0  0  0  0  0  0  0  0  0  0
    4.7381    1.3733   19.0312 C   0  0  0  0  0  0  0  0  0  0  0  0
    5.4160    1.3110   17.8118 C   0  0  0  0  0  0  0  0  0  0  0  0
    6.6078    0.7173   17.6625 N   0  0  0  0  0  0  0  0  0  0  0  0
    7.1581    0.1553   18.7441 C   0  0  0  0  0  0  0  0  0  0  0  0
    8.1299   -0.3140   18.5916 H   0  0  0  0  0  0  0  0  0  0  0  0
    4.9828    1.7433   16.9128 H   0  0  0  0  0  0  0  0  0  0  0  0
    3.7793    1.8689   19.0886 H   0  0  0  0  0  0  0  0  0  0  0  0
    4.8483    0.8422   21.1348 H   0  0  0  0  0  0  0  0  0  0  0  0
    6.8288   -0.1901   22.1057 H   0  0  0  0  0  0  0  0  0  0  0  0
    7.7851   -2.5215   21.8089 H   0  0  0  0  0  0  0  0  0  0  0  0
    7.2161   -2.4627   20.1228 H   0  0  0  0  0  0  0  0  0  0  0  0
    6.0616   -2.3466   21.4533 H   0  0  0  0  0  0  0  0  0  0  0  0
  1  2  1  0
  2  3  1  0
  3  4  1  0
  4  5  2  0
  5  6  1  0
  6  7  2  0
  7  8  1  0
  8  9  2  0
  9 10  1  0
 10 11  1  0
 11 12  2  0
 12 13  1  0
 11 14  1  0
  9 15  1  0
  8 16  1  0
  3 17  1  0
  2 18  1  0
 18 19  2  0
 19 20  1  0
 20 21  2  0
 21 22  1  0
 22 23  2  0
 23 24  1  0
 21 25  1  0
 20 26  1  0
 19 27  1  0
  2 28  1  1
  1 29  1  0
  1 30  1  0
  1 31  1  0
 12  4  1  0
 23 18  1  0
 10  6  1  0
M  END
>  <plip>  (1) 
-0.034482758620689655

>  <filename>  (1) 
[H][c]1[n][c]([H])[c]([C@]([H])([N]([H])[c]2[n][c]3[n][c]([H])[c]([H])[n]3[c]([H])[c]2[H])[C]([H])([H])[H])[c]([H])[c]1[H]

$$$$
