
     RDKit          3D

 32 34  0  0  0  0  0  0  0  0999 V2000
    5.3336    1.8461   16.9631 H   0  0  0  0  0  0  0  0  0  0  0  0
    5.7583    1.2855   17.7925 C   0  0  0  0  0  0  0  0  0  0  0  0
    6.9748    0.7564   17.5887 N   0  0  0  0  0  0  0  0  0  0  0  0
    7.5255    0.0666   18.5966 C   0  0  0  0  0  0  0  0  0  0  0  0
    8.5152   -0.3519   18.4211 H   0  0  0  0  0  0  0  0  0  0  0  0
    6.8888   -0.1581   19.8395 C   0  0  0  0  0  0  0  0  0  0  0  0
    7.4854   -0.9084   20.8978 N   0  0  0  0  0  0  0  0  0  0  0  0
    6.8064   -1.9413   21.5416 C   0  0  0  0  0  0  0  0  0  0  0  0
    5.6307   -2.2235   21.4781 O   0  0  0  0  0  0  0  0  0  0  0  0
    7.7357   -2.6655   22.2606 N   0  0  0  0  0  0  0  0  0  0  0  0
    7.2883   -3.1258   23.0372 H   0  0  0  0  0  0  0  0  0  0  0  0
    8.9510   -1.8924   22.4305 C   0  0  0  0  0  0  0  0  0  0  0  0
    8.8967   -1.2592   23.3284 H   0  0  0  0  0  0  0  0  0  0  0  0
    9.8637   -2.4891   22.4749 H   0  0  0  0  0  0  0  0  0  0  0  0
    8.9139   -1.0262   21.1513 C   0  0  2  0  0  0  0  0  0  0  0  0
    9.3974   -1.5856   20.3178 H   0  0  0  0  0  0  0  0  0  0  0  0
    9.4393    0.3256   21.3161 N   0  0  0  0  0  0  0  0  0  0  0  0
    8.6899    0.9897   21.1903 H   0  0  0  0  0  0  0  0  0  0  0  0
   10.7392    0.5614   21.6624 C   0  0  0  0  0  0  0  0  0  0  0  0
   11.4520   -0.3701   21.9896 O   0  0  0  0  0  0  0  0  0  0  0  0
   11.6312    2.3005   21.6572 C   0  0  0  0  0  0  0  0  0  0  0  0
   12.3657    1.6609   21.0529 H   0  0  0  0  0  0  0  0  0  0  0  0
   11.5523    2.5101   21.2923 C   0  0  0  0  0  0  0  0  0  0  0  0
   10.6056    2.6158   20.5198 H   0  0  0  0  0  0  0  0  0  0  0  0
   12.1479    3.5324   20.4217 H   0  0  0  0  0  0  0  0  0  0  0  0
   11.3611    2.9596   22.6973 C   0  0  0  0  0  0  0  0  0  0  0  0
   10.3824    2.7027   23.1184 H   0  0  0  0  0  0  0  0  0  0  0  0
   12.1019    3.5757   23.2438 H   0  0  0  0  0  0  0  0  0  0  0  0
    5.6072    0.3812   20.0255 C   0  0  0  0  0  0  0  0  0  0  0  0
    5.0734    0.1882   20.9566 H   0  0  0  0  0  0  0  0  0  0  0  0
    5.0459    1.1318   18.9882 C   0  0  0  0  0  0  0  0  0  0  0  0
    4.0675    1.5885   19.0943 H   0  0  0  0  0  0  0  0  0  0  0  0
  1  2  1  0
  2  3  2  0
  3  4  1  0
  4  5  1  0
  4  6  2  0
  6  7  1  0
  7  8  1  0
  8  9  2  0
  8 10  1  0
 10 11  1  0
 10 12  1  0
 12 13  1  0
 12 14  1  0
 12 15  1  0
 15 16  1  6
 15 17  1  0
 17 18  1  0
 17 19  1  0
 19 20  2  0
 19 21  1  0
 21 22  1  0
 21 23  1  0
 23 24  1  0
 23 25  1  0
 23 26  1  0
 26 27  1  0
 26 28  1  0
  6 29  1  0
 29 30  1  0
 29 31  2  0
 31 32  1  0
 31  2  1  0
 15  7  1  0
 26 21  1  0
M  END
>  <plip>  (1) 
-0.13793103448275862

>  <filename>  (1) 
[H][c]1[n][c]([H])[c]([N]2[C](=[O])[N]([H])[C]([H])([H])[C@]2([H])[N]([H])[C](=[O])[C]2([H])[C]([H])([H])[C]2([H])[H])[c]([H])[c]1[H]

$$$$
