
     RDKit          3D

 28 30  0  0  0  0  0  0  0  0999 V2000
    8.9154   -3.1848   22.1748 H   0  0  0  0  0  0  0  0  0  0  0  0
    8.3948   -2.2786   21.8934 C   0  0  0  0  0  0  0  0  0  0  0  0
    7.9429   -1.9281   20.7393 N   0  0  0  0  0  0  0  0  0  0  0  0
    7.3672   -0.6934   20.9488 C   0  0  0  0  0  0  0  0  0  0  0  0
    6.6510    0.0102   19.9022 C   0  0  0  0  0  0  0  0  0  0  0  0
    7.1709    0.0449   18.5985 C   0  0  0  0  0  0  0  0  0  0  0  0
    8.1218   -0.4361   18.3766 H   0  0  0  0  0  0  0  0  0  0  0  0
    6.5704    0.6710   17.5841 N   0  0  0  0  0  0  0  0  0  0  0  0
    5.4061    1.2895   17.8412 C   0  0  0  0  0  0  0  0  0  0  0  0
    4.9221    1.7780   16.9993 H   0  0  0  0  0  0  0  0  0  0  0  0
    4.8009    1.3061   19.1016 C   0  0  0  0  0  0  0  0  0  0  0  0
    3.8735    1.8443   19.2600 H   0  0  0  0  0  0  0  0  0  0  0  0
    5.4297    0.6510   20.1541 C   0  0  0  0  0  0  0  0  0  0  0  0
    5.0001    0.6413   21.1577 H   0  0  0  0  0  0  0  0  0  0  0  0
    7.5507   -0.3382   22.2588 C   0  0  0  0  0  0  0  0  0  0  0  0
    7.2151    0.9401   22.8885 C   0  0  0  0  0  0  0  0  0  0  0  0
    7.1205    1.9489   22.2034 O   0  0  0  0  0  0  0  0  0  0  0  0
    6.9824    0.9942   24.3791 C   0  0  0  0  0  0  0  0  0  0  0  0
    6.5524   -0.1125   25.1284 C   0  0  0  0  0  0  0  0  0  0  0  0
    6.3636   -1.0764   24.6679 H   0  0  0  0  0  0  0  0  0  0  0  0
    6.3613    0.0338   26.5053 C   0  0  0  0  0  0  0  0  0  0  0  0
    6.0395   -0.8180   27.0929 H   0  0  0  0  0  0  0  0  0  0  0  0
    6.5502    1.1805   27.1718 N   0  0  0  0  0  0  0  0  0  0  0  0
    6.9518    2.2349   26.4491 C   0  0  0  0  0  0  0  0  0  0  0  0
    7.0964    3.1633   26.9893 H   0  0  0  0  0  0  0  0  0  0  0  0
    7.1769    2.1985   25.0720 C   0  0  0  0  0  0  0  0  0  0  0  0
    7.4848    3.0919   24.5403 H   0  0  0  0  0  0  0  0  0  0  0  0
    8.1998   -1.3826   22.8760 O   0  0  0  0  0  0  0  0  0  0  0  0
  1  2  1  0
  2  3  2  0
  3  4  1  0
  4  5  1  0
  5  6  2  0
  6  7  1  0
  6  8  1  0
  8  9  2  0
  9 10  1  0
  9 11  1  0
 11 12  1  0
 11 13  2  0
 13 14  1  0
  4 15  2  0
 15 16  1  0
 16 17  2  0
 16 18  1  0
 18 19  2  0
 19 20  1  0
 19 21  1  0
 21 22  1  0
 21 23  2  0
 23 24  1  0
 24 25  1  0
 24 26  2  0
 26 27  1  0
 15 28  1  0
 28  2  1  0
 13  5  1  0
 26 18  1  0
M  END
>  <plip>  (1) 
-0.0

>  <filename>  (1) 
[H][c]1[n][c](-[c]2[c]([H])[n][c]([H])[c]([H])[c]2[H])[c]([C](=[O])[c]2[c]([H])[c]([H])[n][c]([H])[c]2[H])[o]1

$$$$
