
     RDKit          3D

 41 43  0  0  0  0  0  0  0  0999 V2000
    7.2614   -2.9202   23.7073 C   0  0  0  0  0  0  0  0  0  0  0  0
    7.6521   -1.9540   22.6946 N   0  0  0  0  0  0  0  0  0  0  0  0
    8.8954   -1.4817   22.4295 C   0  0  0  0  0  0  0  0  0  0  0  0
    8.7725   -0.5861   21.3850 C   0  0  0  0  0  0  0  0  0  0  0  0
    9.7720    0.3304   20.7610 C   0  0  0  0  0  0  0  0  0  0  0  0
    9.2757    1.7404   20.9412 N   0  0  0  0  0  4  0  0  0  0  0  0
    9.3267    2.1478   22.4045 C   0  0  0  0  0  0  0  0  0  0  0  0
   10.7500    2.2014   22.8999 C   0  0  0  0  0  0  0  0  0  0  0  0
   11.7577    2.9743   22.4838 C   0  0  0  0  0  0  0  0  0  0  0  0
   13.0407    2.7005   23.2396 C   0  0  0  0  0  0  0  0  0  0  0  0
   12.7231    1.4563   24.1126 C   0  0  0  0  0  0  0  0  0  0  0  0
   11.1964    1.2377   23.9822 C   0  0  0  0  0  0  0  0  0  0  0  0
   10.9515    0.2075   23.6932 H   0  0  0  0  0  0  0  0  0  0  0  0
   10.6554    1.4278   24.9226 H   0  0  0  0  0  0  0  0  0  0  0  0
   13.2909    0.5818   23.7597 H   0  0  0  0  0  0  0  0  0  0  0  0
   13.0039    1.5834   25.1590 H   0  0  0  0  0  0  0  0  0  0  0  0
   13.8968    2.5269   22.5776 H   0  0  0  0  0  0  0  0  0  0  0  0
   13.3046    3.5833   23.8309 H   0  0  0  0  0  0  0  0  0  0  0  0
   11.7001    3.7283   21.6945 H   0  0  0  0  0  0  0  0  0  0  0  0
    8.7877    1.3952   22.9846 H   0  0  0  0  0  0  0  0  0  0  0  0
    8.8097    3.1033   22.5357 H   0  0  0  0  0  0  0  0  0  0  0  0
    8.2848    1.7146   20.6049 H   0  0  0  0  0  0  0  0  0  0  0  0
    9.8837    2.4661   20.4954 H   0  0  0  0  0  0  0  0  0  0  0  0
    9.8868    0.1040   19.7004 H   0  0  0  0  0  0  0  0  0  0  0  0
   10.7539    0.2201   21.2298 H   0  0  0  0  0  0  0  0  0  0  0  0
    7.3825   -0.5983   21.0753 C   0  0  0  0  0  0  0  0  0  0  0  0
    6.6615    0.0905   19.9976 C   0  0  0  0  0  0  0  0  0  0  0  0
    5.4068    0.7036   20.1748 C   0  0  0  0  0  0  0  0  0  0  0  0
    4.8248    1.3379   19.0756 C   0  0  0  0  0  0  0  0  0  0  0  0
    5.4783    1.3102   17.8378 C   0  0  0  0  0  0  0  0  0  0  0  0
    6.6394    0.6673   17.6418 N   0  0  0  0  0  0  0  0  0  0  0  0
    7.1910    0.0635   18.6992 C   0  0  0  0  0  0  0  0  0  0  0  0
    8.1108   -0.4820   18.5111 H   0  0  0  0  0  0  0  0  0  0  0  0
    5.0508    1.8133   16.9696 H   0  0  0  0  0  0  0  0  0  0  0  0
    3.8740    1.8517   19.1537 H   0  0  0  0  0  0  0  0  0  0  0  0
    4.8928    0.6699   21.1388 H   0  0  0  0  0  0  0  0  0  0  0  0
    6.7334   -1.4362   21.8778 N   0  0  0  0  0  0  0  0  0  0  0  0
    9.7396   -1.8074   23.0340 H   0  0  0  0  0  0  0  0  0  0  0  0
    6.1762   -2.8494   23.8368 H   0  0  0  0  0  0  0  0  0  0  0  0
    7.7627   -2.6682   24.6474 H   0  0  0  0  0  0  0  0  0  0  0  0
    7.5349   -3.9400   23.4064 H   0  0  0  0  0  0  0  0  0  0  0  0
  1  2  1  0
  2  3  1  0
  3  4  2  0
  4  5  1  0
  5  6  1  0
  6  7  1  0
  7  8  1  0
  8  9  2  0
  9 10  1  0
 10 11  1  0
 11 12  1  0
 12 13  1  0
 12 14  1  0
 11 15  1  0
 11 16  1  0
 10 17  1  0
 10 18  1  0
  9 19  1  0
  7 20  1  0
  7 21  1  0
  6 22  1  0
  6 23  1  0
  5 24  1  0
  5 25  1  0
  4 26  1  0
 26 27  1  0
 27 28  2  0
 28 29  1  0
 29 30  2  0
 30 31  1  0
 31 32  2  0
 32 33  1  0
 30 34  1  0
 29 35  1  0
 28 36  1  0
 26 37  2  0
  3 38  1  0
  1 39  1  0
  1 40  1  0
  1 41  1  0
 37  2  1  0
 12  8  1  0
 32 27  1  0
M  CHG  1   6   1
M  END
>  <plip>  (1) 
-0.14285714285714285

>  <filename>  (1) 
[H][C]1=[C]([C]([H])([H])[N+]([H])([H])[C]([H])([H])[c]2[c](-[c]3[c]([H])[n][c]([H])[c]([H])[c]3[H])[n][n]([C]([H])([H])[H])[c]2[H])[C]([H])([H])[C]([H])([H])[C]1([H])[H]

$$$$
