
     RDKit          3D

 19 19  0  0  0  0  0  0  0  0999 V2000
    6.8941   -3.3704   24.3238 H   0  0  0  0  0  0  0  0  0  0  0  0
    6.3123   -3.0330   23.6247 O   0  0  0  0  0  0  0  0  0  0  0  0
    7.1691   -2.2237   22.8981 N   0  0  0  0  0  0  0  0  0  0  0  0
    6.6114   -1.6331   21.9135 C   0  0  0  0  0  0  0  0  0  0  0  0
    5.5579   -1.7922   21.6773 H   0  0  0  0  0  0  0  0  0  0  0  0
    7.3883   -0.7250   21.0066 C   0  0  0  0  0  0  0  0  0  0  0  0
    8.7050   -0.5294   21.1451 C   0  0  0  0  0  0  0  0  0  0  0  0
    9.2421    0.1543   20.4922 H   0  0  0  0  0  0  0  0  0  0  0  0
    9.2568   -1.0435   21.9263 H   0  0  0  0  0  0  0  0  0  0  0  0
    6.6498   -0.0137   19.9155 C   0  0  0  0  0  0  0  0  0  0  0  0
    7.1694    0.0656   18.6054 C   0  0  0  0  0  0  0  0  0  0  0  0
    8.1127   -0.4290   18.3744 H   0  0  0  0  0  0  0  0  0  0  0  0
    6.5650    0.6769   17.5809 N   0  0  0  0  0  0  0  0  0  0  0  0
    5.3986    1.2941   17.8389 C   0  0  0  0  0  0  0  0  0  0  0  0
    4.9139    1.7812   16.9954 H   0  0  0  0  0  0  0  0  0  0  0  0
    4.8056    1.3120   19.1054 C   0  0  0  0  0  0  0  0  0  0  0  0
    3.8731    1.8451   19.2579 H   0  0  0  0  0  0  0  0  0  0  0  0
    5.4317    0.6399   20.1565 C   0  0  0  0  0  0  0  0  0  0  0  0
    5.0094    0.6349   21.1626 H   0  0  0  0  0  0  0  0  0  0  0  0
  1  2  1  0
  2  3  1  0
  3  4  2  3
  4  5  1  0
  4  6  1  0
  6  7  2  3
  7  8  1  0
  7  9  1  0
  6 10  1  0
 10 11  2  0
 11 12  1  0
 11 13  1  0
 13 14  2  0
 14 15  1  0
 14 16  1  0
 16 17  1  0
 16 18  2  0
 18 19  1  0
 18 10  1  0
M  END
>  <plip>  (1) 
-0.03571428571428571

>  <filename>  (1) 
[H][O][N]=[C]([H])[C](=[C]([H])[H])[c]1[c]([H])[n][c]([H])[c]([H])[c]1[H]

$$$$
