
     RDKit          3D

 27 28  0  0  0  0  0  0  0  0999 V2000
    4.9543    1.8013   16.9792 H   0  0  0  0  0  0  0  0  0  0  0  0
    5.4171    1.2958   17.8242 C   0  0  0  0  0  0  0  0  0  0  0  0
    6.5798    0.6682   17.5839 N   0  0  0  0  0  0  0  0  0  0  0  0
    7.1706    0.0454   18.6082 C   0  0  0  0  0  0  0  0  0  0  0  0
    8.1233   -0.4343   18.3812 H   0  0  0  0  0  0  0  0  0  0  0  0
    6.6550    0.0244   19.9315 C   0  0  0  0  0  0  0  0  0  0  0  0
    7.3453   -0.6612   21.0629 C   0  0  0  0  0  0  0  0  0  0  0  0
    7.8379   -2.3163   20.8616 S   0  0  0  0  0  0  0  0  0  0  0  0
    8.6296   -2.5296   22.7380 S   0  0  0  0  0  0  0  0  0  0  0  0
    8.1640   -0.9703   23.3399 C   0  0  0  0  0  0  0  0  0  0  0  0
    8.4796   -0.5777   24.9109 S   0  0  0  0  0  0  0  0  0  0  0  0
    7.5095   -0.1392   22.3163 C   0  0  0  0  0  0  0  0  0  0  0  0
    7.0818    1.1549   22.6508 N   0  0  0  0  0  0  0  0  0  0  0  0
    7.0971    1.2448   23.6674 H   0  0  0  0  0  0  0  0  0  0  0  0
    7.8093    2.2689   22.0128 C   0  0  0  0  0  0  0  0  0  0  0  0
    8.8940    2.0947   22.0328 H   0  0  0  0  0  0  0  0  0  0  0  0
    7.5242    2.3289   20.9606 H   0  0  0  0  0  0  0  0  0  0  0  0
    7.4922    3.5846   22.7225 C   0  0  0  0  0  0  0  0  0  0  0  0
    6.3927    3.6601   22.8123 H   0  0  0  0  0  0  0  0  0  0  0  0
    7.8920    3.4889   23.7389 H   0  0  0  0  0  0  0  0  0  0  0  0
    8.1732    4.7258   22.1060 N   0  0  0  0  0  0  0  0  0  0  0  0
    8.0334    5.5596   22.6681 H   0  0  0  0  0  0  0  0  0  0  0  0
    7.7882    4.9379   21.1870 H   0  0  0  0  0  0  0  0  0  0  0  0
    5.4286    0.6810   20.1494 C   0  0  0  0  0  0  0  0  0  0  0  0
    4.9912    0.7013   21.1508 H   0  0  0  0  0  0  0  0  0  0  0  0
    4.7991    1.3132   19.0780 C   0  0  0  0  0  0  0  0  0  0  0  0
    3.8591    1.8381   19.2074 H   0  0  0  0  0  0  0  0  0  0  0  0
  1  2  1  0
  2  3  2  0
  3  4  1  0
  4  5  1  0
  4  6  2  0
  6  7  1  0
  7  8  1  0
  8  9  1  0
  9 10  1  0
 10 11  2  0
 10 12  1  0
 12 13  1  0
 13 14  1  0
 13 15  1  0
 15 16  1  0
 15 17  1  0
 15 18  1  0
 18 19  1  0
 18 20  1  0
 18 21  1  0
 21 22  1  0
 21 23  1  0
  6 24  1  0
 24 25  1  0
 24 26  2  0
 26 27  1  0
 26  2  1  0
 12  7  2  0
M  END
>  <plip>  (1) 
-0.03571428571428571

>  <filename>  (1) 
[H][c]1[n][c]([H])[c](-[c]2[s][s][c](=[S])[c]2[N]([H])[C]([H])([H])[C]([H])([H])[N]([H])[H])[c]([H])[c]1[H]

$$$$
