
     RDKit          3D

 32 33  0  0  0  0  0  0  0  0999 V2000
    4.9373    1.7987   16.9879 H   0  0  0  0  0  0  0  0  0  0  0  0
    5.4143    1.2974   17.8268 C   0  0  0  0  0  0  0  0  0  0  0  0
    6.5814    0.6838   17.5663 N   0  0  0  0  0  0  0  0  0  0  0  0
    7.2051    0.0715   18.5816 C   0  0  0  0  0  0  0  0  0  0  0  0
    8.1330   -0.4410   18.3285 H   0  0  0  0  0  0  0  0  0  0  0  0
    6.7033    0.0172   19.9048 C   0  0  0  0  0  0  0  0  0  0  0  0
    7.3420   -0.6965   20.9366 N   0  0  0  0  0  0  0  0  0  0  0  0
    8.7434   -0.6115   21.0756 N   0  0  0  0  0  0  0  0  0  0  0  0
    9.0393    0.2213   20.5506 H   0  0  0  0  0  0  0  0  0  0  0  0
    8.9834   -0.2387   22.4357 O   0  0  0  0  0  0  0  0  0  0  0  0
   10.2874   -0.2699   22.8757 C   0  0  0  0  0  0  0  0  0  0  0  0
   10.4550    0.1123   24.2154 C   0  0  0  0  0  0  0  0  0  0  0  0
    9.5676    0.2983   24.8130 H   0  0  0  0  0  0  0  0  0  0  0  0
   11.7400    0.2343   24.7328 C   0  0  0  0  0  0  0  0  0  0  0  0
   11.8579    0.4615   25.7891 H   0  0  0  0  0  0  0  0  0  0  0  0
   12.8572    0.0034   23.9191 C   0  0  0  0  0  0  0  0  0  0  0  0
   13.8594    0.1986   24.2911 H   0  0  0  0  0  0  0  0  0  0  0  0
   12.7005   -0.5365   22.6318 C   0  0  0  0  0  0  0  0  0  0  0  0
   13.9029   -1.0341   21.8491 C   0  0  0  0  0  0  0  0  0  0  0  0
   13.6039   -1.7851   21.1093 H   0  0  0  0  0  0  0  0  0  0  0  0
   14.4253   -0.2250   21.3230 H   0  0  0  0  0  0  0  0  0  0  0  0
   14.6341   -1.5168   22.5095 H   0  0  0  0  0  0  0  0  0  0  0  0
   11.4001   -0.6416   22.1043 C   0  0  0  0  0  0  0  0  0  0  0  0
   11.2528   -1.0495   21.1108 H   0  0  0  0  0  0  0  0  0  0  0  0
    6.6615   -1.6968   21.7257 C   0  0  0  0  0  0  0  0  0  0  0  0
    6.0557   -2.3430   21.0785 H   0  0  0  0  0  0  0  0  0  0  0  0
    7.4098   -2.3060   22.2434 H   0  0  0  0  0  0  0  0  0  0  0  0
    6.0283   -1.2238   22.4843 H   0  0  0  0  0  0  0  0  0  0  0  0
    5.4734    0.6560   20.1475 C   0  0  0  0  0  0  0  0  0  0  0  0
    5.0487    0.6230   21.1509 H   0  0  0  0  0  0  0  0  0  0  0  0
    4.8263    1.3084   19.0955 C   0  0  0  0  0  0  0  0  0  0  0  0
    3.8825    1.8249   19.2475 H   0  0  0  0  0  0  0  0  0  0  0  0
  1  2  1  0
  2  3  2  0
  3  4  1  0
  4  5  1  0
  4  6  2  0
  6  7  1  0
  7  8  1  0
  8  9  1  0
  8 10  1  0
 10 11  1  0
 11 12  2  0
 12 13  1  0
 12 14  1  0
 14 15  1  0
 14 16  2  0
 16 17  1  0
 16 18  1  0
 18 19  1  0
 19 20  1  0
 19 21  1  0
 19 22  1  0
 18 23  2  0
 23 24  1  0
  7 25  1  0
 25 26  1  0
 25 27  1  0
 25 28  1  0
  6 29  1  0
 29 30  1  0
 29 31  2  0
 31 32  1  0
 31  2  1  0
 23 11  1  0
M  END
>  <plip>  (1) 
-0.10344827586206896

>  <filename>  (1) 
[H][c]1[n][c]([H])[c]([N]([N]([H])[O][c]2[c]([H])[c]([H])[c]([H])[c]([C]([H])([H])[H])[c]2[H])[C]([H])([H])[H])[c]([H])[c]1[H]

$$$$
