
     RDKit          3D

 34 36  0  0  0  0  0  0  0  0999 V2000
    5.1166    1.7703   16.9957 H   0  0  0  0  0  0  0  0  0  0  0  0
    5.5239    1.1669   17.8079 C   0  0  0  0  0  0  0  0  0  0  0  0
    6.6151    0.4384   17.5289 N   0  0  0  0  0  0  0  0  0  0  0  0
    7.1640   -0.2639   18.5309 C   0  0  0  0  0  0  0  0  0  0  0  0
    8.0452   -0.8474   18.2688 H   0  0  0  0  0  0  0  0  0  0  0  0
    6.6796   -0.2650   19.8495 C   0  0  0  0  0  0  0  0  0  0  0  0
    7.4421   -0.9433   20.9375 C   0  0  0  0  0  0  0  0  0  0  0  0
    7.4461   -2.3625   20.8900 O   0  0  0  0  0  0  0  0  0  0  0  0
    6.3373   -2.9636   21.3435 C   0  0  0  0  0  0  0  0  0  0  0  0
    5.2777   -2.4425   21.5806 O   0  0  0  0  0  0  0  0  0  0  0  0
    6.6007   -4.2715   21.4813 O   0  0  0  0  0  0  0  0  0  0  0  0
    5.5131   -5.0877   21.9729 C   0  0  0  0  0  0  0  0  0  0  0  0
    4.5834   -4.8352   21.4586 H   0  0  0  0  0  0  0  0  0  0  0  0
    5.8033   -6.1000   21.6826 H   0  0  0  0  0  0  0  0  0  0  0  0
    5.2987   -5.0204   23.4777 C   0  0  0  0  0  0  0  0  0  0  0  0
    4.0946   -4.5510   24.0252 C   0  0  0  0  0  0  0  0  0  0  0  0
    3.3405   -4.0884   23.3992 H   0  0  0  0  0  0  0  0  0  0  0  0
    3.8759   -4.6599   25.4043 C   0  0  0  0  0  0  0  0  0  0  0  0
    2.9229   -4.3624   25.8347 H   0  0  0  0  0  0  0  0  0  0  0  0
    4.7843   -5.1471   26.2567 N   0  0  0  0  0  0  0  0  0  0  0  0
    5.9564   -5.5421   25.7438 C   0  0  0  0  0  0  0  0  0  0  0  0
    6.6895   -5.9206   26.4514 H   0  0  0  0  0  0  0  0  0  0  0  0
    6.2612   -5.5038   24.3787 C   0  0  0  0  0  0  0  0  0  0  0  0
    7.2328   -5.8583   24.0461 H   0  0  0  0  0  0  0  0  0  0  0  0
    7.5626   -0.3599   22.3111 C   0  0  0  0  0  0  0  0  0  0  0  0
    7.5638   -1.0723   23.1312 H   0  0  0  0  0  0  0  0  0  0  0  0
    7.0744    0.5909   22.5236 H   0  0  0  0  0  0  0  0  0  0  0  0
    8.7545   -0.3829   21.3888 C   0  0  0  0  0  0  0  0  0  0  0  0
    9.5486   -1.0978   21.5935 H   0  0  0  0  0  0  0  0  0  0  0  0
    9.0745    0.5641   20.9626 H   0  0  0  0  0  0  0  0  0  0  0  0
    5.4878    0.4312   20.0939 C   0  0  0  0  0  0  0  0  0  0  0  0
    5.0177    0.3699   21.0765 H   0  0  0  0  0  0  0  0  0  0  0  0
    4.9129    1.1714   19.0643 C   0  0  0  0  0  0  0  0  0  0  0  0
    4.0174    1.7574   19.2254 H   0  0  0  0  0  0  0  0  0  0  0  0
  1  2  1  0
  2  3  2  0
  3  4  1  0
  4  5  1  0
  4  6  2  0
  6  7  1  0
  7  8  1  0
  8  9  1  0
  9 10  2  0
  9 11  1  0
 11 12  1  0
 12 13  1  0
 12 14  1  0
 12 15  1  0
 15 16  2  0
 16 17  1  0
 16 18  1  0
 18 19  1  0
 18 20  2  0
 20 21  1  0
 21 22  1  0
 21 23  2  0
 23 24  1  0
  7 25  1  0
 25 26  1  0
 25 27  1  0
 25 28  1  0
 28 29  1  0
 28 30  1  0
  6 31  1  0
 31 32  1  0
 31 33  2  0
 33 34  1  0
 33  2  1  0
 28  7  1  0
 23 15  1  0
M  END
>  <plip>  (1) 
-0.06896551724137931

>  <filename>  (1) 
[H][c]1[n][c]([H])[c]([C]2([O][C](=[O])[O][C]([H])([H])[c]3[c]([H])[c]([H])[n][c]([H])[c]3[H])[C]([H])([H])[C]2([H])[H])[c]([H])[c]1[H]

$$$$
