
     RDKit          3D

 43 45  0  0  0  0  0  0  0  0999 V2000
    9.4579    1.1673   21.0964 O   0  0  0  0  0  0  0  0  0  0  0  0
    8.6758    1.1398   22.0318 C   0  0  0  0  0  0  0  0  0  0  0  0
    8.7262    2.1924   23.1400 C   0  0  0  0  0  0  0  0  0  0  0  0
    8.3991    3.6476   22.6472 C   0  0  0  0  0  0  0  0  0  0  0  0
    6.9513    3.7772   22.1161 C   0  0  0  0  0  0  0  0  0  0  0  0
    5.9427    3.7853   23.2519 C   0  0  0  0  0  0  0  0  0  0  0  0
    4.6547    3.2601   23.1168 C   0  0  0  0  0  0  0  0  0  0  0  0
    3.7297    3.3398   24.1636 C   0  0  0  0  0  0  0  0  0  0  0  0
    4.0977    3.9584   25.3675 C   0  0  0  0  0  0  0  0  0  0  0  0
    5.3814    4.4860   25.5255 C   0  0  0  0  0  0  0  0  0  0  0  0
    6.2983    4.3897   24.4756 C   0  0  0  0  0  0  0  0  0  0  0  0
    7.5971    4.8935   24.6137 N   0  0  0  0  0  0  0  0  0  0  0  0
    8.6448    4.6760   23.7644 C   0  0  0  0  0  0  0  0  0  0  0  0
    9.6907    5.2578   23.9761 O   0  0  0  0  0  0  0  0  0  0  0  0
    7.8902    5.4928   25.3669 H   0  0  0  0  0  0  0  0  0  0  0  0
    5.6817    4.9776   26.4478 H   0  0  0  0  0  0  0  0  0  0  0  0
    3.3807    4.0376   26.1805 H   0  0  0  0  0  0  0  0  0  0  0  0
    2.7284    2.9410   24.0354 H   0  0  0  0  0  0  0  0  0  0  0  0
    4.3881    2.7954   22.1669 H   0  0  0  0  0  0  0  0  0  0  0  0
    6.7208    2.9649   21.4125 H   0  0  0  0  0  0  0  0  0  0  0  0
    6.8557    4.7088   21.5360 H   0  0  0  0  0  0  0  0  0  0  0  0
    9.1196    3.9163   21.8749 H   0  0  0  0  0  0  0  0  0  0  0  0
    9.7612    2.1812   23.4986 H   0  0  0  0  0  0  0  0  0  0  0  0
    8.0802    1.9191   23.9846 H   0  0  0  0  0  0  0  0  0  0  0  0
    7.7348    0.1489   22.1685 N   0  0  0  0  0  0  0  0  0  0  0  0
    7.4179   -0.7048   21.0179 C   0  0  0  0  0  0  0  0  0  0  0  0
    6.6487   -1.9630   21.4802 C   0  0  0  0  0  0  0  0  0  0  0  0
    6.4126   -2.9215   20.4618 O   0  0  0  0  0  0  0  0  0  0  0  0
    7.2598   -3.2868   20.1628 H   0  0  0  0  0  0  0  0  0  0  0  0
    7.1802   -2.3937   22.3407 H   0  0  0  0  0  0  0  0  0  0  0  0
    5.6540   -1.6532   21.8176 H   0  0  0  0  0  0  0  0  0  0  0  0
    6.6824    0.0582   19.9226 C   0  0  0  0  0  0  0  0  0  0  0  0
    5.4501    0.6855   20.1542 C   0  0  0  0  0  0  0  0  0  0  0  0
    4.8024    1.3242   19.0955 C   0  0  0  0  0  0  0  0  0  0  0  0
    5.3958    1.2964   17.8291 C   0  0  0  0  0  0  0  0  0  0  0  0
    6.5588    0.6818   17.5732 N   0  0  0  0  0  0  0  0  0  0  0  0
    7.1748    0.0914   18.6108 C   0  0  0  0  0  0  0  0  0  0  0  0
    8.1165   -0.4083   18.3727 H   0  0  0  0  0  0  0  0  0  0  0  0
    4.9225    1.7920   16.9826 H   0  0  0  0  0  0  0  0  0  0  0  0
    3.8605    1.8410   19.2327 H   0  0  0  0  0  0  0  0  0  0  0  0
    4.9941    0.6503   21.1476 H   0  0  0  0  0  0  0  0  0  0  0  0
    8.3838   -1.0308   20.6078 H   0  0  0  0  0  0  0  0  0  0  0  0
    7.0239    0.3252   22.8665 H   0  0  0  0  0  0  0  0  0  0  0  0
  1  2  2  0
  2  3  1  0
  3  4  1  0
  4  5  1  0
  5  6  1  0
  6  7  2  0
  7  8  1  0
  8  9  2  0
  9 10  1  0
 10 11  2  0
 11 12  1  0
 12 13  1  0
 13 14  2  0
 12 15  1  0
 10 16  1  0
  9 17  1  0
  8 18  1  0
  7 19  1  0
  5 20  1  0
  5 21  1  0
  4 22  1  0
  3 23  1  0
  3 24  1  0
  2 25  1  0
 25 26  1  0
 26 27  1  0
 27 28  1  0
 28 29  1  0
 27 30  1  0
 27 31  1  0
 26 32  1  0
 32 33  2  0
 33 34  1  0
 34 35  2  0
 35 36  1  0
 36 37  2  0
 37 38  1  0
 35 39  1  0
 34 40  1  0
 33 41  1  0
 26 42  1  0
 25 43  1  0
 13  4  1  0
 37 32  1  0
 11  6  1  0
M  END
>  <plip>  (1) 
-0.10714285714285714

>  <filename>  (1) 
[H][O][C]([H])([H])[C]([H])([c]1[c]([H])[n][c]([H])[c]([H])[c]1[H])[N]([H])[C](=[O])[C]([H])([H])[C]1([H])[C](=[O])[N]([H])[c]2[c]([H])[c]([H])[c]([H])[c]([H])[c]2[C]1([H])[H]

$$$$
