
     RDKit          3D

 25 27  0  0  0  0  0  0  0  0999 V2000
    8.6782   -3.2001   22.2233 H   0  0  0  0  0  0  0  0  0  0  0  0
    8.2820   -2.2148   22.0160 C   0  0  0  0  0  0  0  0  0  0  0  0
    7.8167   -1.8582   20.7918 N   0  0  0  0  0  0  0  0  0  0  0  0
    7.3876   -0.6362   20.9701 C   0  0  0  0  0  0  0  0  0  0  0  0
    6.6416    0.0737   19.9388 C   0  0  0  0  0  0  0  0  0  0  0  0
    7.1579    0.0631   18.6378 C   0  0  0  0  0  0  0  0  0  0  0  0
    8.0969   -0.4462   18.4150 H   0  0  0  0  0  0  0  0  0  0  0  0
    6.5629    0.6635   17.6052 N   0  0  0  0  0  0  0  0  0  0  0  0
    5.3957    1.2892   17.8304 C   0  0  0  0  0  0  0  0  0  0  0  0
    4.9500    1.7945   16.9760 H   0  0  0  0  0  0  0  0  0  0  0  0
    4.7713    1.3070   19.0801 C   0  0  0  0  0  0  0  0  0  0  0  0
    3.8464    1.8490   19.2195 H   0  0  0  0  0  0  0  0  0  0  0  0
    5.3911    0.6701   20.1515 C   0  0  0  0  0  0  0  0  0  0  0  0
    4.9363    0.6598   21.1411 H   0  0  0  0  0  0  0  0  0  0  0  0
    7.6355   -0.2416   22.2542 N   0  0  0  0  0  0  0  0  0  0  0  0
    7.4505    1.0444   22.7883 C   0  0  0  0  0  0  0  0  0  0  0  0
    7.3539    2.0505   21.9198 N   0  0  0  0  0  0  0  0  0  0  0  0
    7.1873    3.2679   22.4421 C   0  0  0  0  0  0  0  0  0  0  0  0
    7.0845    4.0899   21.7323 H   0  0  0  0  0  0  0  0  0  0  0  0
    7.1373    3.4883   23.8130 C   0  0  0  0  0  0  0  0  0  0  0  0
    7.0188    4.4736   24.2343 H   0  0  0  0  0  0  0  0  0  0  0  0
    7.2529    2.3548   24.6155 C   0  0  0  0  0  0  0  0  0  0  0  0
    7.2430    2.4043   25.7058 H   0  0  0  0  0  0  0  0  0  0  0  0
    7.3970    1.1391   24.1178 N   0  0  0  0  0  0  0  0  0  0  0  0
    8.2075   -1.2900   22.9408 N   0  0  0  0  0  0  0  0  0  0  0  0
  1  2  1  0
  2  3  1  0
  3  4  2  0
  4  5  1  0
  5  6  2  0
  6  7  1  0
  6  8  1  0
  8  9  2  0
  9 10  1  0
  9 11  1  0
 11 12  1  0
 11 13  2  0
 13 14  1  0
  4 15  1  0
 15 16  1  0
 16 17  2  0
 17 18  1  0
 18 19  1  0
 18 20  2  0
 20 21  1  0
 20 22  1  0
 22 23  1  0
 22 24  2  0
 15 25  1  0
 25  2  2  0
 13  5  1  0
 24 16  1  0
M  END
>  <plip>  (1) 
-0.0

>  <filename>  (1) 
[H][c]1[n][c](-[c]2[c]([H])[n][c]([H])[c]([H])[c]2[H])[n](-[c]2[n][c]([H])[c]([H])[c]([H])[n]2)[n]1

$$$$
