
     RDKit          3D

 37 39  0  0  0  0  0  0  0  0999 V2000
    8.4745    2.1603   21.1780 C   0  0  0  0  0  0  0  0  0  0  0  0
    9.3688    1.0771   21.7642 C   0  0  0  0  0  0  0  0  0  0  0  0
    9.3011    1.1481   23.3029 C   0  0  0  0  0  0  0  0  0  0  0  0
   10.6341    0.3035   24.2044 S   0  0  0  0  0  0  0  0  0  0  0  0
    9.9632   -1.3391   24.1546 C   0  0  0  0  0  0  0  0  0  0  0  0
    9.5600   -1.9281   25.3659 C   0  0  0  0  0  0  0  0  0  0  0  0
    9.0592   -3.2288   25.3889 C   0  0  0  0  0  0  0  0  0  0  0  0
    8.9238   -3.9322   24.1899 C   0  0  0  0  0  0  0  0  0  0  0  0
    9.2618   -3.3189   22.9800 C   0  0  0  0  0  0  0  0  0  0  0  0
    9.7851   -2.0115   22.9268 C   0  0  0  0  0  0  0  0  0  0  0  0
   10.0589   -1.3272   21.5844 C   0  0  0  0  0  0  0  0  0  0  0  0
    9.1063   -0.2523   21.1765 N   0  0  0  0  0  0  0  0  0  0  0  0
    7.5180   -0.8190   21.1990 S   0  0  0  0  0  0  0  0  0  0  0  0
    6.9243   -0.5302   22.4907 O   0  0  0  0  0  0  0  0  0  0  0  0
    7.5849   -2.1632   20.6574 O   0  0  0  0  0  0  0  0  0  0  0  0
    6.6942    0.1021   20.0040 C   0  0  0  0  0  0  0  0  0  0  0  0
    5.4581    0.7079   20.2264 C   0  0  0  0  0  0  0  0  0  0  0  0
    4.8531    1.2964   19.1218 C   0  0  0  0  0  0  0  0  0  0  0  0
    5.4999    1.2389   17.8830 C   0  0  0  0  0  0  0  0  0  0  0  0
    6.6655    0.5988   17.6943 N   0  0  0  0  0  0  0  0  0  0  0  0
    7.2523    0.0184   18.7410 C   0  0  0  0  0  0  0  0  0  0  0  0
    8.1815   -0.5197   18.5443 H   0  0  0  0  0  0  0  0  0  0  0  0
    5.0524    1.7168   17.0089 H   0  0  0  0  0  0  0  0  0  0  0  0
    3.9029    1.8063   19.2175 H   0  0  0  0  0  0  0  0  0  0  0  0
    4.9980    0.7029   21.2174 H   0  0  0  0  0  0  0  0  0  0  0  0
   11.0689   -0.8930   21.5651 H   0  0  0  0  0  0  0  0  0  0  0  0
   10.0307   -2.0765   20.7921 H   0  0  0  0  0  0  0  0  0  0  0  0
    9.0570   -3.8397   22.0512 H   0  0  0  0  0  0  0  0  0  0  0  0
    8.5278   -4.9445   24.1947 H   0  0  0  0  0  0  0  0  0  0  0  0
    8.7471   -3.6737   26.3320 H   0  0  0  0  0  0  0  0  0  0  0  0
    9.6410   -1.3477   26.2841 H   0  0  0  0  0  0  0  0  0  0  0  0
    8.3401    0.7560   23.6440 H   0  0  0  0  0  0  0  0  0  0  0  0
    9.3748    2.1966   23.6031 H   0  0  0  0  0  0  0  0  0  0  0  0
   10.4047    1.3088   21.4657 H   0  0  0  0  0  0  0  0  0  0  0  0
    7.4773    2.1363   21.6336 H   0  0  0  0  0  0  0  0  0  0  0  0
    8.9047    3.1423   21.3920 H   0  0  0  0  0  0  0  0  0  0  0  0
    8.3694    2.0615   20.0986 H   0  0  0  0  0  0  0  0  0  0  0  0
  1  2  1  0
  2  3  1  0
  3  4  1  0
  4  5  1  0
  5  6  2  0
  6  7  1  0
  7  8  2  0
  8  9  1  0
  9 10  2  0
 10 11  1  0
 11 12  1  0
 12 13  1  0
 13 14  2  0
 13 15  2  0
 13 16  1  0
 16 17  2  0
 17 18  1  0
 18 19  2  0
 19 20  1  0
 20 21  2  0
 21 22  1  0
 19 23  1  0
 18 24  1  0
 17 25  1  0
 11 26  1  0
 11 27  1  0
  9 28  1  0
  8 29  1  0
  7 30  1  0
  6 31  1  0
  3 32  1  0
  3 33  1  0
  2 34  1  0
  1 35  1  0
  1 36  1  0
  1 37  1  0
 12  2  1  0
 21 16  1  0
 10  5  1  0
M  END
>  <plip>  (1) 
-0.034482758620689655

>  <filename>  (1) 
[H][c]1[n][c]([H])[c]([S](=[O])(=[O])[N]2[C]([H])([H])[c]3[c]([H])[c]([H])[c]([H])[c]([H])[c]3[S][C]([H])([H])[C]2([H])[C]([H])([H])[H])[c]([H])[c]1[H]

$$$$
