
     RDKit          3D

 52 54  0  0  0  0  0  0  0  0999 V2000
    9.1397    0.2679   24.0933 C   0  0  0  0  0  0  0  0  0  0  0  0
    8.6082   -0.4943   23.0216 O   0  0  0  0  0  0  0  0  0  0  0  0
    7.9643    0.2492   22.0317 C   0  0  0  0  0  0  0  0  0  0  0  0
    8.8892    1.1051   21.4056 O   0  0  0  0  0  0  0  0  0  0  0  0
    8.4686    2.4435   21.2543 C   0  0  0  0  0  0  0  0  0  0  0  0
    9.2534    2.9393   20.6850 H   0  0  0  0  0  0  0  0  0  0  0  0
    7.5193    2.5095   20.7031 H   0  0  0  0  0  0  0  0  0  0  0  0
    8.3577    2.9645   22.2190 H   0  0  0  0  0  0  0  0  0  0  0  0
    7.3877   -0.7352   20.9736 C   0  0  0  0  0  0  0  0  0  0  0  0
    6.4940   -1.7033   21.5982 N   0  0  0  0  0  0  0  0  0  0  0  0
    5.7873   -2.6313   20.9101 C   0  0  0  0  0  0  0  0  0  0  0  0
    5.6731   -2.6766   19.6999 O   0  0  0  0  0  0  0  0  0  0  0  0
    5.0197   -3.6458   21.7690 C   0  0  0  0  0  0  0  0  0  0  0  0
    5.5226   -3.7268   23.0934 O   0  0  0  0  0  0  0  0  0  0  0  0
    5.0063   -4.6116   23.9875 C   0  0  0  0  0  0  0  0  0  0  0  0
    3.7065   -5.1365   23.9258 C   0  0  0  0  0  0  0  0  0  0  0  0
    3.2576   -5.9612   24.9524 C   0  0  0  0  0  0  0  0  0  0  0  0
    4.0982   -6.2793   26.0348 C   0  0  0  0  0  0  0  0  0  0  0  0
    3.5510   -7.0708   27.1854 C   0  0  0  0  0  0  0  0  0  0  0  0
    2.3831   -7.4010   27.2440 O   0  0  0  0  0  0  0  0  0  0  0  0
    4.5128   -7.4643   28.2999 C   0  0  0  0  0  0  0  0  0  0  0  0
    5.6982   -6.5096   28.4817 C   0  0  0  0  0  0  0  0  0  0  0  0
    6.3909   -6.1940   27.1528 C   0  0  0  0  0  0  0  0  0  0  0  0
    5.4241   -5.7899   26.0617 C   0  0  0  0  0  0  0  0  0  0  0  0
    5.8537   -4.9419   25.0470 C   0  0  0  0  0  0  0  0  0  0  0  0
    6.8521   -4.5122   25.0722 H   0  0  0  0  0  0  0  0  0  0  0  0
    7.1591   -5.4216   27.2861 H   0  0  0  0  0  0  0  0  0  0  0  0
    6.9314   -7.0604   26.7728 H   0  0  0  0  0  0  0  0  0  0  0  0
    6.4232   -6.9263   29.1939 H   0  0  0  0  0  0  0  0  0  0  0  0
    5.3491   -5.5576   28.8987 H   0  0  0  0  0  0  0  0  0  0  0  0
    3.9189   -7.5574   29.2132 H   0  0  0  0  0  0  0  0  0  0  0  0
    4.8747   -8.4710   28.0595 H   0  0  0  0  0  0  0  0  0  0  0  0
    2.2421   -6.3523   24.9376 H   0  0  0  0  0  0  0  0  0  0  0  0
    3.0498   -4.8682   23.1087 H   0  0  0  0  0  0  0  0  0  0  0  0
    5.0745   -4.6092   21.2561 H   0  0  0  0  0  0  0  0  0  0  0  0
    3.9718   -3.3311   21.7712 H   0  0  0  0  0  0  0  0  0  0  0  0
    6.5985   -1.8896   22.5881 H   0  0  0  0  0  0  0  0  0  0  0  0
    6.6730   -0.0053   19.8541 C   0  0  0  0  0  0  0  0  0  0  0  0
    5.4748    0.6896   20.0622 C   0  0  0  0  0  0  0  0  0  0  0  0
    4.9111    1.3805   18.9886 C   0  0  0  0  0  0  0  0  0  0  0  0
    5.5495    1.3294   17.7434 C   0  0  0  0  0  0  0  0  0  0  0  0
    6.6905    0.6636   17.5220 N   0  0  0  0  0  0  0  0  0  0  0  0
    7.2281    0.0229   18.5719 C   0  0  0  0  0  0  0  0  0  0  0  0
    8.1681   -0.4974   18.3773 H   0  0  0  0  0  0  0  0  0  0  0  0
    5.1277    1.8545   16.8891 H   0  0  0  0  0  0  0  0  0  0  0  0
    4.0029    1.9574   19.1066 H   0  0  0  0  0  0  0  0  0  0  0  0
    4.9942    0.6841   21.0445 H   0  0  0  0  0  0  0  0  0  0  0  0
    8.2859   -1.2296   20.5707 H   0  0  0  0  0  0  0  0  0  0  0  0
    7.1354    0.8358   22.4769 H   0  0  0  0  0  0  0  0  0  0  0  0
    9.9114    0.9701   23.7476 H   0  0  0  0  0  0  0  0  0  0  0  0
    9.5869   -0.4511   24.7856 H   0  0  0  0  0  0  0  0  0  0  0  0
    8.3553    0.8313   24.6257 H   0  0  0  0  0  0  0  0  0  0  0  0
  1  2  1  0
  2  3  1  0
  3  4  1  0
  4  5  1  0
  5  6  1  0
  5  7  1  0
  5  8  1  0
  3  9  1  0
  9 10  1  0
 10 11  1  0
 11 12  2  0
 11 13  1  0
 13 14  1  0
 14 15  1  0
 15 16  2  0
 16 17  1  0
 17 18  2  0
 18 19  1  0
 19 20  2  0
 19 21  1  0
 21 22  1  0
 22 23  1  0
 23 24  1  0
 24 25  2  0
 25 26  1  0
 23 27  1  0
 23 28  1  0
 22 29  1  0
 22 30  1  0
 21 31  1  0
 21 32  1  0
 17 33  1  0
 16 34  1  0
 13 35  1  0
 13 36  1  0
 10 37  1  0
  9 38  1  0
 38 39  2  0
 39 40  1  0
 40 41  2  0
 41 42  1  0
 42 43  2  0
 43 44  1  0
 41 45  1  0
 40 46  1  0
 39 47  1  0
  9 48  1  0
  3 49  1  0
  1 50  1  0
  1 51  1  0
  1 52  1  0
 25 15  1  0
 43 38  1  0
 24 18  1  0
M  END
>  <plip>  (1) 
-0.21428571428571427

>  <filename>  (1) 
[H][c]1[n][c]([H])[c]([C]([H])([N]([H])[C](=[O])[C]([H])([H])[O][c]2[c]([H])[c]([H])[c]3[c]([c]2[H])[C]([H])([H])[C]([H])([H])[C]([H])([H])[C]3=[O])[C]([H])([O][C]([H])([H])[H])[O][C]([H])([H])[H])[c]([H])[c]1[H]

$$$$
