
     RDKit          3D

 31 33  0  0  0  0  0  0  0  0999 V2000
    4.9576    1.8004   16.9871 H   0  0  0  0  0  0  0  0  0  0  0  0
    5.4086    1.2858   17.8318 C   0  0  0  0  0  0  0  0  0  0  0  0
    6.5645    0.6513   17.5795 N   0  0  0  0  0  0  0  0  0  0  0  0
    7.1628    0.0366   18.6010 C   0  0  0  0  0  0  0  0  0  0  0  0
    8.1025   -0.4655   18.3724 H   0  0  0  0  0  0  0  0  0  0  0  0
    6.6486    0.0217   19.9103 C   0  0  0  0  0  0  0  0  0  0  0  0
    7.4223   -0.6784   20.9442 C   0  0  0  0  0  0  0  0  0  0  0  0
    8.3288   -1.6049   20.7284 N   0  0  0  0  0  0  0  0  0  0  0  0
    8.8373   -2.0395   21.9317 N   0  0  0  0  0  0  0  0  0  0  0  0
    8.2299   -1.3378   22.8520 C   0  0  0  0  0  0  0  0  0  0  0  0
    8.2514   -1.1302   24.5738 S   0  0  0  0  0  0  0  0  0  0  0  0
    7.0289    0.1448   24.3560 C   0  0  0  0  0  0  0  0  0  0  0  0
    6.5375    0.9324   25.5050 C   0  0  0  0  0  0  0  0  0  0  0  0
    7.1061    0.6371   26.6226 N   0  0  0  0  0  0  0  0  0  0  0  0
    6.8024    1.3594   27.7268 N   0  0  0  0  0  0  0  0  0  0  0  0
    5.9802    1.9398   27.8054 H   0  0  0  0  0  0  0  0  0  0  0  0
    7.3628    1.1631   28.9627 C   0  0  0  0  0  0  0  0  0  0  0  0
    6.7008    1.9185   30.2774 S   0  0  0  0  0  0  0  0  0  0  0  0
    8.4404    0.3816   28.9975 N   0  0  0  0  0  0  0  0  0  0  0  0
    8.7298    0.0796   29.9108 H   0  0  0  0  0  0  0  0  0  0  0  0
    8.5801   -0.2253   28.2051 H   0  0  0  0  0  0  0  0  0  0  0  0
    5.5011    2.0138   25.3234 C   0  0  0  0  0  0  0  0  0  0  0  0
    5.2107    2.0820   24.2745 H   0  0  0  0  0  0  0  0  0  0  0  0
    5.8975    2.9838   25.6489 H   0  0  0  0  0  0  0  0  0  0  0  0
    4.6126    1.8069   25.9323 H   0  0  0  0  0  0  0  0  0  0  0  0
    6.6471    0.3628   23.1350 N   0  0  0  0  0  0  0  0  0  0  0  0
    7.3228   -0.4765   22.3049 N   0  0  0  0  0  0  0  0  0  0  0  0
    5.4269    0.6692   20.1573 C   0  0  0  0  0  0  0  0  0  0  0  0
    4.9890    0.6767   21.1569 H   0  0  0  0  0  0  0  0  0  0  0  0
    4.7988    1.3090   19.0907 C   0  0  0  0  0  0  0  0  0  0  0  0
    3.8621    1.8434   19.2173 H   0  0  0  0  0  0  0  0  0  0  0  0
  1  2  1  0
  2  3  2  0
  3  4  1  0
  4  5  1  0
  4  6  2  0
  6  7  1  0
  7  8  2  0
  8  9  1  0
  9 10  2  0
 10 11  1  0
 11 12  1  0
 12 13  1  0
 13 14  2  3
 14 15  1  0
 15 16  1  0
 15 17  1  0
 17 18  2  0
 17 19  1  0
 19 20  1  0
 19 21  1  0
 13 22  1  0
 22 23  1  0
 22 24  1  0
 22 25  1  0
 12 26  2  0
 26 27  1  0
  6 28  1  0
 28 29  1  0
 28 30  2  0
 30 31  1  0
 30  2  1  0
 27  7  1  0
 27 10  1  0
M  END
>  <plip>  (1) 
-0.03333333333333333

>  <filename>  (1) 
[H][c]1[n][c]([H])[c](-[c]2[n][n][c]3[s][c]([C](=[N][N]([H])[C](=[S])[N]([H])[H])[C]([H])([H])[H])[n][n]23)[c]([H])[c]1[H]

$$$$
