
     RDKit          3D

 31 33  0  0  0  0  0  0  0  0999 V2000
    3.3862   -4.2474   22.5141 H   0  0  0  0  0  0  0  0  0  0  0  0
    4.3698   -3.8634   22.7721 C   0  0  0  0  0  0  0  0  0  0  0  0
    5.0858   -3.3845   21.7466 N   0  0  0  0  0  0  0  0  0  0  0  0
    6.2839   -2.8718   22.0623 C   0  0  0  0  0  0  0  0  0  0  0  0
    7.1724   -2.3217   20.9400 C   0  0  2  0  0  0  0  0  0  0  0  0
    6.6640   -2.6175   20.0138 H   0  0  0  0  0  0  0  0  0  0  0  0
    8.5737   -2.7195   20.9525 N   0  0  0  0  0  0  0  0  0  0  0  0
    8.9849   -3.6163   20.7802 H   0  0  0  0  0  0  0  0  0  0  0  0
    9.4544   -1.6906   21.0459 C   0  0  0  0  0  0  0  0  0  0  0  0
   10.6362   -1.7867   21.2187 O   0  0  0  0  0  0  0  0  0  0  0  0
    8.7597   -0.5355   20.9212 O   0  0  0  0  0  0  0  0  0  0  0  0
    7.3516   -0.7646   21.0222 C   0  0  1  0  0  0  0  0  0  0  0  0
    7.0637   -0.3661   22.0062 H   0  0  0  0  0  0  0  0  0  0  0  0
    6.6435   -0.0015   19.9277 C   0  0  0  0  0  0  0  0  0  0  0  0
    7.1789    0.0501   18.6296 C   0  0  0  0  0  0  0  0  0  0  0  0
    8.1364   -0.4230   18.4120 H   0  0  0  0  0  0  0  0  0  0  0  0
    6.5801    0.6600   17.5981 N   0  0  0  0  0  0  0  0  0  0  0  0
    5.4167    1.2852   17.8369 C   0  0  0  0  0  0  0  0  0  0  0  0
    4.9643    1.7968   16.9885 H   0  0  0  0  0  0  0  0  0  0  0  0
    4.8013    1.3083   19.0900 C   0  0  0  0  0  0  0  0  0  0  0  0
    3.8701    1.8460   19.2212 H   0  0  0  0  0  0  0  0  0  0  0  0
    5.4269    0.6565   20.1539 C   0  0  0  0  0  0  0  0  0  0  0  0
    4.9830    0.6600   21.1518 H   0  0  0  0  0  0  0  0  0  0  0  0
    6.7952   -2.8104   23.2869 N   0  0  0  0  0  0  0  0  0  0  0  0
    6.1344   -3.4109   24.2825 C   0  0  0  0  0  0  0  0  0  0  0  0
    6.8600   -3.5920   25.6511 C   0  0  0  0  0  0  0  0  0  0  0  0
    6.7721   -4.8780   26.0624 F   0  0  0  0  0  0  0  0  0  0  0  0
    8.1556   -3.2729   25.6094 F   0  0  0  0  0  0  0  0  0  0  0  0
    6.2813   -2.8469   26.6130 F   0  0  0  0  0  0  0  0  0  0  0  0
    4.8380   -3.8920   24.0834 C   0  0  0  0  0  0  0  0  0  0  0  0
    4.2292   -4.2607   24.8991 H   0  0  0  0  0  0  0  0  0  0  0  0
  1  2  1  0
  2  3  2  0
  3  4  1  0
  4  5  1  0
  5  6  1  6
  5  7  1  0
  7  8  1  0
  7  9  1  0
  9 10  2  0
  9 11  1  0
 11 12  1  0
 12 13  1  1
 12 14  1  0
 14 15  2  0
 15 16  1  0
 15 17  1  0
 17 18  2  0
 18 19  1  0
 18 20  1  0
 20 21  1  0
 20 22  2  0
 22 23  1  0
  4 24  2  0
 24 25  1  0
 25 26  1  0
 26 27  1  0
 26 28  1  0
 26 29  1  0
 25 30  2  0
 30 31  1  0
 30  2  1  0
 12  5  1  0
 22 14  1  0
M  END
>  <plip>  (1) 
-0.03333333333333333

>  <filename>  (1) 
[H][c]1[n][c]([C@]2([H])[N]([H])[C](=[O])[O][C@@]2([H])[c]2[c]([H])[n][c]([H])[c]([H])[c]2[H])[n][c]([C]([F])([F])[F])[c]1[H]

$$$$
