
     RDKit          3D

 33 35  0  0  0  0  0  0  0  0999 V2000
    4.9196    1.7919   16.9878 H   0  0  0  0  0  0  0  0  0  0  0  0
    5.3958    1.2955   17.8318 C   0  0  0  0  0  0  0  0  0  0  0  0
    6.5550    0.6755   17.5680 N   0  0  0  0  0  0  0  0  0  0  0  0
    7.1598    0.0542   18.5918 C   0  0  0  0  0  0  0  0  0  0  0  0
    8.1182   -0.4092   18.3649 H   0  0  0  0  0  0  0  0  0  0  0  0
    6.6466   -0.0173   19.9015 C   0  0  0  0  0  0  0  0  0  0  0  0
    7.4099   -0.7131   21.0107 C   0  0  0  0  0  0  0  0  0  0  0  0
    8.0666   -1.5024   20.6261 H   0  0  0  0  0  0  0  0  0  0  0  0
    6.7323   -1.1252   21.7699 H   0  0  0  0  0  0  0  0  0  0  0  0
    8.4849    0.5432   21.8129 S   0  0  0  0  0  4  0  0  0  0  0  0
    9.6184    0.7866   20.8611 O   0  0  0  0  0  0  0  0  0  0  0  0
    9.1556   -0.4593   23.1592 C   0  0  1  0  0  0  0  0  0  0  0  0
    9.7828   -1.2839   22.8282 H   0  0  0  0  0  0  0  0  0  0  0  0
    9.5553    0.3068   24.3925 C   0  0  0  0  0  0  0  0  0  0  0  0
    9.3933    1.3810   24.3909 H   0  0  0  0  0  0  0  0  0  0  0  0
   10.4505    0.0154   24.9394 H   0  0  0  0  0  0  0  0  0  0  0  0
    8.3652   -0.6185   24.4331 C   0  0  2  0  0  0  0  0  0  0  0  0
    7.3876   -0.1379   24.4243 H   0  0  0  0  0  0  0  0  0  0  0  0
    8.4090   -1.8991   25.2052 C   0  0  0  0  0  0  0  0  0  0  0  0
    7.2558   -2.3505   25.8643 C   0  0  0  0  0  0  0  0  0  0  0  0
    6.3397   -1.7641   25.7832 H   0  0  0  0  0  0  0  0  0  0  0  0
    7.2768   -3.5315   26.6117 C   0  0  0  0  0  0  0  0  0  0  0  0
    6.3708   -3.8692   27.1085 H   0  0  0  0  0  0  0  0  0  0  0  0
    8.4581   -4.2752   26.7151 C   0  0  0  0  0  0  0  0  0  0  0  0
    8.4814   -5.1962   27.2933 H   0  0  0  0  0  0  0  0  0  0  0  0
    9.6121   -3.8345   26.0606 C   0  0  0  0  0  0  0  0  0  0  0  0
   10.5406   -4.3932   26.1368 H   0  0  0  0  0  0  0  0  0  0  0  0
    9.5827   -2.6622   25.3050 C   0  0  0  0  0  0  0  0  0  0  0  0
   10.4900   -2.3212   24.8090 H   0  0  0  0  0  0  0  0  0  0  0  0
    5.4376    0.6438   20.1528 C   0  0  0  0  0  0  0  0  0  0  0  0
    5.0062    0.6394   21.1563 H   0  0  0  0  0  0  0  0  0  0  0  0
    4.8078    1.3128   19.1008 C   0  0  0  0  0  0  0  0  0  0  0  0
    3.8778    1.8437   19.2498 H   0  0  0  0  0  0  0  0  0  0  0  0
  1  2  1  0
  2  3  2  0
  3  4  1  0
  4  5  1  0
  4  6  2  0
  6  7  1  0
  7  8  1  0
  7  9  1  0
 10  7  1  1
 10 11  2  0
 10 12  1  0
 12 13  1  6
 12 14  1  0
 14 15  1  0
 14 16  1  0
 14 17  1  0
 17 18  1  6
 17 19  1  0
 19 20  2  0
 20 21  1  0
 20 22  1  0
 22 23  1  0
 22 24  2  0
 24 25  1  0
 24 26  1  0
 26 27  1  0
 26 28  2  0
 28 29  1  0
  6 30  1  0
 30 31  1  0
 30 32  2  0
 32 33  1  0
 32  2  1  0
 17 12  1  0
 28 19  1  0
M  END
>  <plip>  (1) 
-0.07142857142857142

>  <filename>  (1) 
[H][c]1[n][c]([H])[c]([C]([H])([H])[S@@](=[O])[C@@]2([H])[C]([H])([H])[C@]2([H])[c]2[c]([H])[c]([H])[c]([H])[c]([H])[c]2[H])[c]([H])[c]1[H]

$$$$
