
     RDKit          3D

 35 37  0  0  0  0  0  0  0  0999 V2000
    6.1110   -4.6467   28.4008 Br  0  0  0  0  0  0  0  0  0  0  0  0
    7.1273   -4.3700   26.8003 C   0  0  0  0  0  0  0  0  0  0  0  0
    8.4059   -4.9198   26.6815 C   0  0  0  0  0  0  0  0  0  0  0  0
    9.1445   -4.7262   25.5084 C   0  0  0  0  0  0  0  0  0  0  0  0
    8.6307   -3.9829   24.4397 C   0  0  0  0  0  0  0  0  0  0  0  0
    9.4159   -3.8364   23.3175 O   0  0  0  0  0  0  0  0  0  0  0  0
    8.9436   -2.9157   22.3043 C   0  0  0  0  0  0  0  0  0  0  0  0
    7.4231   -2.9835   22.1026 C   0  0  0  0  0  0  0  0  0  0  0  0
    6.9413   -2.1325   20.9660 N   0  0  0  0  0  4  0  0  0  0  0  0
    7.3831   -0.7360   20.9945 C   0  0  0  0  0  0  0  0  0  0  0  0
    6.6329   -0.0423   19.8982 C   0  0  0  0  0  0  0  0  0  0  0  0
    5.4348    0.6263   20.1652 C   0  0  0  0  0  0  0  0  0  0  0  0
    4.8260    1.2976   19.1057 C   0  0  0  0  0  0  0  0  0  0  0  0
    5.4083    1.2918   17.8333 C   0  0  0  0  0  0  0  0  0  0  0  0
    6.5694    0.6617   17.5875 N   0  0  0  0  0  0  0  0  0  0  0  0
    7.1677    0.0151   18.6011 C   0  0  0  0  0  0  0  0  0  0  0  0
    8.1296   -0.4502   18.4067 H   0  0  0  0  0  0  0  0  0  0  0  0
    4.8952    1.8035   17.0209 H   0  0  0  0  0  0  0  0  0  0  0  0
    3.8956    1.8328   19.2569 H   0  0  0  0  0  0  0  0  0  0  0  0
    5.0007    0.6418   21.1668 H   0  0  0  0  0  0  0  0  0  0  0  0
    8.4660   -0.6670   20.8280 H   0  0  0  0  0  0  0  0  0  0  0  0
    7.1553   -0.2705   21.9614 H   0  0  0  0  0  0  0  0  0  0  0  0
    7.2438   -2.5386   20.0774 H   0  0  0  0  0  0  0  0  0  0  0  0
    5.9206   -2.1157   20.9740 H   0  0  0  0  0  0  0  0  0  0  0  0
    6.7491   -2.6045   23.4237 C   0  0  0  0  0  0  0  0  0  0  0  0
    7.3369   -3.4266   24.5550 C   0  0  0  0  0  0  0  0  0  0  0  0
    6.6008   -3.6244   25.7382 C   0  0  0  0  0  0  0  0  0  0  0  0
    5.6081   -3.1991   25.8467 H   0  0  0  0  0  0  0  0  0  0  0  0
    5.6715   -2.7832   23.3471 H   0  0  0  0  0  0  0  0  0  0  0  0
    6.8911   -1.5396   23.6323 H   0  0  0  0  0  0  0  0  0  0  0  0
    7.1841   -4.0383   21.9073 H   0  0  0  0  0  0  0  0  0  0  0  0
    9.4162   -3.1469   21.3523 H   0  0  0  0  0  0  0  0  0  0  0  0
    9.2397   -1.8940   22.5531 H   0  0  0  0  0  0  0  0  0  0  0  0
   10.1367   -5.1487   25.4113 H   0  0  0  0  0  0  0  0  0  0  0  0
    8.8197   -5.4988   27.5031 H   0  0  0  0  0  0  0  0  0  0  0  0
  1  2  1  0
  2  3  2  0
  3  4  1  0
  4  5  2  0
  5  6  1  0
  6  7  1  0
  7  8  1  0
  8  9  1  0
  9 10  1  0
 10 11  1  0
 11 12  2  0
 12 13  1  0
 13 14  2  0
 14 15  1  0
 15 16  2  0
 16 17  1  0
 14 18  1  0
 13 19  1  0
 12 20  1  0
 10 21  1  0
 10 22  1  0
  9 23  1  0
  9 24  1  0
  8 25  1  0
 25 26  1  0
 26 27  2  0
 27 28  1  0
 25 29  1  0
 25 30  1  0
  8 31  1  0
  7 32  1  0
  7 33  1  0
  4 34  1  0
  3 35  1  0
 27  2  1  0
 26  5  1  0
 16 11  1  0
M  CHG  1   9   1
M  END
>  <plip>  (1) 
-0.07142857142857142

>  <filename>  (1) 
[H][c]1[n][c]([H])[c]([C]([H])([H])[N+]([H])([H])[C]2([H])[C]([H])([H])[O][c]3[c]([H])[c]([H])[c]([Br])[c]([H])[c]3[C]2([H])[H])[c]([H])[c]1[H]

$$$$
