
     RDKit          3D

 28 30  0  0  0  0  0  0  0  0999 V2000
    4.9300    1.7828   16.9938 H   0  0  0  0  0  0  0  0  0  0  0  0
    5.4068    1.2888   17.8390 C   0  0  0  0  0  0  0  0  0  0  0  0
    6.5740    0.6691   17.5913 N   0  0  0  0  0  0  0  0  0  0  0  0
    7.1787    0.0512   18.6082 C   0  0  0  0  0  0  0  0  0  0  0  0
    8.1229   -0.4355   18.3768 H   0  0  0  0  0  0  0  0  0  0  0  0
    6.6510    0.0167   19.9160 C   0  0  0  0  0  0  0  0  0  0  0  0
    7.3547   -0.6290   20.9752 N   0  0  0  0  0  0  0  0  0  0  0  0
    8.0820   -1.7464   20.7163 N   0  0  0  0  0  0  0  0  0  0  0  0
    8.6097   -2.1557   21.8172 N   0  0  0  0  0  0  0  0  0  0  0  0
    8.2456   -1.3207   22.8267 C   0  0  0  0  0  0  0  0  0  0  0  0
    8.5793   -1.4503   23.8435 H   0  0  0  0  0  0  0  0  0  0  0  0
    7.4388   -0.3426   22.3033 C   0  0  0  0  0  0  0  0  0  0  0  0
    6.8244    0.7407   22.8218 O   0  0  0  0  0  0  0  0  0  0  0  0
    6.6011    0.8557   24.1932 C   0  0  0  0  0  0  0  0  0  0  0  0
    6.2256   -0.2293   24.9953 C   0  0  0  0  0  0  0  0  0  0  0  0
    6.1463   -1.2173   24.5544 H   0  0  0  0  0  0  0  0  0  0  0  0
    5.9609   -0.0351   26.3548 C   0  0  0  0  0  0  0  0  0  0  0  0
    5.6946   -0.8613   27.0068 H   0  0  0  0  0  0  0  0  0  0  0  0
    6.0491    1.2467   26.8853 C   0  0  0  0  0  0  0  0  0  0  0  0
    5.7937    1.4296   28.1917 F   0  0  0  0  0  0  0  0  0  0  0  0
    6.3866    2.3444   26.0968 C   0  0  0  0  0  0  0  0  0  0  0  0
    6.4230    3.3261   26.5593 H   0  0  0  0  0  0  0  0  0  0  0  0
    6.6614    2.1432   24.7383 C   0  0  0  0  0  0  0  0  0  0  0  0
    6.9068    2.9851   24.0998 H   0  0  0  0  0  0  0  0  0  0  0  0
    5.4293    0.6442   20.1686 C   0  0  0  0  0  0  0  0  0  0  0  0
    5.0066    0.6422   21.1735 H   0  0  0  0  0  0  0  0  0  0  0  0
    4.8061    1.2972   19.1030 C   0  0  0  0  0  0  0  0  0  0  0  0
    3.8788    1.8360   19.2573 H   0  0  0  0  0  0  0  0  0  0  0  0
  1  2  1  0
  2  3  2  0
  3  4  1  0
  4  5  1  0
  4  6  2  0
  6  7  1  0
  7  8  1  0
  8  9  2  0
  9 10  1  0
 10 11  1  0
 10 12  2  0
 12 13  1  0
 13 14  1  0
 14 15  2  0
 15 16  1  0
 15 17  1  0
 17 18  1  0
 17 19  2  0
 19 20  1  0
 19 21  1  0
 21 22  1  0
 21 23  2  0
 23 24  1  0
  6 25  1  0
 25 26  1  0
 25 27  2  0
 27 28  1  0
 27  2  1  0
 12  7  1  0
 23 14  1  0
M  END
>  <plip>  (1) 
-0.0

>  <filename>  (1) 
[H][c]1[n][c]([H])[c](-[n]2[n][n][c]([H])[c]2[O][c]2[c]([H])[c]([H])[c]([F])[c]([H])[c]2[H])[c]([H])[c]1[H]

$$$$
