
     RDKit          3D

 26 28  0  0  0  0  0  0  0  0999 V2000
    4.9564    1.8669   16.8596 H   0  0  0  0  0  0  0  0  0  0  0  0
    5.4212    1.3507   17.6962 C   0  0  0  0  0  0  0  0  0  0  0  0
    6.5706    0.7083   17.4250 N   0  0  0  0  0  0  0  0  0  0  0  0
    7.1684    0.0743   18.4411 C   0  0  0  0  0  0  0  0  0  0  0  0
    8.0985   -0.4427   18.2089 H   0  0  0  0  0  0  0  0  0  0  0  0
    6.6672    0.0421   19.7616 C   0  0  0  0  0  0  0  0  0  0  0  0
    7.3905   -0.6151   20.8167 C   0  0  0  0  0  0  0  0  0  0  0  0
    7.9942   -1.1187   21.7379 C   0  0  0  0  0  0  0  0  0  0  0  0
    8.5525   -1.7260   22.9088 C   0  0  0  0  0  0  0  0  0  0  0  0
    7.9922   -1.7272   24.0926 N   0  0  0  0  0  0  0  0  0  0  0  0
    8.7720   -2.5699   24.8586 C   0  0  0  0  0  0  0  0  0  0  0  0
    8.6023   -2.9781   26.1966 C   0  0  0  0  0  0  0  0  0  0  0  0
    7.7750   -2.5748   26.7762 H   0  0  0  0  0  0  0  0  0  0  0  0
    9.4796   -3.9314   26.7199 C   0  0  0  0  0  0  0  0  0  0  0  0
    9.3496   -4.2902   27.7402 H   0  0  0  0  0  0  0  0  0  0  0  0
   10.5119   -4.4786   25.9146 C   0  0  0  0  0  0  0  0  0  0  0  0
   11.1582   -5.2582   26.3121 H   0  0  0  0  0  0  0  0  0  0  0  0
   10.7074   -4.0647   24.5989 C   0  0  0  0  0  0  0  0  0  0  0  0
   11.5189   -4.4521   23.9928 H   0  0  0  0  0  0  0  0  0  0  0  0
    9.8358   -3.0924   24.0889 C   0  0  0  0  0  0  0  0  0  0  0  0
    9.6925   -2.4974   22.8554 N   0  0  0  0  0  0  0  0  0  0  0  0
   10.2176   -2.7039   22.0226 H   0  0  0  0  0  0  0  0  0  0  0  0
    5.4478    0.6997   20.0155 C   0  0  0  0  0  0  0  0  0  0  0  0
    5.0139    0.6754   21.0185 H   0  0  0  0  0  0  0  0  0  0  0  0
    4.8187    1.3661   18.9604 C   0  0  0  0  0  0  0  0  0  0  0  0
    3.8788    1.8921   19.1032 H   0  0  0  0  0  0  0  0  0  0  0  0
  1  2  1  0
  2  3  2  0
  3  4  1  0
  4  5  1  0
  4  6  2  0
  6  7  1  0
  7  8  3  0
  8  9  1  0
  9 10  2  0
 10 11  1  0
 11 12  2  0
 12 13  1  0
 12 14  1  0
 14 15  1  0
 14 16  2  0
 16 17  1  0
 16 18  1  0
 18 19  1  0
 18 20  2  0
 20 21  1  0
 21 22  1  0
  6 23  1  0
 23 24  1  0
 23 25  2  0
 25 26  1  0
 25  2  1  0
 21  9  1  0
 20 11  1  0
M  END
>  <plip>  (1) 
-0.06896551724137931

>  <filename>  (1) 
[H][c]1[n][c]([H])[c]([C]#[C][c]2[n][c]3[c]([H])[c]([H])[c]([H])[c]([H])[c]3[n]2[H])[c]([H])[c]1[H]

$$$$
