
     RDKit          3D

 39 42  0  0  0  0  0  0  0  0999 V2000
   10.0033    1.5846   22.2539 C   0  0  0  0  0  0  0  0  0  0  0  0
    9.2199    0.6005   21.5659 O   0  0  0  0  0  0  0  0  0  0  0  0
    7.9849    0.3198   22.0294 C   0  0  0  0  0  0  0  0  0  0  0  0
    7.4651    0.8723   22.9634 O   0  0  0  0  0  0  0  0  0  0  0  0
    7.3597   -0.7600   21.0980 C   0  0  0  0  0  0  0  0  0  0  0  0
    6.5599   -1.6376   21.9042 O   0  0  0  0  0  0  0  0  0  0  0  0
    6.0144   -2.7285   21.3258 C   0  0  0  0  0  0  0  0  0  0  0  0
    6.1139   -3.0006   20.1543 O   0  0  0  0  0  0  0  0  0  0  0  0
    5.2675   -3.5679   22.2888 C   0  0  0  0  0  0  0  0  0  0  0  0
    4.5996   -4.7118   21.9397 C   0  0  0  0  0  0  0  0  0  0  0  0
    3.7410   -5.1300   22.9850 C   0  0  0  0  0  0  0  0  0  0  0  0
    3.8204   -4.3390   24.1122 C   0  0  0  0  0  0  0  0  0  0  0  0
    5.0271   -3.1228   23.9636 S   0  0  0  0  0  0  0  0  0  0  0  0
    2.8272   -4.6458   25.1045 C   0  0  0  0  0  0  0  0  0  0  0  0
    2.5449   -4.0345   26.3461 C   0  0  0  0  0  0  0  0  0  0  0  0
    1.5871   -4.6065   27.1787 C   0  0  0  0  0  0  0  0  0  0  0  0
    0.8827   -5.7661   26.7839 C   0  0  0  0  0  0  0  0  0  0  0  0
    1.0835   -6.3287   25.5278 C   0  0  0  0  0  0  0  0  0  0  0  0
    2.0503   -5.7516   24.6880 C   0  0  0  0  0  0  0  0  0  0  0  0
    2.4782   -6.3292   23.0908 S   0  0  0  0  0  0  0  0  0  0  0  0
    0.5253   -7.2002   25.2052 H   0  0  0  0  0  0  0  0  0  0  0  0
    0.1729   -6.2243   27.4694 H   0  0  0  0  0  0  0  0  0  0  0  0
    1.3860   -4.1634   28.1520 H   0  0  0  0  0  0  0  0  0  0  0  0
    3.0775   -3.1314   26.6489 H   0  0  0  0  0  0  0  0  0  0  0  0
    4.7619   -5.2424   21.0023 H   0  0  0  0  0  0  0  0  0  0  0  0
    6.5816   -0.1054   19.9646 C   0  0  0  0  0  0  0  0  0  0  0  0
    5.3871    0.5888   20.1882 C   0  0  0  0  0  0  0  0  0  0  0  0
    4.8094    1.2678   19.1132 C   0  0  0  0  0  0  0  0  0  0  0  0
    5.4473    1.2342   17.8678 C   0  0  0  0  0  0  0  0  0  0  0  0
    6.5842    0.5631   17.6312 N   0  0  0  0  0  0  0  0  0  0  0  0
    7.1182   -0.0937   18.6712 C   0  0  0  0  0  0  0  0  0  0  0  0
    8.0459   -0.6335   18.4717 H   0  0  0  0  0  0  0  0  0  0  0  0
    5.0221    1.7675   17.0190 H   0  0  0  0  0  0  0  0  0  0  0  0
    3.8900    1.8310   19.2309 H   0  0  0  0  0  0  0  0  0  0  0  0
    4.9393    0.6122   21.1840 H   0  0  0  0  0  0  0  0  0  0  0  0
    8.1989   -1.3163   20.6689 H   0  0  0  0  0  0  0  0  0  0  0  0
   10.9569    1.6024   21.7216 H   0  0  0  0  0  0  0  0  0  0  0  0
   10.1540    1.3028   23.3016 H   0  0  0  0  0  0  0  0  0  0  0  0
    9.5227    2.5676   22.2088 H   0  0  0  0  0  0  0  0  0  0  0  0
  1  2  1  0
  2  3  1  0
  3  4  2  0
  3  5  1  0
  5  6  1  0
  6  7  1  0
  7  8  2  0
  7  9  1  0
  9 10  2  0
 10 11  1  0
 11 12  2  0
 12 13  1  0
 12 14  1  0
 14 15  2  0
 15 16  1  0
 16 17  2  0
 17 18  1  0
 18 19  2  0
 19 20  1  0
 18 21  1  0
 17 22  1  0
 16 23  1  0
 15 24  1  0
 10 25  1  0
  5 26  1  0
 26 27  2  0
 27 28  1  0
 28 29  2  0
 29 30  1  0
 30 31  2  0
 31 32  1  0
 29 33  1  0
 28 34  1  0
 27 35  1  0
  5 36  1  0
  1 37  1  0
  1 38  1  0
  1 39  1  0
 13  9  1  0
 19 14  1  0
 31 26  1  0
 20 11  1  0
M  END
>  <plip>  (1) 
-0.10344827586206896

>  <filename>  (1) 
[H][c]1[n][c]([H])[c]([C]([H])([O][C](=[O])[c]2[s][c]3[c]([s][c]4[c]([H])[c]([H])[c]([H])[c]([H])[c]43)[c]2[H])[C](=[O])[O][C]([H])([H])[H])[c]([H])[c]1[H]

$$$$
