
     RDKit          3D

 51 53  0  0  0  0  0  0  0  0999 V2000
    9.8355   -0.6296   20.6610 C   0  0  0  0  0  0  0  0  0  0  0  0
    8.5995   -1.4213   20.7876 N   0  0  0  0  0  4  0  0  0  0  0  0
    8.7376   -2.5698   21.7388 C   0  0  0  0  0  0  0  0  0  0  0  0
    7.2915   -2.9398   21.9979 C   0  0  0  0  0  0  0  0  0  0  0  0
    6.5928   -1.5689   22.1419 C   0  0  1  0  0  0  0  0  0  0  0  0
    6.6081   -1.0036   23.5764 C   0  0  0  0  0  0  0  0  0  0  0  0
    5.8341   -1.8518   24.4625 N   0  0  0  0  0  0  0  0  0  0  0  0
    5.0437   -1.3899   25.4780 C   0  0  0  0  0  0  0  0  0  0  0  0
    5.0577   -0.2224   25.8322 O   0  0  0  0  0  0  0  0  0  0  0  0
    4.0519   -2.4452   26.1548 C   0  0  0  0  0  0  0  0  0  0  0  0
    3.9709   -2.1227   27.6694 C   0  0  0  0  0  0  0  0  0  0  0  0
    3.2434   -2.7912   28.1468 H   0  0  0  0  0  0  0  0  0  0  0  0
    3.6431   -1.0856   27.8060 H   0  0  0  0  0  0  0  0  0  0  0  0
    4.9371   -2.2562   28.1740 H   0  0  0  0  0  0  0  0  0  0  0  0
    2.6513   -2.1622   25.5532 C   0  0  0  0  0  0  0  0  0  0  0  0
    1.8836   -2.7094   26.1150 H   0  0  0  0  0  0  0  0  0  0  0  0
    2.4258   -1.0938   25.6379 H   0  0  0  0  0  0  0  0  0  0  0  0
    2.5822   -2.4495   24.4979 H   0  0  0  0  0  0  0  0  0  0  0  0
    4.4247   -3.9484   26.0146 C   0  0  0  0  0  0  0  0  0  0  0  0
    3.5419   -4.9902   25.6918 C   0  0  0  0  0  0  0  0  0  0  0  0
    3.8969   -6.2735   25.5853 N   0  0  0  0  0  0  0  0  0  0  0  0
    5.1737   -6.5524   25.8326 C   0  0  0  0  0  0  0  0  0  0  0  0
    6.1079   -5.6787   26.1904 N   0  0  0  0  0  0  0  0  0  0  0  0
    5.7156   -4.4048   26.3005 C   0  0  0  0  0  0  0  0  0  0  0  0
    6.4958   -3.7060   26.6104 H   0  0  0  0  0  0  0  0  0  0  0  0
    5.4873   -7.5881   25.7296 H   0  0  0  0  0  0  0  0  0  0  0  0
    2.4852   -4.7859   25.5140 H   0  0  0  0  0  0  0  0  0  0  0  0
    5.5131   -2.7138   24.0602 H   0  0  0  0  0  0  0  0  0  0  0  0
    6.2045    0.0129   23.5836 H   0  0  0  0  0  0  0  0  0  0  0  0
    7.6335   -0.9081   23.9557 H   0  0  0  0  0  0  0  0  0  0  0  0
    7.3674   -0.6153   21.1975 C   0  0  2  0  0  0  0  0  0  0  0  0
    6.6204   -0.0546   20.0008 C   0  0  0  0  0  0  0  0  0  0  0  0
    5.4106    0.6405   20.1749 C   0  0  0  0  0  0  0  0  0  0  0  0
    4.8345    1.2960   19.0869 C   0  0  0  0  0  0  0  0  0  0  0  0
    5.4812    1.2437   17.8463 C   0  0  0  0  0  0  0  0  0  0  0  0
    6.6237    0.5747   17.6500 N   0  0  0  0  0  0  0  0  0  0  0  0
    7.1655   -0.0531   18.7004 C   0  0  0  0  0  0  0  0  0  0  0  0
    8.1067   -0.5542   18.4894 H   0  0  0  0  0  0  0  0  0  0  0  0
    5.0659    1.7570   16.9808 H   0  0  0  0  0  0  0  0  0  0  0  0
    3.9148    1.8621   19.1811 H   0  0  0  0  0  0  0  0  0  0  0  0
    4.9291    0.6943   21.1577 H   0  0  0  0  0  0  0  0  0  0  0  0
    7.7148    0.2461   21.7866 H   0  0  0  0  0  0  0  0  0  0  0  0
    5.5539   -1.6699   21.8230 H   0  0  0  0  0  0  0  0  0  0  0  0
    6.8960   -3.4585   21.1149 H   0  0  0  0  0  0  0  0  0  0  0  0
    7.1767   -3.6004   22.8649 H   0  0  0  0  0  0  0  0  0  0  0  0
    9.3254   -3.3770   21.2916 H   0  0  0  0  0  0  0  0  0  0  0  0
    9.2323   -2.2344   22.6595 H   0  0  0  0  0  0  0  0  0  0  0  0
    8.3122   -1.8548   19.8851 H   0  0  0  0  0  0  0  0  0  0  0  0
   10.0165   -0.0720   21.5928 H   0  0  0  0  0  0  0  0  0  0  0  0
   10.6971   -1.2869   20.5049 H   0  0  0  0  0  0  0  0  0  0  0  0
    9.7703    0.0928   19.8416 H   0  0  0  0  0  0  0  0  0  0  0  0
  1  2  1  0
  2  3  1  0
  3  4  1  0
  4  5  1  0
  5  6  1  0
  6  7  1  0
  7  8  1  0
  8  9  2  0
  8 10  1  0
 10 11  1  0
 11 12  1  0
 11 13  1  0
 11 14  1  0
 10 15  1  0
 15 16  1  0
 15 17  1  0
 15 18  1  0
 10 19  1  0
 19 20  2  0
 20 21  1  0
 21 22  2  0
 22 23  1  0
 23 24  2  0
 24 25  1  0
 22 26  1  0
 20 27  1  0
  7 28  1  0
  6 29  1  0
  6 30  1  0
  5 31  1  0
 31 32  1  0
 32 33  2  0
 33 34  1  0
 34 35  2  0
 35 36  1  0
 36 37  2  0
 37 38  1  0
 35 39  1  0
 34 40  1  0
 33 41  1  0
 31 42  1  1
  5 43  1  6
  4 44  1  0
  4 45  1  0
  3 46  1  0
  3 47  1  0
  2 48  1  0
  1 49  1  0
  1 50  1  0
  1 51  1  0
 31  2  1  0
 37 32  1  0
 24 19  1  0
M  CHG  1   2   1
M  END
>  <plip>  (1) 
-0.06666666666666667

>  <filename>  (1) 
[H][c]1[n][c]([H])[c]([C]([C](=[O])[N]([H])[C]([H])([H])[C@]2([H])[C]([H])([H])[C]([H])([H])[N+]([H])([C]([H])([H])[H])[C@@]2([H])[c]2[c]([H])[n][c]([H])[c]([H])[c]2[H])([C]([H])([H])[H])[C]([H])([H])[H])[c]([H])[n]1

$$$$
