
     RDKit          3D

 37 38  0  0  0  0  0  0  0  0999 V2000
    8.5241   -3.2234   21.8726 O   0  0  0  0  0  0  0  0  0  0  0  0
    7.6023   -2.6056   22.4391 C   0  0  0  0  0  0  0  0  0  0  0  0
    7.4067   -2.3657   23.6414 O   0  0  0  0  0  1  0  0  0  0  0  0
    6.6350   -1.9879   21.4069 C   0  0  0  0  0  0  0  0  0  0  0  0
    7.4273   -0.8363   20.8318 C   0  0  2  0  0  0  0  0  0  0  0  0
    7.6763    0.0395   21.9639 N   0  0  0  0  0  0  0  0  0  0  0  0
    8.9133    1.1089   21.9110 S   0  0  0  0  0  0  0  0  0  0  0  0
    9.9216    0.6447   20.9789 O   0  0  0  0  0  0  0  0  0  0  0  0
    9.1793    1.2957   23.3181 O   0  0  0  0  0  0  0  0  0  0  0  0
    8.2002    2.5285   21.1694 C   0  0  0  0  0  0  0  0  0  0  0  0
    7.1578    3.2908   21.9334 C   0  0  2  0  0  0  0  0  0  0  0  0
    7.1145    4.7789   21.7200 C   0  0  0  0  0  0  0  0  0  0  0  0
    7.6479    4.2176   23.0065 C   0  0  1  0  0  0  0  0  0  0  0  0
    6.8448    4.4727   24.2461 C   0  0  0  0  0  0  0  0  0  0  0  0
    7.2044    3.6037   25.2625 F   0  0  0  0  0  0  0  0  0  0  0  0
    5.7743    4.3474   24.0400 H   0  0  0  0  0  0  0  0  0  0  0  0
    7.0176    5.4944   24.6034 H   0  0  0  0  0  0  0  0  0  0  0  0
    8.7287    4.2282   23.1566 H   0  0  0  0  0  0  0  0  0  0  0  0
    7.8069    5.2174   21.0050 H   0  0  0  0  0  0  0  0  0  0  0  0
    6.1424    5.2679   21.7304 H   0  0  0  0  0  0  0  0  0  0  0  0
    6.2099    2.7665   22.0812 H   0  0  0  0  0  0  0  0  0  0  0  0
    7.8372    2.1355   20.2256 H   0  0  0  0  0  0  0  0  0  0  0  0
    9.0851    3.1313   20.9742 H   0  0  0  0  0  0  0  0  0  0  0  0
    7.9150   -0.4076   22.8382 H   0  0  0  0  0  0  0  0  0  0  0  0
    6.6831   -0.0746   19.7677 C   0  0  0  0  0  0  0  0  0  0  0  0
    5.4736    0.6045   20.0147 C   0  0  0  0  0  0  0  0  0  0  0  0
    4.8869    1.3231   18.9741 C   0  0  0  0  0  0  0  0  0  0  0  0
    5.5086    1.3254   17.7191 C   0  0  0  0  0  0  0  0  0  0  0  0
    6.6404    0.6542   17.4567 N   0  0  0  0  0  0  0  0  0  0  0  0
    7.1968   -0.0223   18.4732 C   0  0  0  0  0  0  0  0  0  0  0  0
    8.1217   -0.5562   18.2442 H   0  0  0  0  0  0  0  0  0  0  0  0
    5.0722    1.8784   16.8893 H   0  0  0  0  0  0  0  0  0  0  0  0
    3.9755    1.8928   19.1261 H   0  0  0  0  0  0  0  0  0  0  0  0
    5.0238    0.5906   21.0115 H   0  0  0  0  0  0  0  0  0  0  0  0
    8.3774   -1.2044   20.4145 H   0  0  0  0  0  0  0  0  0  0  0  0
    5.7312   -1.6065   21.8785 H   0  0  0  0  0  0  0  0  0  0  0  0
    6.3841   -2.7377   20.6568 H   0  0  0  0  0  0  0  0  0  0  0  0
  1  2  2  0
  2  3  1  0
  2  4  1  0
  4  5  1  0
  5  6  1  0
  6  7  1  0
  7  8  2  0
  7  9  2  0
  7 10  1  0
 10 11  1  0
 11 12  1  0
 12 13  1  0
 13 14  1  0
 14 15  1  0
 14 16  1  0
 14 17  1  0
 13 18  1  1
 12 19  1  0
 12 20  1  0
 11 21  1  1
 10 22  1  0
 10 23  1  0
  6 24  1  0
  5 25  1  0
 25 26  2  0
 26 27  1  0
 27 28  2  0
 28 29  1  0
 29 30  2  0
 30 31  1  0
 28 32  1  0
 27 33  1  0
 26 34  1  0
  5 35  1  6
  4 36  1  0
  4 37  1  0
 13 11  1  0
 30 25  1  0
M  CHG  1   3  -1
M  END
>  <plip>  (1) 
-0.10714285714285714

>  <filename>  (1) 
[H][c]1[n][c]([H])[c]([C@@]([H])([N]([H])[S](=[O])(=[O])[C]([H])([H])[C@]2([H])[C]([H])([H])[C@@]2([H])[C]([H])([H])[F])[C]([H])([H])[C](=[O])[O-])[c]([H])[c]1[H]

$$$$
