
     RDKit          3D

 34 36  0  0  0  0  0  0  0  0999 V2000
   13.6130    4.6603   22.5710 C   0  0  0  0  0  0  0  0  0  0  0  0
   12.4069    3.8180   22.3973 C   0  0  0  0  0  0  0  0  0  0  0  0
   12.3897    2.5814   22.0153 N   0  0  0  0  0  0  0  0  0  0  0  0
   11.0643    2.2493   21.9208 C   0  0  0  0  0  0  0  0  0  0  0  0
   10.6016    1.0949   21.4774 N   0  0  0  0  0  0  0  0  0  0  0  0
    9.2768    1.0386   21.3251 C   0  0  0  0  0  0  0  0  0  0  0  0
    8.9107   -0.1854   20.8667 N   0  0  0  0  0  0  0  0  0  0  0  0
    7.5706   -0.7366   20.9027 C   0  0  0  0  0  0  0  0  0  0  0  0
    6.9862   -0.8232   22.3112 C   0  0  0  0  0  0  0  0  0  0  0  0
    6.8169    0.1715   22.7362 H   0  0  0  0  0  0  0  0  0  0  0  0
    6.0355   -1.3593   22.2701 H   0  0  0  0  0  0  0  0  0  0  0  0
    7.6664   -1.3691   22.9728 H   0  0  0  0  0  0  0  0  0  0  0  0
    6.7032   -0.0026   19.8877 C   0  0  0  0  0  0  0  0  0  0  0  0
    5.4678    0.6131   20.1283 C   0  0  0  0  0  0  0  0  0  0  0  0
    4.8269    1.2724   19.0705 C   0  0  0  0  0  0  0  0  0  0  0  0
    5.4316    1.2875   17.8112 C   0  0  0  0  0  0  0  0  0  0  0  0
    6.6028    0.6871   17.5517 N   0  0  0  0  0  0  0  0  0  0  0  0
    7.2085    0.0773   18.5766 C   0  0  0  0  0  0  0  0  0  0  0  0
    8.1615   -0.3943   18.3466 H   0  0  0  0  0  0  0  0  0  0  0  0
    4.9570    1.8003   16.9758 H   0  0  0  0  0  0  0  0  0  0  0  0
    3.8855    1.7899   19.2157 H   0  0  0  0  0  0  0  0  0  0  0  0
    5.0123    0.6205   21.1235 H   0  0  0  0  0  0  0  0  0  0  0  0
    7.6865   -1.7630   20.5292 H   0  0  0  0  0  0  0  0  0  0  0  0
    9.7180   -0.7744   21.0204 H   0  0  0  0  0  0  0  0  0  0  0  0
    8.3869    2.1120   21.6098 C   0  0  0  0  0  0  0  0  0  0  0  0
    8.8803    3.3054   22.1302 C   0  0  0  0  0  0  0  0  0  0  0  0
   10.2614    3.3600   22.2958 C   0  0  0  0  0  0  0  0  0  0  0  0
   11.1662    4.3524   22.6352 N   0  0  0  0  0  0  0  0  0  0  0  0
   10.9856    5.3432   22.6338 H   0  0  0  0  0  0  0  0  0  0  0  0
    8.2259    4.1474   22.3627 H   0  0  0  0  0  0  0  0  0  0  0  0
    7.3334    1.9769   21.4265 H   0  0  0  0  0  0  0  0  0  0  0  0
   14.4551    4.1822   22.0770 H   0  0  0  0  0  0  0  0  0  0  0  0
   13.8501    4.7974   23.6278 H   0  0  0  0  0  0  0  0  0  0  0  0
   13.4374    5.6399   22.1210 H   0  0  0  0  0  0  0  0  0  0  0  0
  1  2  1  0
  2  3  2  0
  3  4  1  0
  4  5  2  0
  5  6  1  0
  6  7  1  0
  7  8  1  0
  8  9  1  0
  9 10  1  0
  9 11  1  0
  9 12  1  0
  8 13  1  0
 13 14  2  0
 14 15  1  0
 15 16  2  0
 16 17  1  0
 17 18  2  0
 18 19  1  0
 16 20  1  0
 15 21  1  0
 14 22  1  0
  8 23  1  0
  7 24  1  0
  6 25  2  0
 25 26  1  0
 26 27  2  0
 27 28  1  0
 28 29  1  0
 26 30  1  0
 25 31  1  0
  1 32  1  0
  1 33  1  0
  1 34  1  0
 28  2  1  0
 27  4  1  0
 18 13  1  0
M  END
>  <plip>  (1) 
-0.06896551724137931

>  <filename>  (1) 
[H][c]1[n][c]([H])[c]([C]([H])([N]([H])[c]2[n][c]3[n][c]([C]([H])([H])[H])[n]([H])[c]3[c]([H])[c]2[H])[C]([H])([H])[H])[c]([H])[c]1[H]

$$$$
