
     RDKit          3D

 32 33  0  0  0  0  0  0  0  0999 V2000
    5.4260    1.3598   16.3759 H   0  0  0  0  0  0  0  0  0  0  0  0
    5.5794    1.0863   17.4150 C   0  0  0  0  0  0  0  0  0  0  0  0
    6.6812    0.3719   17.6773 N   0  0  0  0  0  0  0  0  0  0  0  0
    6.8996    0.0291   18.9518 C   0  0  0  0  0  0  0  0  0  0  0  0
    7.8121   -0.5365   19.1388 H   0  0  0  0  0  0  0  0  0  0  0  0
    6.0376    0.3674   19.9996 C   0  0  0  0  0  0  0  0  0  0  0  0
    6.3472   -0.0184   21.4078 C   0  0  0  0  0  0  0  0  0  0  0  0
    5.9076    0.6089   22.3470 O   0  0  0  0  0  0  0  0  0  0  0  0
    7.2167   -1.2903   21.6707 C   0  0  0  0  0  0  0  0  0  0  0  0
    6.7189   -2.7886   21.2335 S   0  0  0  0  0  0  0  0  0  0  0  0
    8.4019   -1.1436   22.3533 N   0  0  0  0  0  0  0  0  0  0  0  0
    8.8063   -2.0184   22.6565 H   0  0  0  0  0  0  0  0  0  0  0  0
    9.2830   -0.0641   22.2755 C   0  0  0  0  0  0  0  0  0  0  0  0
    9.0980    0.8575   21.5201 O   0  0  0  0  0  0  0  0  0  0  0  0
   10.4657   -0.1925   23.2304 C   0  0  0  0  0  0  0  0  0  0  0  0
   10.1798   -0.8868   24.0357 H   0  0  0  0  0  0  0  0  0  0  0  0
   10.5501    0.7941   23.7128 H   0  0  0  0  0  0  0  0  0  0  0  0
   11.7663   -0.6123   22.5947 C   0  0  0  0  0  0  0  0  0  0  0  0
   11.9602   -1.8726   21.9412 C   0  0  0  0  0  0  0  0  0  0  0  0
   11.6164   -2.7014   22.6619 H   0  0  0  0  0  0  0  0  0  0  0  0
   13.8336   -2.0090   21.4553 C   0  0  0  0  0  0  0  0  0  0  0  0
   14.3157   -2.8629   22.1136 H   0  0  0  0  0  0  0  0  0  0  0  0
   13.6577   -1.7210   21.3680 C   0  0  0  0  0  0  0  0  0  0  0  0
   13.9212   -2.2588   20.2422 H   0  0  0  0  0  0  0  0  0  0  0  0
   14.1298   -0.3512   22.0806 C   0  0  0  0  0  0  0  0  0  0  0  0
   14.7530    0.2927   21.4558 H   0  0  0  0  0  0  0  0  0  0  0  0
   12.9442    0.1996   22.6408 C   0  0  0  0  0  0  0  0  0  0  0  0
   12.8873    1.1853   23.0844 H   0  0  0  0  0  0  0  0  0  0  0  0
    4.8945    1.1331   19.7138 C   0  0  0  0  0  0  0  0  0  0  0  0
    4.2207    1.4469   20.5115 H   0  0  0  0  0  0  0  0  0  0  0  0
    4.6587    1.4845   18.3900 C   0  0  0  0  0  0  0  0  0  0  0  0
    3.7961    2.0805   18.1080 H   0  0  0  0  0  0  0  0  0  0  0  0
  1  2  1  0
  2  3  2  0
  3  4  1  0
  4  5  1  0
  4  6  2  0
  6  7  1  0
  7  8  2  0
  7  9  1  0
  9 10  2  0
  9 11  1  0
 11 12  1  0
 11 13  1  0
 13 14  2  0
 13 15  1  0
 15 16  1  0
 15 17  1  0
 15 18  1  0
 18 19  2  0
 19 20  1  0
 19 21  1  0
 21 22  1  0
 21 23  2  0
 23 24  1  0
 23 25  1  0
 25 26  1  0
 25 27  2  0
 27 28  1  0
  6 29  1  0
 29 30  1  0
 29 31  2  0
 31 32  1  0
 31  2  1  0
 27 18  1  0
M  END
>  <plip>  (1) 
-0.17857142857142858

>  <filename>  (1) 
[H][c]1[n][c]([H])[c]([C](=[O])[C](=[S])[N]([H])[C](=[O])[C]([H])([H])[c]2[c]([H])[c]([H])[c]([H])[c]([H])[c]2[H])[c]([H])[c]1[H]

$$$$
