
     RDKit          3D

 39 42  0  0  0  0  0  0  0  0999 V2000
    4.9546    1.7782   17.0068 H   0  0  0  0  0  0  0  0  0  0  0  0
    5.4279    1.2674   17.8429 C   0  0  0  0  0  0  0  0  0  0  0  0
    6.5898    0.6415   17.5910 N   0  0  0  0  0  0  0  0  0  0  0  0
    7.2254    0.0493   18.6150 C   0  0  0  0  0  0  0  0  0  0  0  0
    8.1640   -0.4463   18.3672 H   0  0  0  0  0  0  0  0  0  0  0  0
    6.7530    0.0388   19.9623 C   0  0  0  0  0  0  0  0  0  0  0  0
    7.4778   -0.4848   21.0284 N   0  0  0  0  0  0  0  0  0  0  0  0
    8.7080   -1.2372   20.8278 C   0  0  0  0  0  0  0  0  0  0  0  0
    8.5602   -1.9928   20.0610 H   0  0  0  0  0  0  0  0  0  0  0  0
    9.5217   -0.5859   20.4820 H   0  0  0  0  0  0  0  0  0  0  0  0
    9.0145   -1.9027   22.1499 C   0  0  1  0  0  0  0  0  0  0  0  0
    9.5998   -2.8146   22.1357 H   0  0  0  0  0  0  0  0  0  0  0  0
    9.1941   -1.0009   23.3406 C   0  0  1  0  0  0  0  0  0  0  0  0
    9.7453   -1.4379   24.1734 H   0  0  0  0  0  0  0  0  0  0  0  0
    9.3215    0.4076   23.2010 N   0  0  0  0  0  0  0  0  0  0  0  0
    9.0066    0.7008   22.2825 H   0  0  0  0  0  0  0  0  0  0  0  0
   10.6088    0.9602   23.5271 C   0  0  0  0  0  0  0  0  0  0  0  0
   10.8294    0.6604   24.5626 H   0  0  0  0  0  0  0  0  0  0  0  0
   11.7752    0.5343   22.6298 C   0  0  0  0  0  0  0  0  0  0  0  0
   12.1722   -0.4472   22.9035 H   0  0  0  0  0  0  0  0  0  0  0  0
   11.4246    0.4659   21.5888 H   0  0  0  0  0  0  0  0  0  0  0  0
   12.8141    1.6584   22.7467 C   0  0  0  0  0  0  0  0  0  0  0  0
   13.6635    1.3854   23.3810 H   0  0  0  0  0  0  0  0  0  0  0  0
   13.2033    1.8573   21.7586 H   0  0  0  0  0  0  0  0  0  0  0  0
   12.0694    2.8993   23.2899 C   0  0  0  0  0  0  0  0  0  0  0  0
   12.4655    3.2009   24.2563 H   0  0  0  0  0  0  0  0  0  0  0  0
   12.1856    3.7531   22.6156 H   0  0  0  0  0  0  0  0  0  0  0  0
   10.5985    2.4814   23.4444 C   0  0  0  0  0  0  0  0  0  0  0  0
   10.1205    2.9206   24.3264 H   0  0  0  0  0  0  0  0  0  0  0  0
   10.0260    2.7891   22.5609 H   0  0  0  0  0  0  0  0  0  0  0  0
    7.8589   -1.6238   23.0741 C   0  0  1  0  0  0  0  0  0  0  0  0
    7.4712   -2.3081   23.8191 H   0  0  0  0  0  0  0  0  0  0  0  0
    6.8579   -0.7732   22.3201 C   0  0  0  0  0  0  0  0  0  0  0  0
    6.6224    0.1446   22.8771 H   0  0  0  0  0  0  0  0  0  0  0  0
    5.9309   -1.3382   22.1741 H   0  0  0  0  0  0  0  0  0  0  0  0
    5.4955    0.6484   20.1734 C   0  0  0  0  0  0  0  0  0  0  0  0
    5.0601    0.6321   21.1673 H   0  0  0  0  0  0  0  0  0  0  0  0
    4.8418    1.2780   19.1112 C   0  0  0  0  0  0  0  0  0  0  0  0
    3.8985    1.7902   19.2673 H   0  0  0  0  0  0  0  0  0  0  0  0
  1  2  1  0
  2  3  2  0
  3  4  1  0
  4  5  1  0
  4  6  2  0
  6  7  1  0
  7  8  1  0
  8  9  1  0
  8 10  1  0
  8 11  1  0
 11 12  1  6
 11 13  1  0
 13 14  1  1
 13 15  1  0
 15 16  1  0
 15 17  1  0
 17 18  1  0
 17 19  1  0
 19 20  1  0
 19 21  1  0
 19 22  1  0
 22 23  1  0
 22 24  1  0
 22 25  1  0
 25 26  1  0
 25 27  1  0
 25 28  1  0
 28 29  1  0
 28 30  1  0
 13 31  1  0
 31 32  1  1
 31 33  1  0
 33 34  1  0
 33 35  1  0
  6 36  1  0
 36 37  1  0
 36 38  2  0
 38 39  1  0
 38  2  1  0
 33  7  1  0
 31 11  1  0
 28 17  1  0
M  END
>  <plip>  (1) 
-0.03571428571428571

>  <filename>  (1) 
[H][c]1[n][c]([H])[c]([N]2[C]([H])([H])[C@@]3([H])[C@@]([H])([N]([H])[C]4([H])[C]([H])([H])[C]([H])([H])[C]([H])([H])[C]4([H])[H])[C@@]3([H])[C]2([H])[H])[c]([H])[c]1[H]

$$$$
