
     RDKit          3D

 30 33  0  0  0  0  0  0  0  0999 V2000
    4.9285    1.8069   16.9656 H   0  0  0  0  0  0  0  0  0  0  0  0
    5.3793    1.2910   17.8143 C   0  0  0  0  0  0  0  0  0  0  0  0
    6.5474    0.6720   17.5752 N   0  0  0  0  0  0  0  0  0  0  0  0
    7.1555    0.0752   18.6075 C   0  0  0  0  0  0  0  0  0  0  0  0
    8.1084   -0.4038   18.3741 H   0  0  0  0  0  0  0  0  0  0  0  0
    6.6494    0.0567   19.9189 C   0  0  0  0  0  0  0  0  0  0  0  0
    7.3374   -0.6627   21.0068 C   0  0  0  0  0  0  0  0  0  0  0  0
    7.7371   -0.1665   22.2326 C   0  0  0  0  0  0  0  0  0  0  0  0
    7.6774    1.1941   22.7486 C   0  0  0  0  0  0  0  0  0  0  0  0
    7.6751    1.4963   24.0044 N   0  0  0  0  0  0  0  0  0  0  0  0
    7.6323    2.8662   24.1640 C   0  0  0  0  0  0  0  0  0  0  0  0
    7.6358    3.5167   25.4044 C   0  0  0  0  0  0  0  0  0  0  0  0
    7.6681    2.8936   26.2907 H   0  0  0  0  0  0  0  0  0  0  0  0
    7.6106    4.9039   25.4400 C   0  0  0  0  0  0  0  0  0  0  0  0
    7.6208    5.4154   26.3947 H   0  0  0  0  0  0  0  0  0  0  0  0
    7.5741    5.6483   24.2445 C   0  0  0  0  0  0  0  0  0  0  0  0
    7.5519    6.7297   24.2880 H   0  0  0  0  0  0  0  0  0  0  0  0
    7.5698    5.0204   23.0038 C   0  0  0  0  0  0  0  0  0  0  0  0
    7.5358    5.6037   22.0870 H   0  0  0  0  0  0  0  0  0  0  0  0
    7.6138    3.6223   22.9723 C   0  0  0  0  0  0  0  0  0  0  0  0
    7.6821    2.5479   21.6204 S   0  0  0  0  0  0  0  0  0  0  0  0
    8.4207   -1.3946   23.2240 S   0  0  0  0  0  0  0  0  0  0  0  0
    8.2015   -2.5772   22.0014 C   0  0  0  0  0  0  0  0  0  0  0  0
    8.5486   -3.5886   22.1713 H   0  0  0  0  0  0  0  0  0  0  0  0
    7.5725   -2.0620   20.9146 C   0  0  0  0  0  0  0  0  0  0  0  0
    7.1572   -2.6121   20.0820 H   0  0  0  0  0  0  0  0  0  0  0  0
    5.4056    0.6568   20.1340 C   0  0  0  0  0  0  0  0  0  0  0  0
    4.9775    0.6310   21.1348 H   0  0  0  0  0  0  0  0  0  0  0  0
    4.7710    1.3021   19.0721 C   0  0  0  0  0  0  0  0  0  0  0  0
    3.8455    1.8470   19.2152 H   0  0  0  0  0  0  0  0  0  0  0  0
  1  2  1  0
  2  3  2  0
  3  4  1  0
  4  5  1  0
  4  6  2  0
  6  7  1  0
  7  8  2  0
  8  9  1  0
  9 10  2  0
 10 11  1  0
 11 12  2  0
 12 13  1  0
 12 14  1  0
 14 15  1  0
 14 16  2  0
 16 17  1  0
 16 18  1  0
 18 19  1  0
 18 20  2  0
 20 21  1  0
  8 22  1  0
 22 23  1  0
 23 24  1  0
 23 25  2  0
 25 26  1  0
  6 27  1  0
 27 28  1  0
 27 29  2  0
 29 30  1  0
 29  2  1  0
 25  7  1  0
 21  9  1  0
 20 11  1  0
M  END
>  <plip>  (1) 
-0.0

>  <filename>  (1) 
[H][c]1[n][c]([H])[c](-[c]2[c](-[c]3[n][c]4[c]([H])[c]([H])[c]([H])[c]([H])[c]4[s]3)[s][c]([H])[c]2[H])[c]([H])[c]1[H]

$$$$
