
     RDKit          3D

 33 35  0  0  0  0  0  0  0  0999 V2000
    4.9833    1.8760   16.7989 H   0  0  0  0  0  0  0  0  0  0  0  0
    5.4005    1.3466   17.6515 C   0  0  0  0  0  0  0  0  0  0  0  0
    6.5483    0.6849   17.4283 N   0  0  0  0  0  0  0  0  0  0  0  0
    7.1039    0.0676   18.4759 C   0  0  0  0  0  0  0  0  0  0  0  0
    8.0367   -0.4527   18.2711 H   0  0  0  0  0  0  0  0  0  0  0  0
    6.5834    0.0729   19.7888 C   0  0  0  0  0  0  0  0  0  0  0  0
    7.3559   -0.4895   20.9125 C   0  0  0  0  0  0  0  0  0  0  0  0
    7.2317   -0.2421   22.3077 C   0  0  0  0  0  0  0  0  0  0  0  0
    6.4621    0.3114   22.8329 H   0  0  0  0  0  0  0  0  0  0  0  0
    8.1992   -0.8150   23.0152 N   0  0  0  0  0  0  0  0  0  0  0  0
    8.9043   -1.4661   22.0941 N   0  0  0  0  0  0  0  0  0  0  0  0
   10.0198   -2.1933   22.4383 O   0  0  0  0  0  0  0  0  0  0  0  0
    9.8227   -3.1413   23.4577 C   0  0  0  0  0  0  0  0  0  0  0  0
   11.0107   -3.7089   23.9305 C   0  0  0  0  0  0  0  0  0  0  0  0
   11.9476   -3.4715   23.4324 H   0  0  0  0  0  0  0  0  0  0  0  0
   10.9714   -4.5924   25.0112 C   0  0  0  0  0  0  0  0  0  0  0  0
   11.8666   -5.0793   25.3849 H   0  0  0  0  0  0  0  0  0  0  0  0
    9.7492   -4.8769   25.6434 C   0  0  0  0  0  0  0  0  0  0  0  0
    9.7951   -5.6499   26.7691 O   0  0  0  0  0  0  0  0  0  0  0  0
    8.8067   -5.4329   27.7651 C   0  0  0  0  0  0  0  0  0  0  0  0
    9.1267   -5.9773   28.6551 H   0  0  0  0  0  0  0  0  0  0  0  0
    7.8127   -5.8016   27.4685 H   0  0  0  0  0  0  0  0  0  0  0  0
    8.7242   -4.3656   28.0064 H   0  0  0  0  0  0  0  0  0  0  0  0
    8.5613   -4.3914   25.0895 C   0  0  0  0  0  0  0  0  0  0  0  0
    7.6118   -4.6412   25.5590 H   0  0  0  0  0  0  0  0  0  0  0  0
    8.5887   -3.5402   23.9808 C   0  0  0  0  0  0  0  0  0  0  0  0
    7.6560   -3.1770   23.5572 H   0  0  0  0  0  0  0  0  0  0  0  0
    8.4797   -1.2987   20.8228 C   0  0  0  0  0  0  0  0  0  0  0  0
    8.9964   -1.7623   19.9958 H   0  0  0  0  0  0  0  0  0  0  0  0
    5.3483    0.7151   19.9751 C   0  0  0  0  0  0  0  0  0  0  0  0
    4.8684    0.7082   20.9541 H   0  0  0  0  0  0  0  0  0  0  0  0
    4.7581    1.3697   18.8940 C   0  0  0  0  0  0  0  0  0  0  0  0
    3.8303    1.9193   19.0040 H   0  0  0  0  0  0  0  0  0  0  0  0
  1  2  1  0
  2  3  2  0
  3  4  1  0
  4  5  1  0
  4  6  2  0
  6  7  1  0
  7  8  1  0
  8  9  1  0
  8 10  2  0
 10 11  1  0
 11 12  1  0
 12 13  1  0
 13 14  2  0
 14 15  1  0
 14 16  1  0
 16 17  1  0
 16 18  2  0
 18 19  1  0
 19 20  1  0
 20 21  1  0
 20 22  1  0
 20 23  1  0
 18 24  1  0
 24 25  1  0
 24 26  2  0
 26 27  1  0
 11 28  1  0
 28 29  1  0
  6 30  1  0
 30 31  1  0
 30 32  2  0
 32 33  1  0
 32  2  1  0
 28  7  2  0
 26 13  1  0
M  END
>  <plip>  (1) 
-0.14285714285714285

>  <filename>  (1) 
[H][c]1[n][c]([H])[c](-[c]2[c]([H])[n][n]([O][c]3[c]([H])[c]([H])[c]([O][C]([H])([H])[H])[c]([H])[c]3[H])[c]2[H])[c]([H])[c]1[H]

$$$$
