
     RDKit          3D

 32 33  0  0  0  0  0  0  0  0999 V2000
    4.9705    1.7685   17.0213 H   0  0  0  0  0  0  0  0  0  0  0  0
    5.4087    1.2657   17.8820 C   0  0  0  0  0  0  0  0  0  0  0  0
    6.5694    0.6376   17.6502 N   0  0  0  0  0  0  0  0  0  0  0  0
    7.1587    0.0318   18.6818 C   0  0  0  0  0  0  0  0  0  0  0  0
    8.1193   -0.4330   18.4706 H   0  0  0  0  0  0  0  0  0  0  0  0
    6.6199   -0.0201   19.9742 C   0  0  0  0  0  0  0  0  0  0  0  0
    7.4745   -0.7109   20.9847 C   0  0  0  0  0  0  0  0  0  0  0  0
    8.6927   -0.7198   20.8767 O   0  0  0  0  0  0  0  0  0  0  0  0
    6.7664   -1.3783   21.9480 N   0  0  0  0  0  0  0  0  0  0  0  0
    5.7609   -1.2882   21.8733 H   0  0  0  0  0  0  0  0  0  0  0  0
    7.2770   -2.1319   23.0279 N   0  0  0  0  0  0  0  0  0  0  0  0
    6.6854   -2.2182   24.2968 C   0  0  0  0  0  0  0  0  0  0  0  0
    6.4732   -3.4604   24.7424 N   0  0  0  0  0  0  0  0  0  0  0  0
    5.7963   -3.6372   25.8788 C   0  0  0  0  0  0  0  0  0  0  0  0
    5.5756   -4.6717   26.1411 H   0  0  0  0  0  0  0  0  0  0  0  0
    5.3949   -2.5851   26.7006 C   0  0  0  0  0  0  0  0  0  0  0  0
    4.8768   -2.7952   27.6264 H   0  0  0  0  0  0  0  0  0  0  0  0
    5.7084   -1.2842   26.3152 C   0  0  0  0  0  0  0  0  0  0  0  0
    5.4583   -0.4351   26.9530 H   0  0  0  0  0  0  0  0  0  0  0  0
    6.3785   -1.0965   25.1031 C   0  0  0  0  0  0  0  0  0  0  0  0
    6.7770    0.2557   24.6264 C   0  0  0  0  0  0  0  0  0  0  0  0
    7.9780    0.2677   24.0293 F   0  0  0  0  0  0  0  0  0  0  0  0
    6.8506    1.1244   25.6577 F   0  0  0  0  0  0  0  0  0  0  0  0
    5.8849    0.7722   23.7528 F   0  0  0  0  0  0  0  0  0  0  0  0
    8.5054   -2.8775   22.7574 C   0  0  0  0  0  0  0  0  0  0  0  0
    8.5666   -3.7501   23.4180 H   0  0  0  0  0  0  0  0  0  0  0  0
    8.4716   -3.2108   21.7143 H   0  0  0  0  0  0  0  0  0  0  0  0
    9.3848   -2.2284   22.8673 H   0  0  0  0  0  0  0  0  0  0  0  0
    5.3979    0.6368   20.2071 C   0  0  0  0  0  0  0  0  0  0  0  0
    4.9473    0.6929   21.2029 H   0  0  0  0  0  0  0  0  0  0  0  0
    4.7888    1.2949   19.1352 C   0  0  0  0  0  0  0  0  0  0  0  0
    3.8639    1.8505   19.2468 H   0  0  0  0  0  0  0  0  0  0  0  0
  1  2  1  0
  2  3  2  0
  3  4  1  0
  4  5  1  0
  4  6  2  0
  6  7  1  0
  7  8  2  0
  7  9  1  0
  9 10  1  0
  9 11  1  0
 11 12  1  0
 12 13  2  0
 13 14  1  0
 14 15  1  0
 14 16  2  0
 16 17  1  0
 16 18  1  0
 18 19  1  0
 18 20  2  0
 20 21  1  0
 21 22  1  0
 21 23  1  0
 21 24  1  0
 11 25  1  0
 25 26  1  0
 25 27  1  0
 25 28  1  0
  6 29  1  0
 29 30  1  0
 29 31  2  0
 31 32  1  0
 31  2  1  0
 20 12  1  0
M  END
>  <plip>  (1) 
-0.03571428571428571

>  <filename>  (1) 
[H][c]1[n][c]([H])[c]([C](=[O])[N]([H])[N]([c]2[n][c]([H])[c]([H])[c]([H])[c]2[C]([F])([F])[F])[C]([H])([H])[H])[c]([H])[c]1[H]

$$$$
