
     RDKit          3D

 37 40  0  0  0  0  0  0  0  0999 V2000
    4.9777   -3.2639   26.7355 I   0  0  0  0  0  0  0  0  0  0  0  0
    4.7683   -1.1594   25.9641 C   0  0  0  0  0  0  0  0  0  0  0  0
    3.7126   -0.3905   26.4564 C   0  0  0  0  0  0  0  0  0  0  0  0
    3.5171    0.9166   26.0055 C   0  0  0  0  0  0  0  0  0  0  0  0
    4.3889    1.4700   25.0661 C   0  0  0  0  0  0  0  0  0  0  0  0
    5.4547    0.7096   24.5794 C   0  0  0  0  0  0  0  0  0  0  0  0
    5.6488   -0.6117   25.0118 C   0  0  0  0  0  0  0  0  0  0  0  0
    6.6891   -1.3646   24.5391 O   0  0  0  0  0  0  0  0  0  0  0  0
    7.2233   -1.0424   23.3275 C   0  0  0  0  0  0  0  0  0  0  0  0
    6.5302   -0.4155   22.3637 N   0  0  0  0  0  0  0  0  0  0  0  0
    7.0960   -0.2830   21.1653 C   0  0  0  0  0  0  0  0  0  0  0  0
    6.3840    0.3150   20.0350 C   0  0  0  0  0  0  0  0  0  0  0  0
    5.1327    0.9591   20.0919 C   0  0  0  0  0  0  0  0  0  0  0  0
    4.6186    1.4588   18.8932 C   0  0  0  0  0  0  0  0  0  0  0  0
    5.3352    1.3163   17.7025 C   0  0  0  0  0  0  0  0  0  0  0  0
    6.5214    0.6906   17.6519 N   0  0  0  0  0  0  0  0  0  0  0  0
    7.0238    0.2150   18.7966 C   0  0  0  0  0  0  0  0  0  0  0  0
    7.9895   -0.2786   18.7452 H   0  0  0  0  0  0  0  0  0  0  0  0
    4.9230    1.7266   16.7888 H   0  0  0  0  0  0  0  0  0  0  0  0
    3.6645    1.9709   18.8603 H   0  0  0  0  0  0  0  0  0  0  0  0
    4.5703    1.0841   21.0183 H   0  0  0  0  0  0  0  0  0  0  0  0
    8.3176   -0.7587   20.9038 N   0  0  0  0  0  0  0  0  0  0  0  0
    8.9915   -1.3465   21.8733 C   0  0  0  0  0  0  0  0  0  0  0  0
    8.5070   -1.4904   23.1246 C   0  0  0  0  0  0  0  0  0  0  0  0
    9.4868   -2.2029   24.0161 C   0  0  0  0  0  0  0  0  0  0  0  0
   10.3838   -2.8977   22.9878 C   0  0  0  0  0  0  0  0  0  0  0  0
   10.2716   -2.0584   21.7011 C   0  0  0  0  0  0  0  0  0  0  0  0
   11.0880   -1.3382   21.5921 H   0  0  0  0  0  0  0  0  0  0  0  0
   10.2078   -2.6834   20.8100 H   0  0  0  0  0  0  0  0  0  0  0  0
    9.9913   -3.9050   22.8250 H   0  0  0  0  0  0  0  0  0  0  0  0
   11.4211   -2.9725   23.3212 H   0  0  0  0  0  0  0  0  0  0  0  0
   10.0663   -1.4925   24.6151 H   0  0  0  0  0  0  0  0  0  0  0  0
    9.0005   -2.9206   24.6878 H   0  0  0  0  0  0  0  0  0  0  0  0
    6.1501    1.1271   23.8587 H   0  0  0  0  0  0  0  0  0  0  0  0
    4.2447    2.4899   24.7229 H   0  0  0  0  0  0  0  0  0  0  0  0
    2.6933    1.5040   26.3948 H   0  0  0  0  0  0  0  0  0  0  0  0
    3.0487   -0.8187   27.2002 H   0  0  0  0  0  0  0  0  0  0  0  0
  1  2  1  0
  2  3  2  0
  3  4  1  0
  4  5  2  0
  5  6  1  0
  6  7  2  0
  7  8  1  0
  8  9  1  0
  9 10  2  0
 10 11  1  0
 11 12  1  0
 12 13  2  0
 13 14  1  0
 14 15  2  0
 15 16  1  0
 16 17  2  0
 17 18  1  0
 15 19  1  0
 14 20  1  0
 13 21  1  0
 11 22  2  0
 22 23  1  0
 23 24  2  0
 24 25  1  0
 25 26  1  0
 26 27  1  0
 27 28  1  0
 27 29  1  0
 26 30  1  0
 26 31  1  0
 25 32  1  0
 25 33  1  0
  6 34  1  0
  5 35  1  0
  4 36  1  0
  3 37  1  0
  7  2  1  0
 24  9  1  0
 17 12  1  0
 27 23  1  0
M  END
>  <plip>  (1) 
-0.0

>  <filename>  (1) 
[H][c]1[n][c]([H])[c](-[c]2[n][c]([O][c]3[c]([H])[c]([H])[c]([H])[c]([H])[c]3[I])[c]3[c]([n]2)[C]([H])([H])[C]([H])([H])[C]3([H])[H])[c]([H])[c]1[H]

$$$$
