
     RDKit          3D

 51 53  0  0  0  0  0  0  0  0999 V2000
    7.5314    1.3760   23.9024 C   0  0  0  0  0  0  0  0  0  0  0  0
    7.3977    1.1520   22.5144 O   0  0  0  0  0  0  0  0  0  0  0  0
    8.1860    0.1366   21.9390 C   0  0  0  0  0  0  0  0  0  0  0  0
    9.1707    0.6444   21.0867 O   0  0  0  0  0  0  0  0  0  0  0  0
   10.1016    1.5453   21.6565 C   0  0  0  0  0  0  0  0  0  0  0  0
   10.7688    1.8372   20.8422 H   0  0  0  0  0  0  0  0  0  0  0  0
    9.6101    2.4412   22.0565 H   0  0  0  0  0  0  0  0  0  0  0  0
   10.7011    1.0731   22.4522 H   0  0  0  0  0  0  0  0  0  0  0  0
    7.3183   -0.8136   21.0644 C   0  0  0  0  0  0  0  0  0  0  0  0
    6.4980   -1.6919   21.9010 N   0  0  0  0  0  0  0  0  0  0  0  0
    5.9742   -2.8569   21.4050 C   0  0  0  0  0  0  0  0  0  0  0  0
    6.2046   -3.2704   20.2854 O   0  0  0  0  0  0  0  0  0  0  0  0
    5.1410   -3.6141   22.3666 C   0  0  0  0  0  0  0  0  0  0  0  0
    4.7369   -3.3305   23.6413 C   0  0  0  0  0  0  0  0  0  0  0  0
    3.7953   -4.1637   24.1616 N   0  0  0  0  0  0  0  0  0  0  0  0
    3.4749   -5.1272   23.3345 C   0  0  0  0  0  0  0  0  0  0  0  0
    2.3321   -6.0516   23.5319 C   0  0  0  0  0  0  0  0  0  0  0  0
    1.5101   -5.9204   24.6671 C   0  0  0  0  0  0  0  0  0  0  0  0
    0.4591   -6.8123   24.8782 C   0  0  0  0  0  0  0  0  0  0  0  0
    0.2077   -7.8739   24.0001 C   0  0  0  0  0  0  0  0  0  0  0  0
   -0.8184   -8.9252   24.3428 C   0  0  0  0  0  0  0  0  0  0  0  0
   -1.3402   -8.6833   25.2715 H   0  0  0  0  0  0  0  0  0  0  0  0
   -0.3550   -9.9135   24.4686 H   0  0  0  0  0  0  0  0  0  0  0  0
   -1.5716   -9.0269   23.5548 H   0  0  0  0  0  0  0  0  0  0  0  0
    0.9603   -7.9553   22.8049 C   0  0  0  0  0  0  0  0  0  0  0  0
    0.6475   -9.0119   21.7738 C   0  0  0  0  0  0  0  0  0  0  0  0
    1.3646   -9.0050   20.9509 H   0  0  0  0  0  0  0  0  0  0  0  0
   -0.3482   -8.8596   21.3404 H   0  0  0  0  0  0  0  0  0  0  0  0
    0.6564  -10.0189   22.2048 H   0  0  0  0  0  0  0  0  0  0  0  0
    1.9974   -7.0448   22.5858 C   0  0  0  0  0  0  0  0  0  0  0  0
    2.5389   -7.1214   21.6453 H   0  0  0  0  0  0  0  0  0  0  0  0
   -0.1826   -6.6988   25.7491 H   0  0  0  0  0  0  0  0  0  0  0  0
    1.7000   -5.1186   25.3772 H   0  0  0  0  0  0  0  0  0  0  0  0
    4.4673   -5.1397   21.8976 S   0  0  0  0  0  0  0  0  0  0  0  0
    5.0928   -2.5272   24.2861 H   0  0  0  0  0  0  0  0  0  0  0  0
    5.9521   -1.2455   22.6213 H   0  0  0  0  0  0  0  0  0  0  0  0
    6.5328   -0.1105   19.9585 C   0  0  0  0  0  0  0  0  0  0  0  0
    5.3399    0.5987   20.1588 C   0  0  0  0  0  0  0  0  0  0  0  0
    4.7834    1.2880   19.0780 C   0  0  0  0  0  0  0  0  0  0  0  0
    5.4349    1.2429   17.8396 C   0  0  0  0  0  0  0  0  0  0  0  0
    6.5610    0.5493   17.6175 N   0  0  0  0  0  0  0  0  0  0  0  0
    7.0764   -0.1084   18.6645 C   0  0  0  0  0  0  0  0  0  0  0  0
    7.9943   -0.6661   18.4698 H   0  0  0  0  0  0  0  0  0  0  0  0
    5.0350    1.7832   16.9839 H   0  0  0  0  0  0  0  0  0  0  0  0
    3.8738    1.8700   19.1847 H   0  0  0  0  0  0  0  0  0  0  0  0
    4.8641    0.6389   21.1415 H   0  0  0  0  0  0  0  0  0  0  0  0
    8.0493   -1.4543   20.5711 H   0  0  0  0  0  0  0  0  0  0  0  0
    8.6572   -0.4817   22.7274 H   0  0  0  0  0  0  0  0  0  0  0  0
    8.5586    1.6450   24.1911 H   0  0  0  0  0  0  0  0  0  0  0  0
    7.2170    0.5061   24.5043 H   0  0  0  0  0  0  0  0  0  0  0  0
    6.8639    2.2127   24.1196 H   0  0  0  0  0  0  0  0  0  0  0  0
  1  2  1  0
  2  3  1  0
  3  4  1  0
  4  5  1  0
  5  6  1  0
  5  7  1  0
  5  8  1  0
  3  9  1  0
  9 10  1  0
 10 11  1  0
 11 12  2  0
 11 13  1  0
 13 14  2  0
 14 15  1  0
 15 16  2  0
 16 17  1  0
 17 18  2  0
 18 19  1  0
 19 20  2  0
 20 21  1  0
 21 22  1  0
 21 23  1  0
 21 24  1  0
 20 25  1  0
 25 26  1  0
 26 27  1  0
 26 28  1  0
 26 29  1  0
 25 30  2  0
 30 31  1  0
 19 32  1  0
 18 33  1  0
 16 34  1  0
 14 35  1  0
 10 36  1  0
  9 37  1  0
 37 38  2  0
 38 39  1  0
 39 40  2  0
 40 41  1  0
 41 42  2  0
 42 43  1  0
 40 44  1  0
 39 45  1  0
 38 46  1  0
  9 47  1  0
  3 48  1  0
  1 49  1  0
  1 50  1  0
  1 51  1  0
 34 13  1  0
 42 37  1  0
 30 17  1  0
M  END
>  <plip>  (1) 
-0.1724137931034483

>  <filename>  (1) 
[H][c]1[n][c](-[c]2[c]([H])[c]([H])[c]([C]([H])([H])[H])[c]([C]([H])([H])[H])[c]2[H])[s][c]1[C](=[O])[N]([H])[C]([H])([c]1[c]([H])[n][c]([H])[c]([H])[c]1[H])[C]([H])([O][C]([H])([H])[H])[O][C]([H])([H])[H]

$$$$
