
     RDKit          3D

 43 45  0  0  0  0  0  0  0  0999 V2000
    7.4155    0.7487   22.8568 C   0  0  0  0  0  0  0  0  0  0  0  0
    8.2119   -0.0396   21.8110 C   0  0  0  0  0  0  0  0  0  0  0  0
    9.1947    0.8382   21.0553 C   0  0  0  0  0  0  0  0  0  0  0  0
    9.9290    1.2676   21.7458 H   0  0  0  0  0  0  0  0  0  0  0  0
    8.6588    1.6522   20.5579 H   0  0  0  0  0  0  0  0  0  0  0  0
    9.7147    0.2483   20.2947 H   0  0  0  0  0  0  0  0  0  0  0  0
    7.3586   -0.7962   20.8552 N   0  0  0  0  0  0  0  0  0  0  0  0
    6.8135   -2.0289   21.2398 C   0  0  0  0  0  0  0  0  0  0  0  0
    5.8112   -2.4873   20.7218 O   0  0  0  0  0  0  0  0  0  0  0  0
    7.6171   -2.8373   22.3481 C   0  0  0  0  0  0  0  0  0  0  0  0
    7.4696   -2.2923   23.6583 O   0  0  0  0  0  0  0  0  0  0  0  0
    6.1963   -2.6122   24.2085 C   0  0  0  0  0  0  0  0  0  0  0  0
    6.0863   -4.0978   24.5309 C   0  0  0  0  0  0  0  0  0  0  0  0
    6.5131   -4.9128   23.3284 C   0  0  0  0  0  0  0  0  0  0  0  0
    6.1645   -6.2642   23.1817 C   0  0  0  0  0  0  0  0  0  0  0  0
    6.6306   -6.9835   22.0806 C   0  0  0  0  0  0  0  0  0  0  0  0
    6.4477   -8.3272   21.9794 O   0  0  0  0  0  0  0  0  0  0  0  0
    5.5981   -8.5364   22.3873 H   0  0  0  0  0  0  0  0  0  0  0  0
    7.3419   -6.3453   21.0562 C   0  0  0  0  0  0  0  0  0  0  0  0
    7.7118   -5.0248   21.2178 C   0  0  0  0  0  0  0  0  0  0  0  0
    7.2956   -4.3064   22.3320 C   0  0  0  0  0  0  0  0  0  0  0  0
    8.3294   -4.5243   20.4848 H   0  0  0  0  0  0  0  0  0  0  0  0
    7.5886   -6.8389   20.1284 H   0  0  0  0  0  0  0  0  0  0  0  0
    5.5442   -6.7751   23.9192 H   0  0  0  0  0  0  0  0  0  0  0  0
    5.0400   -4.3254   24.7697 H   0  0  0  0  0  0  0  0  0  0  0  0
    6.6994   -4.3477   25.4082 H   0  0  0  0  0  0  0  0  0  0  0  0
    6.0544   -1.9692   25.0802 H   0  0  0  0  0  0  0  0  0  0  0  0
    5.4369   -2.3882   23.4578 H   0  0  0  0  0  0  0  0  0  0  0  0
    8.6715   -2.7175   22.0806 H   0  0  0  0  0  0  0  0  0  0  0  0
    6.6801   -0.0554   19.8036 C   0  0  0  0  0  0  0  0  0  0  0  0
    5.4742    0.5993   20.0744 C   0  0  0  0  0  0  0  0  0  0  0  0
    4.8463    1.3233   19.0532 C   0  0  0  0  0  0  0  0  0  0  0  0
    5.4461    1.3739   17.7920 C   0  0  0  0  0  0  0  0  0  0  0  0
    6.5976    0.7466   17.5038 N   0  0  0  0  0  0  0  0  0  0  0  0
    7.1931    0.0560   18.4901 C   0  0  0  0  0  0  0  0  0  0  0  0
    8.1219   -0.4517   18.2217 H   0  0  0  0  0  0  0  0  0  0  0  0
    4.9852    1.9330   16.9790 H   0  0  0  0  0  0  0  0  0  0  0  0
    3.9139    1.8464   19.2294 H   0  0  0  0  0  0  0  0  0  0  0  0
    5.0442    0.5266   21.0739 H   0  0  0  0  0  0  0  0  0  0  0  0
    8.7916   -0.7823   22.3620 H   0  0  0  0  0  0  0  0  0  0  0  0
    6.7609    0.1010   23.4494 H   0  0  0  0  0  0  0  0  0  0  0  0
    8.1156    1.2302   23.5522 H   0  0  0  0  0  0  0  0  0  0  0  0
    6.8164    1.5375   22.3910 H   0  0  0  0  0  0  0  0  0  0  0  0
  1  2  1  0
  2  3  1  0
  3  4  1  0
  3  5  1  0
  3  6  1  0
  2  7  1  0
  7  8  1  0
  8  9  2  0
  8 10  1  0
 10 11  1  0
 11 12  1  0
 12 13  1  0
 13 14  1  0
 14 15  2  0
 15 16  1  0
 16 17  1  0
 17 18  1  0
 16 19  2  0
 19 20  1  0
 20 21  2  0
 20 22  1  0
 19 23  1  0
 15 24  1  0
 13 25  1  0
 13 26  1  0
 12 27  1  0
 12 28  1  0
 10 29  1  0
  7 30  1  0
 30 31  2  0
 31 32  1  0
 32 33  2  0
 33 34  1  0
 34 35  2  0
 35 36  1  0
 33 37  1  0
 32 38  1  0
 31 39  1  0
  2 40  1  0
  1 41  1  0
  1 42  1  0
  1 43  1  0
 21 10  1  0
 35 30  1  0
 21 14  1  0
M  END
>  <plip>  (1) 
-0.1

>  <filename>  (1) 
[H][O][c]1[c]([H])[c]([H])[c]2[c]([c]1[H])[C]([H])([H])[C]([H])([H])[O][C]2([H])[C](=[O])[N]([c]1[c]([H])[n][c]([H])[c]([H])[c]1[H])[C]([H])([C]([H])([H])[H])[C]([H])([H])[H]

$$$$
