
     RDKit          3D

 39 41  0  0  0  0  0  0  0  0999 V2000
    6.7624   -2.9598   20.6832 C   0  0  0  0  0  0  0  0  0  0  0  0
    7.8540   -1.9227   21.0180 C   0  0  0  0  0  0  0  0  0  0  0  0
    8.6921   -2.4365   22.1993 C   0  0  0  0  0  0  0  0  0  0  0  0
    9.1702   -3.3869   21.9325 H   0  0  0  0  0  0  0  0  0  0  0  0
    9.4800   -1.7273   22.4783 H   0  0  0  0  0  0  0  0  0  0  0  0
    8.0630   -2.6222   23.0799 H   0  0  0  0  0  0  0  0  0  0  0  0
    7.2057   -0.5284   21.2792 C   0  0  0  0  0  0  0  0  0  0  0  0
    8.1396    0.4480   21.8412 N   0  0  0  0  0  0  0  0  0  0  0  0
    9.2227    0.9303   21.1964 C   0  0  0  0  0  0  0  0  0  0  0  0
    9.5531    0.5325   20.0860 O   0  0  0  0  0  0  0  0  0  0  0  0
   10.0276    1.9798   21.9218 C   0  0  0  0  0  0  0  0  0  0  0  0
   11.2026    2.5449   21.4714 C   0  0  0  0  0  0  0  0  0  0  0  0
   11.5725    3.4386   22.4464 N   0  0  0  0  0  0  0  0  0  0  0  0
   12.6652    4.2695   22.5736 C   0  0  0  0  0  0  0  0  0  0  0  0
   12.7560    5.0444   23.6903 C   0  0  0  0  0  0  0  0  0  0  0  0
   11.6884    4.9594   24.6584 C   0  0  0  0  0  0  0  0  0  0  0  0
   10.6431    4.1839   24.5529 N   0  0  0  0  0  0  0  0  0  0  0  0
   10.5736    3.3870   23.4516 C   0  0  0  0  0  0  0  0  0  0  0  0
    9.6557    2.5007   23.1375 N   0  0  0  0  0  0  0  0  0  0  0  0
   11.7365    5.5664   25.5593 H   0  0  0  0  0  0  0  0  0  0  0  0
   13.5939    5.7115   23.8598 H   0  0  0  0  0  0  0  0  0  0  0  0
   13.3911    4.2490   21.7630 H   0  0  0  0  0  0  0  0  0  0  0  0
   11.7723    2.4107   20.5555 H   0  0  0  0  0  0  0  0  0  0  0  0
    7.9679    0.8427   22.7516 H   0  0  0  0  0  0  0  0  0  0  0  0
    6.5074    0.0786   20.0664 C   0  0  0  0  0  0  0  0  0  0  0  0
    5.2863    0.7582   20.1891 C   0  0  0  0  0  0  0  0  0  0  0  0
    4.7264    1.3630   19.0609 C   0  0  0  0  0  0  0  0  0  0  0  0
    5.4080    1.2747   17.8431 C   0  0  0  0  0  0  0  0  0  0  0  0
    6.5727    0.6301   17.7014 N   0  0  0  0  0  0  0  0  0  0  0  0
    7.1043    0.0614   18.7942 C   0  0  0  0  0  0  0  0  0  0  0  0
    8.0883   -0.3771   18.6517 H   0  0  0  0  0  0  0  0  0  0  0  0
    5.0088    1.7393   16.9448 H   0  0  0  0  0  0  0  0  0  0  0  0
    3.7971    1.9177   19.1133 H   0  0  0  0  0  0  0  0  0  0  0  0
    4.7917    0.8358   21.1591 H   0  0  0  0  0  0  0  0  0  0  0  0
    6.4432   -0.6827   22.0550 H   0  0  0  0  0  0  0  0  0  0  0  0
    8.5554   -1.7699   20.1931 H   0  0  0  0  0  0  0  0  0  0  0  0
    6.0646   -3.0085   21.5255 H   0  0  0  0  0  0  0  0  0  0  0  0
    6.1855   -2.7166   19.7818 H   0  0  0  0  0  0  0  0  0  0  0  0
    7.1766   -3.9688   20.5664 H   0  0  0  0  0  0  0  0  0  0  0  0
  1  2  1  0
  2  3  1  0
  3  4  1  0
  3  5  1  0
  3  6  1  0
  2  7  1  0
  7  8  1  0
  8  9  1  0
  9 10  2  0
  9 11  1  0
 11 12  2  0
 12 13  1  0
 13 14  1  0
 14 15  2  0
 15 16  1  0
 16 17  2  0
 17 18  1  0
 18 19  2  0
 16 20  1  0
 15 21  1  0
 14 22  1  0
 12 23  1  0
  8 24  1  0
  7 25  1  0
 25 26  2  0
 26 27  1  0
 27 28  2  0
 28 29  1  0
 29 30  2  0
 30 31  1  0
 28 32  1  0
 27 33  1  0
 26 34  1  0
  7 35  1  0
  2 36  1  0
  1 37  1  0
  1 38  1  0
  1 39  1  0
 19 11  1  0
 30 25  1  0
 18 13  1  0
M  END
>  <plip>  (1) 
-0.03571428571428571

>  <filename>  (1) 
[H][c]1[n][c]([H])[c]([C]([H])([N]([H])[C](=[O])[c]2[n][c]3[n][c]([H])[c]([H])[c]([H])[n]3[c]2[H])[C]([H])([C]([H])([H])[H])[C]([H])([H])[H])[c]([H])[c]1[H]

$$$$
