
     RDKit          3D

 24 25  0  0  0  0  0  0  0  0999 V2000
    4.9585    5.3780   24.6212 N   0  0  0  0  0  0  0  0  0  0  0  0
    5.5883    4.5200   24.1686 C   0  0  0  0  0  0  0  0  0  0  0  0
    6.3819    3.5012   23.5264 C   0  0  0  0  0  0  0  0  0  0  0  0
    6.7022    2.4089   24.2629 N   0  0  0  0  0  0  0  0  0  0  0  0
    7.4465    1.4924   23.6452 C   0  0  0  0  0  0  0  0  0  0  0  0
    7.8881    1.6319   22.3109 C   0  0  0  0  0  0  0  0  0  0  0  0
    8.8194    0.3182   21.5526 S   0  0  0  0  0  0  0  0  0  0  0  0
    7.3981   -0.7077   20.9781 C   0  0  0  0  0  0  0  0  0  0  0  0
    6.6221   -0.0258   19.8856 C   0  0  0  0  0  0  0  0  0  0  0  0
    5.4096    0.6246   20.1391 C   0  0  0  0  0  0  0  0  0  0  0  0
    4.7893    1.3069   19.0905 C   0  0  0  0  0  0  0  0  0  0  0  0
    5.3934    1.2974   17.8310 C   0  0  0  0  0  0  0  0  0  0  0  0
    6.5595    0.6866   17.5731 N   0  0  0  0  0  0  0  0  0  0  0  0
    7.1565    0.0593   18.5891 C   0  0  0  0  0  0  0  0  0  0  0  0
    8.1154   -0.4128   18.3773 H   0  0  0  0  0  0  0  0  0  0  0  0
    4.9189    1.7906   16.9872 H   0  0  0  0  0  0  0  0  0  0  0  0
    3.8655    1.8496   19.2462 H   0  0  0  0  0  0  0  0  0  0  0  0
    4.9998    0.6377   21.1528 H   0  0  0  0  0  0  0  0  0  0  0  0
    7.8222   -1.6661   20.6451 H   0  0  0  0  0  0  0  0  0  0  0  0
    6.7580   -0.9163   21.8423 H   0  0  0  0  0  0  0  0  0  0  0  0
    7.5871    2.7356   21.5935 N   0  0  0  0  0  0  0  0  0  0  0  0
    6.8154    3.6505   22.2003 C   0  0  0  0  0  0  0  0  0  0  0  0
    6.5453    4.5211   21.6139 H   0  0  0  0  0  0  0  0  0  0  0  0
    7.7036    0.6139   24.2264 H   0  0  0  0  0  0  0  0  0  0  0  0
  1  2  3  0
  2  3  1  0
  3  4  2  0
  4  5  1  0
  5  6  2  0
  6  7  1  0
  7  8  1  0
  8  9  1  0
  9 10  2  0
 10 11  1  0
 11 12  2  0
 12 13  1  0
 13 14  2  0
 14 15  1  0
 12 16  1  0
 11 17  1  0
 10 18  1  0
  8 19  1  0
  8 20  1  0
  6 21  1  0
 21 22  2  0
 22 23  1  0
  5 24  1  0
 22  3  1  0
 14  9  1  0
M  END
>  <plip>  (1) 
-0.03571428571428571

>  <filename>  (1) 
[H][c]1[n][c]([S][C]([H])([H])[c]2[c]([H])[n][c]([H])[c]([H])[c]2[H])[c]([H])[n][c]1[C]#[N]

$$$$
