
     RDKit          3D

 44 45  0  0  0  0  0  0  0  0999 V2000
    5.7012   -2.4774   21.6388 C   0  0  0  0  0  0  0  0  0  0  0  0
    7.0290   -2.2331   20.9633 N   0  0  0  0  0  4  0  0  0  0  0  0
    8.0268   -3.1758   21.5518 C   0  0  0  0  0  0  0  0  0  0  0  0
    9.0217   -3.0204   21.1232 H   0  0  0  0  0  0  0  0  0  0  0  0
    7.7140   -4.2122   21.3737 H   0  0  0  0  0  0  0  0  0  0  0  0
    8.1149   -3.0494   22.6403 H   0  0  0  0  0  0  0  0  0  0  0  0
    7.4653   -0.7303   20.9436 C   0  0  0  0  0  0  0  0  0  0  0  0
    7.4213   -0.0949   22.3529 C   0  0  0  0  0  0  0  0  0  0  0  0
    8.0538    1.2583   22.4385 N   0  0  0  0  0  4  0  0  0  0  0  0
    7.9632    2.0101   23.7394 C   0  0  0  0  0  0  0  0  0  0  0  0
    8.6110    3.3707   23.5448 C   0  0  0  0  0  0  0  0  0  0  0  0
    7.9064    4.4886   23.0749 C   0  0  0  0  0  0  0  0  0  0  0  0
    8.5628    5.7116   22.9009 C   0  0  0  0  0  0  0  0  0  0  0  0
    9.8622    5.8850   23.1699 N   0  0  0  0  0  0  0  0  0  0  0  0
   10.5538    4.8252   23.5959 C   0  0  0  0  0  0  0  0  0  0  0  0
    9.9849    3.5671   23.7951 C   0  0  0  0  0  0  0  0  0  0  0  0
   10.8485    2.4053   24.1417 C   0  0  0  0  0  0  0  0  0  0  0  0
   12.1597    2.7279   24.1367 F   0  0  0  0  0  0  0  0  0  0  0  0
   10.6603    1.4316   23.1709 F   0  0  0  0  0  0  0  0  0  0  0  0
   10.6037    1.9376   25.0987 H   0  0  0  0  0  0  0  0  0  0  0  0
   11.6126    4.9842   23.7901 H   0  0  0  0  0  0  0  0  0  0  0  0
    8.0232    6.5853   22.5317 H   0  0  0  0  0  0  0  0  0  0  0  0
    6.8593    4.4277   22.8075 H   0  0  0  0  0  0  0  0  0  0  0  0
    8.4912    1.4723   24.5304 H   0  0  0  0  0  0  0  0  0  0  0  0
    6.9253    2.1192   24.0660 H   0  0  0  0  0  0  0  0  0  0  0  0
    9.0781    1.2103   22.2321 H   0  0  0  0  0  0  0  0  0  0  0  0
    7.6266    1.8985   21.7145 H   0  0  0  0  0  0  0  0  0  0  0  0
    6.3779   -0.0674   22.6925 H   0  0  0  0  0  0  0  0  0  0  0  0
    7.9136   -0.8089   23.0229 H   0  0  0  0  0  0  0  0  0  0  0  0
    6.6416   -0.0403   19.8653 C   0  0  0  0  0  0  0  0  0  0  0  0
    5.4431    0.6541   20.1044 C   0  0  0  0  0  0  0  0  0  0  0  0
    4.8227    1.3232   19.0442 C   0  0  0  0  0  0  0  0  0  0  0  0
    5.4114    1.2805   17.7770 C   0  0  0  0  0  0  0  0  0  0  0  0
    6.5353    0.5934   17.5189 N   0  0  0  0  0  0  0  0  0  0  0  0
    7.1119   -0.0501   18.5385 C   0  0  0  0  0  0  0  0  0  0  0  0
    8.0260   -0.5887   18.2883 H   0  0  0  0  0  0  0  0  0  0  0  0
    4.9668    1.8148   16.9362 H   0  0  0  0  0  0  0  0  0  0  0  0
    3.9014    1.8807   19.1812 H   0  0  0  0  0  0  0  0  0  0  0  0
    4.9974    0.6845   21.1034 H   0  0  0  0  0  0  0  0  0  0  0  0
    8.5129   -0.7359   20.6141 H   0  0  0  0  0  0  0  0  0  0  0  0
    6.9145   -2.4367   19.9389 H   0  0  0  0  0  0  0  0  0  0  0  0
    5.3488   -3.4962   21.4388 H   0  0  0  0  0  0  0  0  0  0  0  0
    5.7836   -2.3642   22.7271 H   0  0  0  0  0  0  0  0  0  0  0  0
    4.9626   -1.7492   21.2985 H   0  0  0  0  0  0  0  0  0  0  0  0
  1  2  1  0
  2  3  1  0
  3  4  1  0
  3  5  1  0
  3  6  1  0
  2  7  1  0
  7  8  1  0
  8  9  1  0
  9 10  1  0
 10 11  1  0
 11 12  2  0
 12 13  1  0
 13 14  2  0
 14 15  1  0
 15 16  2  0
 16 17  1  0
 17 18  1  0
 17 19  1  0
 17 20  1  0
 15 21  1  0
 13 22  1  0
 12 23  1  0
 10 24  1  0
 10 25  1  0
  9 26  1  0
  9 27  1  0
  8 28  1  0
  8 29  1  0
  7 30  1  0
 30 31  2  0
 31 32  1  0
 32 33  2  0
 33 34  1  0
 34 35  2  0
 35 36  1  0
 33 37  1  0
 32 38  1  0
 31 39  1  0
  7 40  1  0
  2 41  1  0
  1 42  1  0
  1 43  1  0
  1 44  1  0
 16 11  1  0
 35 30  1  0
M  CHG  2   2   1   9   1
M  END
>  <plip>  (1) 
-0.10714285714285714

>  <filename>  (1) 
[H][c]1[n][c]([H])[c]([C]([H])([C]([H])([H])[N+]([H])([H])[C]([H])([H])[c]2[c]([H])[c]([H])[n][c]([H])[c]2[C]([H])([F])[F])[N+]([H])([C]([H])([H])[H])[C]([H])([H])[H])[c]([H])[c]1[H]

$$$$
