
     RDKit          3D

 38 40  0  0  0  0  0  0  0  0999 V2000
    4.9220    1.7795   16.9984 H   0  0  0  0  0  0  0  0  0  0  0  0
    5.4021    1.2934   17.8418 C   0  0  0  0  0  0  0  0  0  0  0  0
    6.5668    0.6784   17.5817 N   0  0  0  0  0  0  0  0  0  0  0  0
    7.1669    0.0560   18.5954 C   0  0  0  0  0  0  0  0  0  0  0  0
    8.1137   -0.4362   18.3793 H   0  0  0  0  0  0  0  0  0  0  0  0
    6.6485    0.0232   19.8970 C   0  0  0  0  0  0  0  0  0  0  0  0
    7.3964   -0.7092   20.9122 C   0  0  0  0  0  0  0  0  0  0  0  0
    7.9559   -1.8926   20.7769 N   0  0  0  0  0  0  0  0  0  0  0  0
    8.5165   -2.1879   21.9682 N   0  0  0  0  0  0  0  0  0  0  0  0
    8.3456   -1.2249   22.8040 N   0  0  0  0  0  0  0  0  0  0  0  0
    7.6573   -0.2673   22.1598 N   0  0  0  0  0  0  0  0  0  0  0  0
    7.2665    0.9684   22.8079 C   0  0  0  0  0  0  0  0  0  0  0  0
    8.0759    1.2475   23.4935 H   0  0  0  0  0  0  0  0  0  0  0  0
    7.1656    1.7408   22.0443 H   0  0  0  0  0  0  0  0  0  0  0  0
    6.0422    0.8509   23.4698 O   0  0  0  0  0  0  0  0  0  0  0  0
    6.1453    0.4081   24.8251 C   0  0  0  0  0  0  0  0  0  0  0  0
    7.0222   -0.2482   24.9436 H   0  0  0  0  0  0  0  0  0  0  0  0
    5.2587   -0.2094   25.0079 H   0  0  0  0  0  0  0  0  0  0  0  0
    6.2190    1.5962   25.8012 C   0  0  0  0  0  0  0  0  0  0  0  0
    7.0768    2.2114   25.4891 H   0  0  0  0  0  0  0  0  0  0  0  0
    6.4661    1.1243   27.2481 C   0  0  0  0  0  0  0  0  0  0  0  0
    7.2814    0.3929   27.2710 H   0  0  0  0  0  0  0  0  0  0  0  0
    6.7931    1.9762   27.8540 H   0  0  0  0  0  0  0  0  0  0  0  0
    5.2129    0.5264   27.8921 C   0  0  0  0  0  0  0  0  0  0  0  0
    5.4169    0.2882   28.9413 H   0  0  0  0  0  0  0  0  0  0  0  0
    4.9607   -0.4283   27.3905 H   0  0  0  0  0  0  0  0  0  0  0  0
    4.1171    1.4951   27.8346 N   0  0  0  0  0  0  0  0  0  0  0  0
    3.3054    1.0843   28.2870 H   0  0  0  0  0  0  0  0  0  0  0  0
    3.7594    1.8323   26.4568 C   0  0  0  0  0  0  0  0  0  0  0  0
    2.9188    2.5345   26.4755 H   0  0  0  0  0  0  0  0  0  0  0  0
    3.4222    0.9497   25.8796 H   0  0  0  0  0  0  0  0  0  0  0  0
    4.9533    2.4792   25.7508 C   0  0  0  0  0  0  0  0  0  0  0  0
    5.1645    3.4334   26.2446 H   0  0  0  0  0  0  0  0  0  0  0  0
    4.6925    2.7026   24.7126 H   0  0  0  0  0  0  0  0  0  0  0  0
    5.4281    0.6643   20.1647 C   0  0  0  0  0  0  0  0  0  0  0  0
    5.0044    0.6430   21.1788 H   0  0  0  0  0  0  0  0  0  0  0  0
    4.7981    1.3128   19.1048 C   0  0  0  0  0  0  0  0  0  0  0  0
    3.8676    1.8465   19.2554 H   0  0  0  0  0  0  0  0  0  0  0  0
  1  2  1  0
  2  3  2  0
  3  4  1  0
  4  5  1  0
  4  6  2  0
  6  7  1  0
  7  8  2  0
  8  9  1  0
  9 10  2  0
 10 11  1  0
 11 12  1  0
 12 13  1  0
 12 14  1  0
 12 15  1  0
 15 16  1  0
 16 17  1  0
 16 18  1  0
 16 19  1  0
 19 20  1  0
 19 21  1  0
 21 22  1  0
 21 23  1  0
 21 24  1  0
 24 25  1  0
 24 26  1  0
 24 27  1  0
 27 28  1  0
 27 29  1  0
 29 30  1  0
 29 31  1  0
 29 32  1  0
 32 33  1  0
 32 34  1  0
  6 35  1  0
 35 36  1  0
 35 37  2  0
 37 38  1  0
 37  2  1  0
 11  7  1  0
 32 19  1  0
M  END
>  <plip>  (1) 
-0.034482758620689655

>  <filename>  (1) 
[H][c]1[n][c]([H])[c](-[c]2[n][n][n][n]2[C]([H])([H])[O][C]([H])([H])[C]2([H])[C]([H])([H])[C]([H])([H])[N]([H])[C]([H])([H])[C]2([H])[H])[c]([H])[c]1[H]

$$$$
