
     RDKit          3D

 23 24  0  0  0  0  0  0  0  0999 V2000
    4.9209    1.8284   16.9735 H   0  0  0  0  0  0  0  0  0  0  0  0
    5.4020    1.3239   17.8106 C   0  0  0  0  0  0  0  0  0  0  0  0
    6.5639    0.7098   17.5405 N   0  0  0  0  0  0  0  0  0  0  0  0
    7.1744    0.0742   18.5522 C   0  0  0  0  0  0  0  0  0  0  0  0
    8.1255   -0.3947   18.3025 H   0  0  0  0  0  0  0  0  0  0  0  0
    6.6554   -0.0233   19.8662 C   0  0  0  0  0  0  0  0  0  0  0  0
    7.3306   -0.7871   20.9492 C   0  0  0  0  0  0  0  0  0  0  0  0
    8.6145   -0.6724   21.3880 C   0  0  0  0  0  0  0  0  0  0  0  0
    9.5258    0.3996   21.0412 N   0  0  0  0  0  4  0  0  0  0  0  0
    9.0458    1.4454   20.6341 O   0  0  0  0  0  0  0  0  0  0  0  0
   10.7210    0.1955   21.1836 O   0  0  0  0  0  1  0  0  0  0  0  0
    9.0243   -1.6462   22.4328 C   0  0  0  0  0  0  0  0  0  0  0  0
    9.4406   -1.1203   23.3028 H   0  0  0  0  0  0  0  0  0  0  0  0
    9.8413   -2.2899   22.0834 H   0  0  0  0  0  0  0  0  0  0  0  0
    7.7280   -2.4163   22.7381 C   0  0  0  0  0  0  0  0  0  0  0  0
    7.7917   -3.4974   22.5820 H   0  0  0  0  0  0  0  0  0  0  0  0
    7.3593   -2.2567   23.7560 H   0  0  0  0  0  0  0  0  0  0  0  0
    6.6885   -1.8764   21.7518 C   0  0  0  0  0  0  0  0  0  0  0  0
    5.5738   -2.3289   21.6326 O   0  0  0  0  0  0  0  0  0  0  0  0
    5.4368    0.6344   20.1091 C   0  0  0  0  0  0  0  0  0  0  0  0
    5.0052    0.5991   21.1097 H   0  0  0  0  0  0  0  0  0  0  0  0
    4.8024    1.3262   19.0746 C   0  0  0  0  0  0  0  0  0  0  0  0
    3.8656    1.8596   19.2252 H   0  0  0  0  0  0  0  0  0  0  0  0
  1  2  1  0
  2  3  2  0
  3  4  1  0
  4  5  1  0
  4  6  2  0
  6  7  1  0
  7  8  2  0
  8  9  1  0
  9 10  2  0
  9 11  1  0
  8 12  1  0
 12 13  1  0
 12 14  1  0
 12 15  1  0
 15 16  1  0
 15 17  1  0
 15 18  1  0
 18 19  2  0
  6 20  1  0
 20 21  1  0
 20 22  2  0
 22 23  1  0
 22  2  1  0
 18  7  1  0
M  CHG  2   9   1  11  -1
M  END
>  <plip>  (1) 
-0.07142857142857142

>  <filename>  (1) 
[H][c]1[n][c]([H])[c]([C]2=[C]([N+](=[O])[O-])[C]([H])([H])[C]([H])([H])[C]2=[O])[c]([H])[c]1[H]

$$$$
