
     RDKit          3D

 53 56  0  0  0  0  0  0  0  0999 V2000
    9.0308    3.4788   22.2023 O   0  0  0  0  0  0  0  0  0  0  0  0
    8.9664    2.3328   22.5730 C   0  0  0  0  0  0  0  0  0  0  0  0
    8.1453    1.3725   21.6866 C   0  0  0  0  0  0  0  0  0  0  0  0
    7.4099    0.0688   22.0922 N   0  0  0  0  0  4  0  0  0  0  0  0
    7.2147   -0.8796   20.8978 C   0  0  0  0  0  0  0  0  0  0  0  0
    6.4479   -2.1568   21.2636 C   0  0  0  0  0  0  0  0  0  0  0  0
    6.9474   -3.0016   22.4631 C   0  0  0  0  0  0  0  0  0  0  0  0
    8.4577   -3.3724   22.4357 C   0  0  0  0  0  0  0  0  0  0  0  0
    9.0527   -2.6561   23.6714 C   0  0  0  0  0  0  0  0  0  0  0  0
    8.0917   -1.6519   24.0004 O   0  0  0  0  0  0  0  0  0  0  0  0
    6.8178   -2.2752   23.8172 C   0  0  0  0  0  0  0  0  0  0  0  0
    6.0555   -1.4915   23.8438 H   0  0  0  0  0  0  0  0  0  0  0  0
    6.6082   -2.9736   24.6435 H   0  0  0  0  0  0  0  0  0  0  0  0
   10.0112   -2.1462   23.5196 H   0  0  0  0  0  0  0  0  0  0  0  0
    9.1630   -3.3508   24.5193 H   0  0  0  0  0  0  0  0  0  0  0  0
    8.6056   -4.4537   22.5015 H   0  0  0  0  0  0  0  0  0  0  0  0
    8.9463   -3.0493   21.5118 H   0  0  0  0  0  0  0  0  0  0  0  0
    6.3277   -3.9038   22.4789 H   0  0  0  0  0  0  0  0  0  0  0  0
    5.3995   -1.8785   21.4366 H   0  0  0  0  0  0  0  0  0  0  0  0
    6.4448   -2.7857   20.3653 H   0  0  0  0  0  0  0  0  0  0  0  0
    6.5419   -0.1087   19.7766 C   0  0  0  0  0  0  0  0  0  0  0  0
    5.3354    0.5943   19.9374 C   0  0  0  0  0  0  0  0  0  0  0  0
    4.8592    1.3710   18.8775 C   0  0  0  0  0  0  0  0  0  0  0  0
    5.5960    1.4133   17.6885 C   0  0  0  0  0  0  0  0  0  0  0  0
    6.7414    0.7422   17.5096 N   0  0  0  0  0  0  0  0  0  0  0  0
    7.1961    0.0208   18.5446 C   0  0  0  0  0  0  0  0  0  0  0  0
    8.1428   -0.4941   18.3722 H   0  0  0  0  0  0  0  0  0  0  0  0
    5.2470    2.0053   16.8431 H   0  0  0  0  0  0  0  0  0  0  0  0
    3.9549    1.9631   18.9672 H   0  0  0  0  0  0  0  0  0  0  0  0
    4.7840    0.5649   20.8817 H   0  0  0  0  0  0  0  0  0  0  0  0
    8.2213   -1.1518   20.5549 H   0  0  0  0  0  0  0  0  0  0  0  0
    6.4351    0.2927   22.4120 H   0  0  0  0  0  0  0  0  0  0  0  0
    7.8831   -0.4417   22.8806 H   0  0  0  0  0  0  0  0  0  0  0  0
    7.4411    2.0556   21.2112 H   0  0  0  0  0  0  0  0  0  0  0  0
    8.8627    1.1181   20.8913 H   0  0  0  0  0  0  0  0  0  0  0  0
    9.8133    1.8303   23.5923 N   0  0  0  0  0  0  0  0  0  0  0  0
   11.2470    1.9015   23.2483 C   0  0  0  0  0  0  0  0  0  0  0  0
   12.1492    1.6955   24.4474 C   0  0  0  0  0  0  0  0  0  0  0  0
   11.7703    0.1459   25.3003 S   0  0  0  0  0  0  0  0  0  0  0  0
   10.0507    0.4192   25.6066 C   0  0  0  0  0  0  0  0  0  0  0  0
    9.4550   -0.2180   26.7013 C   0  0  0  0  0  0  0  0  0  0  0  0
    8.0859   -0.0889   26.9496 C   0  0  0  0  0  0  0  0  0  0  0  0
    7.2998    0.6955   26.1052 C   0  0  0  0  0  0  0  0  0  0  0  0
    7.8909    1.3604   25.0334 C   0  0  0  0  0  0  0  0  0  0  0  0
    9.2631    1.2025   24.7299 C   0  0  0  0  0  0  0  0  0  0  0  0
    7.2768    1.9866   24.3942 H   0  0  0  0  0  0  0  0  0  0  0  0
    6.2288    0.7806   26.2887 H   0  0  0  0  0  0  0  0  0  0  0  0
    7.6447   -0.5932   27.8011 H   0  0  0  0  0  0  0  0  0  0  0  0
   10.0850   -0.7905   27.3751 H   0  0  0  0  0  0  0  0  0  0  0  0
   12.0725    2.5368   25.1390 H   0  0  0  0  0  0  0  0  0  0  0  0
   13.1881    1.6016   24.1168 H   0  0  0  0  0  0  0  0  0  0  0  0
   11.4399    2.9005   22.8290 H   0  0  0  0  0  0  0  0  0  0  0  0
   11.5037    1.1584   22.4711 H   0  0  0  0  0  0  0  0  0  0  0  0
  1  2  2  0
  2  3  1  0
  3  4  1  0
  4  5  1  0
  5  6  1  0
  6  7  1  0
  7  8  1  0
  8  9  1  0
  9 10  1  0
 10 11  1  0
 11 12  1  0
 11 13  1  0
  9 14  1  0
  9 15  1  0
  8 16  1  0
  8 17  1  0
  7 18  1  0
  6 19  1  0
  6 20  1  0
  5 21  1  0
 21 22  2  0
 22 23  1  0
 23 24  2  0
 24 25  1  0
 25 26  2  0
 26 27  1  0
 24 28  1  0
 23 29  1  0
 22 30  1  0
  5 31  1  0
  4 32  1  0
  4 33  1  0
  3 34  1  0
  3 35  1  0
  2 36  1  0
 36 37  1  0
 37 38  1  0
 38 39  1  0
 39 40  1  0
 40 41  2  0
 41 42  1  0
 42 43  2  0
 43 44  1  0
 44 45  2  0
 44 46  1  0
 43 47  1  0
 42 48  1  0
 41 49  1  0
 38 50  1  0
 38 51  1  0
 37 52  1  0
 37 53  1  0
 11  7  1  0
 26 21  1  0
 45 36  1  0
 45 40  1  0
M  CHG  1   4   1
M  END
>  <plip>  (1) 
-0.10344827586206896

>  <filename>  (1) 
[H][c]1[n][c]([H])[c]([C]([H])([C]([H])([H])[C]2([H])[C]([H])([H])[O][C]([H])([H])[C]2([H])[H])[N+]([H])([H])[C]([H])([H])[C](=[O])[N]2[c]3[c]([H])[c]([H])[c]([H])[c]([H])[c]3[S][C]([H])([H])[C]2([H])[H])[c]([H])[c]1[H]

$$$$
