
     RDKit          3D

 35 37  0  0  0  0  0  0  0  0999 V2000
    5.4382    1.5316   24.9047 H   0  0  0  0  0  0  0  0  0  0  0  0
    5.9492    2.0105   24.0690 C   0  0  0  0  0  0  0  0  0  0  0  0
    7.1993    1.5771   23.8245 N   0  0  0  0  0  0  0  0  0  0  0  0
    7.8723    2.1413   22.8097 C   0  0  0  0  0  0  0  0  0  0  0  0
    9.2460    1.5941   22.4453 C   0  0  0  0  0  0  0  0  0  0  0  0
    9.9926    2.3962   22.4470 H   0  0  0  0  0  0  0  0  0  0  0  0
    9.5724    0.8146   23.1330 H   0  0  0  0  0  0  0  0  0  0  0  0
    9.2865    1.0652   21.0941 O   0  0  0  0  0  0  0  0  0  0  0  0
    8.8702   -0.2502   21.0444 N   0  0  0  0  0  0  0  0  0  0  0  0
    9.7317   -1.2766   21.3496 C   0  0  0  0  0  0  0  0  0  0  0  0
   10.9182   -1.1801   21.5664 O   0  0  0  0  0  0  0  0  0  0  0  0
    8.8907   -2.5388   21.4075 C   0  0  0  0  0  0  0  0  0  0  0  0
    9.0120   -2.9497   22.4156 H   0  0  0  0  0  0  0  0  0  0  0  0
    9.3153   -3.2624   20.7161 H   0  0  0  0  0  0  0  0  0  0  0  0
    7.4490   -2.1240   21.0637 C   0  0  0  0  0  0  0  0  0  0  0  0
    7.1182   -2.4965   20.0904 H   0  0  0  0  0  0  0  0  0  0  0  0
    6.7258   -2.5120   21.7867 H   0  0  0  0  0  0  0  0  0  0  0  0
    7.4443   -0.5794   21.0588 C   0  0  2  0  0  0  0  0  0  0  0  0
    7.0197   -0.2240   22.0053 H   0  0  0  0  0  0  0  0  0  0  0  0
    6.6674    0.0698   19.9308 C   0  0  0  0  0  0  0  0  0  0  0  0
    7.1688    0.0793   18.6199 C   0  0  0  0  0  0  0  0  0  0  0  0
    8.1095   -0.4220   18.3947 H   0  0  0  0  0  0  0  0  0  0  0  0
    6.5637    0.6786   17.5843 N   0  0  0  0  0  0  0  0  0  0  0  0
    5.4081    1.3109   17.8330 C   0  0  0  0  0  0  0  0  0  0  0  0
    4.9446    1.8103   16.9848 H   0  0  0  0  0  0  0  0  0  0  0  0
    4.8022    1.3434   19.0936 C   0  0  0  0  0  0  0  0  0  0  0  0
    3.8675    1.8771   19.2255 H   0  0  0  0  0  0  0  0  0  0  0  0
    5.4439    0.7116   20.1607 C   0  0  0  0  0  0  0  0  0  0  0  0
    5.0146    0.7272   21.1650 H   0  0  0  0  0  0  0  0  0  0  0  0
    7.3505    3.2016   22.0564 C   0  0  0  0  0  0  0  0  0  0  0  0
    8.0098    3.6642   21.3294 H   0  0  0  0  0  0  0  0  0  0  0  0
    6.0389    3.6254   22.2929 C   0  0  0  0  0  0  0  0  0  0  0  0
    5.5974    4.4187   21.6848 H   0  0  0  0  0  0  0  0  0  0  0  0
    5.3189    3.0143   23.3264 C   0  0  0  0  0  0  0  0  0  0  0  0
    4.3005    3.3200   23.5731 H   0  0  0  0  0  0  0  0  0  0  0  0
  1  2  1  0
  2  3  2  0
  3  4  1  0
  4  5  1  0
  5  6  1  0
  5  7  1  0
  5  8  1  0
  8  9  1  0
  9 10  1  0
 10 11  2  0
 10 12  1  0
 12 13  1  0
 12 14  1  0
 12 15  1  0
 15 16  1  0
 15 17  1  0
 15 18  1  0
 18 19  1  1
 18 20  1  0
 20 21  2  0
 21 22  1  0
 21 23  1  0
 23 24  2  0
 24 25  1  0
 24 26  1  0
 26 27  1  0
 26 28  2  0
 28 29  1  0
  4 30  2  0
 30 31  1  0
 30 32  1  0
 32 33  1  0
 32 34  2  0
 34 35  1  0
 34  2  1  0
 18  9  1  0
 28 20  1  0
M  END
>  <plip>  (1) 
-0.03571428571428571

>  <filename>  (1) 
[H][c]1[n][c]([C]([H])([H])[O][N]2[C](=[O])[C]([H])([H])[C]([H])([H])[C@]2([H])[c]2[c]([H])[n][c]([H])[c]([H])[c]2[H])[c]([H])[c]([H])[c]1[H]

$$$$
