
     RDKit          3D

 53 56  0  0  0  0  0  0  0  0999 V2000
    6.3639   -2.9381   20.8372 C   0  0  0  0  0  0  0  0  0  0  0  0
    6.6326   -1.7472   21.6719 N   0  0  0  0  0  4  0  0  0  0  0  0
    7.2368   -2.0331   23.0220 C   0  0  0  0  0  0  0  0  0  0  0  0
    8.0807   -0.7831   23.3594 C   0  0  0  0  0  0  0  0  0  0  0  0
    7.9158    0.1780   22.1664 C   0  0  1  0  0  0  0  0  0  0  0  0
    9.1385    1.0385   21.8259 C   0  0  0  0  0  0  0  0  0  0  0  0
    9.3073    2.1788   22.7498 N   0  0  0  0  0  4  0  0  0  0  0  0
    8.3990    3.3389   22.5132 C   0  0  0  0  0  0  0  0  0  0  0  0
    8.6490    4.3638   23.5912 C   0  0  2  0  0  0  0  0  0  0  0  0
    8.0841    5.7359   23.3582 C   0  0  0  0  0  0  0  0  0  0  0  0
    9.5761    5.5437   23.3512 C   0  0  1  0  0  0  0  0  0  0  0  0
   10.4501    6.1849   24.4008 C   0  0  0  0  0  0  0  0  0  0  0  0
   10.0948    7.4090   25.0031 C   0  0  0  0  0  0  0  0  0  0  0  0
   10.9554    8.0528   25.9008 C   0  0  0  0  0  0  0  0  0  0  0  0
   12.2027    7.4884   26.1858 C   0  0  0  0  0  0  0  0  0  0  0  0
   12.5686    6.2750   25.5960 C   0  0  0  0  0  0  0  0  0  0  0  0
   11.6986    5.6187   24.7203 C   0  0  0  0  0  0  0  0  0  0  0  0
   12.0057    4.6685   24.2791 H   0  0  0  0  0  0  0  0  0  0  0  0
   13.5443    5.8545   25.8065 H   0  0  0  0  0  0  0  0  0  0  0  0
   12.8796    7.9790   26.8809 H   0  0  0  0  0  0  0  0  0  0  0  0
   10.6585    8.9947   26.3600 H   0  0  0  0  0  0  0  0  0  0  0  0
    9.1441    7.8730   24.7367 H   0  0  0  0  0  0  0  0  0  0  0  0
   10.0541    5.5077   22.3706 H   0  0  0  0  0  0  0  0  0  0  0  0
    7.5898    5.9278   22.4084 H   0  0  0  0  0  0  0  0  0  0  0  0
    7.6170    6.2554   24.1926 H   0  0  0  0  0  0  0  0  0  0  0  0
    8.6128    3.9808   24.6120 H   0  0  0  0  0  0  0  0  0  0  0  0
    8.5778    3.7725   21.5173 H   0  0  0  0  0  0  0  0  0  0  0  0
    7.3483    3.0214   22.5047 H   0  0  0  0  0  0  0  0  0  0  0  0
    9.1390    1.8572   23.7348 H   0  0  0  0  0  0  0  0  0  0  0  0
   10.2723    2.5859   22.7301 H   0  0  0  0  0  0  0  0  0  0  0  0
    9.0383    1.4044   20.7971 H   0  0  0  0  0  0  0  0  0  0  0  0
   10.0321    0.4073   21.8501 H   0  0  0  0  0  0  0  0  0  0  0  0
    7.5061   -0.7115   20.9928 C   0  0  2  0  0  0  0  0  0  0  0  0
    6.7519   -0.0132   19.8884 C   0  0  0  0  0  0  0  0  0  0  0  0
    5.5379    0.6647   20.0990 C   0  0  0  0  0  0  0  0  0  0  0  0
    4.9359    1.3173   19.0228 C   0  0  0  0  0  0  0  0  0  0  0  0
    5.5446    1.2526   17.7651 C   0  0  0  0  0  0  0  0  0  0  0  0
    6.6856    0.5895   17.5373 N   0  0  0  0  0  0  0  0  0  0  0  0
    7.2589   -0.0234   18.5803 C   0  0  0  0  0  0  0  0  0  0  0  0
    8.1853   -0.5531   18.3564 H   0  0  0  0  0  0  0  0  0  0  0  0
    5.0924    1.7489   16.9054 H   0  0  0  0  0  0  0  0  0  0  0  0
    4.0160    1.8792   19.1403 H   0  0  0  0  0  0  0  0  0  0  0  0
    5.0685    0.6904   21.0868 H   0  0  0  0  0  0  0  0  0  0  0  0
    8.3832   -1.2244   20.5717 H   0  0  0  0  0  0  0  0  0  0  0  0
    7.0519    0.8264   22.3755 H   0  0  0  0  0  0  0  0  0  0  0  0
    7.7591   -0.3145   24.2951 H   0  0  0  0  0  0  0  0  0  0  0  0
    9.1306   -1.0683   23.4980 H   0  0  0  0  0  0  0  0  0  0  0  0
    7.8600   -2.9324   22.9535 H   0  0  0  0  0  0  0  0  0  0  0  0
    6.4492   -2.2354   23.7554 H   0  0  0  0  0  0  0  0  0  0  0  0
    5.7404   -1.2222   21.8316 H   0  0  0  0  0  0  0  0  0  0  0  0
    6.0340   -2.6313   19.8390 H   0  0  0  0  0  0  0  0  0  0  0  0
    7.2870   -3.5238   20.7109 H   0  0  0  0  0  0  0  0  0  0  0  0
    5.6093   -3.5920   21.2882 H   0  0  0  0  0  0  0  0  0  0  0  0
  1  2  1  0
  2  3  1  0
  3  4  1  0
  4  5  1  0
  5  6  1  0
  6  7  1  0
  7  8  1  0
  8  9  1  0
  9 10  1  0
 10 11  1  0
 11 12  1  0
 12 13  2  0
 13 14  1  0
 14 15  2  0
 15 16  1  0
 16 17  2  0
 17 18  1  0
 16 19  1  0
 15 20  1  0
 14 21  1  0
 13 22  1  0
 11 23  1  6
 10 24  1  0
 10 25  1  0
  9 26  1  1
  8 27  1  0
  8 28  1  0
  7 29  1  0
  7 30  1  0
  6 31  1  0
  6 32  1  0
  5 33  1  0
 33 34  1  0
 34 35  2  0
 35 36  1  0
 36 37  2  0
 37 38  1  0
 38 39  2  0
 39 40  1  0
 37 41  1  0
 36 42  1  0
 35 43  1  0
 33 44  1  6
  5 45  1  1
  4 46  1  0
  4 47  1  0
  3 48  1  0
  3 49  1  0
  2 50  1  0
  1 51  1  0
  1 52  1  0
  1 53  1  0
 33  2  1  0
 39 34  1  0
 11  9  1  0
 17 12  1  0
M  CHG  2   2   1   7   1
M  END
>  <plip>  (1) 
-0.17857142857142858

>  <filename>  (1) 
[H][c]1[n][c]([H])[c]([C@@]2([H])[C@]([H])([C]([H])([H])[N+]([H])([H])[C]([H])([H])[C@]3([H])[C]([H])([H])[C@@]3([H])[c]3[c]([H])[c]([H])[c]([H])[c]([H])[c]3[H])[C]([H])([H])[C]([H])([H])[N+]2([H])[C]([H])([H])[H])[c]([H])[c]1[H]

$$$$
