
     RDKit          3D

 20 21  0  0  0  0  0  0  0  0999 V2000
   11.3244    2.1888   22.9114 H   0  0  0  0  0  0  0  0  0  0  0  0
   10.3874    1.6865   22.6944 C   0  0  0  0  0  0  0  0  0  0  0  0
    9.2673    1.9971   23.2683 N   0  0  0  0  0  0  0  0  0  0  0  0
    8.2407    1.2217   22.8104 C   0  0  0  0  0  0  0  0  0  0  0  0
    7.2506    1.3574   23.2409 H   0  0  0  0  0  0  0  0  0  0  0  0
    8.6046    0.3396   21.8538 C   0  0  0  0  0  0  0  0  0  0  0  0
    7.5242   -0.8175   21.1620 S   0  0  0  0  0  0  0  0  0  0  0  0
    8.3850   -1.7872   20.5082 O   0  0  0  0  0  0  0  0  0  0  0  0
    6.5620   -1.1604   22.1971 O   0  0  0  0  0  0  0  0  0  0  0  0
    6.6571    0.0535   19.9419 C   0  0  0  0  0  0  0  0  0  0  0  0
    7.2078    0.0401   18.6703 C   0  0  0  0  0  0  0  0  0  0  0  0
    8.1413   -0.4731   18.4448 H   0  0  0  0  0  0  0  0  0  0  0  0
    6.6046    0.6431   17.6493 N   0  0  0  0  0  0  0  0  0  0  0  0
    5.4411    1.2660   17.8809 C   0  0  0  0  0  0  0  0  0  0  0  0
    4.9803    1.7494   17.0236 H   0  0  0  0  0  0  0  0  0  0  0  0
    4.8208    1.3050   19.1335 C   0  0  0  0  0  0  0  0  0  0  0  0
    3.8836    1.8325   19.2542 H   0  0  0  0  0  0  0  0  0  0  0  0
    5.4299    0.6691   20.2044 C   0  0  0  0  0  0  0  0  0  0  0  0
    4.9631    0.6370   21.1911 H   0  0  0  0  0  0  0  0  0  0  0  0
   10.2896    0.3958   21.5360 S   0  0  0  0  0  0  0  0  0  0  0  0
  1  2  1  0
  2  3  2  0
  3  4  1  0
  4  5  1  0
  4  6  2  0
  6  7  1  0
  7  8  2  0
  7  9  2  0
  7 10  1  0
 10 11  2  0
 11 12  1  0
 11 13  1  0
 13 14  2  0
 14 15  1  0
 14 16  1  0
 16 17  1  0
 16 18  2  0
 18 19  1  0
  6 20  1  0
 20  2  1  0
 18 10  1  0
M  END
>  <plip>  (1) 
-0.03571428571428571

>  <filename>  (1) 
[H][c]1[n][c]([H])[c]([S](=[O])(=[O])[c]2[c]([H])[n][c]([H])[c]([H])[c]2[H])[s]1

$$$$
