
     RDKit          3D

 41 43  0  0  0  0  0  0  0  0999 V2000
    8.8457   -0.4191   21.1675 C   0  0  0  0  0  0  0  0  0  0  0  0
    7.3795   -0.7370   20.9854 C   0  0  0  0  0  0  0  0  0  0  0  0
    6.7206   -1.6296   21.7427 C   0  0  0  0  0  0  0  0  0  0  0  0
    7.3310   -2.4476   22.8080 C   0  0  0  0  0  0  0  0  0  0  0  0
    8.5274   -2.4637   23.0738 O   0  0  0  0  0  0  0  0  0  0  0  0
    6.4485   -3.2204   23.4986 N   0  0  0  0  0  0  0  0  0  0  0  0
    6.8710   -3.9962   24.6520 C   0  0  0  0  0  0  0  0  0  0  0  0
    7.2459   -3.1255   25.8759 C   0  0  0  0  0  0  0  0  0  0  0  0
    7.7296   -3.9870   27.0039 C   0  0  0  0  0  0  0  0  0  0  0  0
    9.0002   -4.4075   27.2668 C   0  0  0  0  0  0  0  0  0  0  0  0
    8.9885   -5.3917   28.2417 N   0  0  0  0  0  0  0  0  0  0  0  0
    7.7047   -5.5362   28.6910 C   0  0  0  0  0  0  0  0  0  0  0  0
    7.3518   -6.2759   29.7454 N   0  0  0  0  0  0  0  0  0  0  0  0
    6.0369   -6.2910   29.9844 C   0  0  0  0  0  0  0  0  0  0  0  0
    5.0787   -5.5924   29.2183 C   0  0  0  0  0  0  0  0  0  0  0  0
    5.4939   -4.7796   28.1653 C   0  0  0  0  0  0  0  0  0  0  0  0
    6.8700   -4.7120   27.9019 C   0  0  0  0  0  0  0  0  0  0  0  0
    4.7843   -4.2230   27.5529 H   0  0  0  0  0  0  0  0  0  0  0  0
    4.0281   -5.7164   29.4500 H   0  0  0  0  0  0  0  0  0  0  0  0
    5.7061   -6.9003   30.8278 H   0  0  0  0  0  0  0  0  0  0  0  0
    9.7440   -5.6789   28.8404 H   0  0  0  0  0  0  0  0  0  0  0  0
    9.9301   -4.0532   26.8390 H   0  0  0  0  0  0  0  0  0  0  0  0
    6.3619   -2.5528   26.1942 H   0  0  0  0  0  0  0  0  0  0  0  0
    8.0125   -2.4015   25.5719 H   0  0  0  0  0  0  0  0  0  0  0  0
    7.7542   -4.5812   24.3584 H   0  0  0  0  0  0  0  0  0  0  0  0
    6.0736   -4.7011   24.9245 H   0  0  0  0  0  0  0  0  0  0  0  0
    5.4773   -3.0949   23.2803 H   0  0  0  0  0  0  0  0  0  0  0  0
    5.6593   -1.7851   21.5765 H   0  0  0  0  0  0  0  0  0  0  0  0
    6.6298   -0.0163   19.9130 C   0  0  0  0  0  0  0  0  0  0  0  0
    5.4097    0.6414   20.1468 C   0  0  0  0  0  0  0  0  0  0  0  0
    4.7924    1.3149   19.0913 C   0  0  0  0  0  0  0  0  0  0  0  0
    5.3975    1.2954   17.8292 C   0  0  0  0  0  0  0  0  0  0  0  0
    6.5584    0.6709   17.5799 N   0  0  0  0  0  0  0  0  0  0  0  0
    7.1527    0.0544   18.6079 C   0  0  0  0  0  0  0  0  0  0  0  0
    8.1100   -0.4169   18.3866 H   0  0  0  0  0  0  0  0  0  0  0  0
    4.9379    1.8003   16.9812 H   0  0  0  0  0  0  0  0  0  0  0  0
    3.8630    1.8557   19.2311 H   0  0  0  0  0  0  0  0  0  0  0  0
    4.9857    0.6482   21.1515 H   0  0  0  0  0  0  0  0  0  0  0  0
    9.4795   -1.2809   20.9360 H   0  0  0  0  0  0  0  0  0  0  0  0
    9.0768   -0.1689   22.2086 H   0  0  0  0  0  0  0  0  0  0  0  0
    9.1217    0.4230   20.5308 H   0  0  0  0  0  0  0  0  0  0  0  0
  1  2  1  0
  2  3  2  3
  3  4  1  0
  4  5  2  0
  4  6  1  0
  6  7  1  0
  7  8  1  0
  8  9  1  0
  9 10  2  0
 10 11  1  0
 11 12  1  0
 12 13  2  0
 13 14  1  0
 14 15  2  0
 15 16  1  0
 16 17  2  0
 16 18  1  0
 15 19  1  0
 14 20  1  0
 11 21  1  0
 10 22  1  0
  8 23  1  0
  8 24  1  0
  7 25  1  0
  7 26  1  0
  6 27  1  0
  3 28  1  0
  2 29  1  0
 29 30  2  0
 30 31  1  0
 31 32  2  0
 32 33  1  0
 33 34  2  0
 34 35  1  0
 32 36  1  0
 31 37  1  0
 30 38  1  0
  1 39  1  0
  1 40  1  0
  1 41  1  0
 17  9  1  0
 34 29  1  0
 17 12  1  0
M  END
>  <plip>  (1) 
-0.06666666666666667

>  <filename>  (1) 
[H][C]([C](=[O])[N]([H])[C]([H])([H])[C]([H])([H])[c]1[c]([H])[n]([H])[c]2[n][c]([H])[c]([H])[c]([H])[c]12)=[C]([c]1[c]([H])[n][c]([H])[c]([H])[c]1[H])[C]([H])([H])[H]

$$$$
