
     RDKit          3D

 29 30  0  0  0  0  0  0  0  0999 V2000
    5.7573   -1.4951   22.0682 H   0  0  0  0  0  0  0  0  0  0  0  0
    6.8309   -1.3938   22.0003 C   0  0  0  0  0  0  0  0  0  0  0  0
    7.5454   -1.9978   22.9324 N   0  0  0  0  0  0  0  0  0  0  0  0
    8.8856   -1.9254   22.8351 N   0  0  0  0  0  0  0  0  0  0  0  0
    9.4436   -1.3193   21.8004 C   0  0  0  0  0  0  0  0  0  0  0  0
   11.3495   -1.3478   21.9664 S   0  0  0  0  0  0  0  0  0  0  0  0
   11.6571   -2.4802   22.8139 O   0  0  0  0  0  0  0  0  0  0  0  0
   12.0313   -1.1899   20.6992 O   0  0  0  0  0  0  0  0  0  0  0  0
   11.6832    0.0881   22.7843 N   0  0  0  0  0  0  0  0  0  0  0  0
   11.2983    0.2099   24.1924 C   0  0  0  0  0  0  0  0  0  0  0  0
   11.8034    1.0926   24.5953 H   0  0  0  0  0  0  0  0  0  0  0  0
   10.2184    0.3420   24.3403 H   0  0  0  0  0  0  0  0  0  0  0  0
   11.6227   -0.6391   24.7893 H   0  0  0  0  0  0  0  0  0  0  0  0
   11.4028    1.2853   21.9755 C   0  0  0  0  0  0  0  0  0  0  0  0
   10.3218    1.4886   21.8907 H   0  0  0  0  0  0  0  0  0  0  0  0
   11.9177    2.1441   22.4262 H   0  0  0  0  0  0  0  0  0  0  0  0
   11.8086    1.1386   20.9758 H   0  0  0  0  0  0  0  0  0  0  0  0
    8.7891   -0.7072   20.7980 N   0  0  0  0  0  0  0  0  0  0  0  0
    7.4409   -0.6999   20.9276 C   0  0  0  0  0  0  0  0  0  0  0  0
    6.6698    0.0202   19.9023 C   0  0  0  0  0  0  0  0  0  0  0  0
    7.1913    0.0702   18.5945 C   0  0  0  0  0  0  0  0  0  0  0  0
    8.1435   -0.4087   18.3769 H   0  0  0  0  0  0  0  0  0  0  0  0
    6.5741    0.6697   17.5737 N   0  0  0  0  0  0  0  0  0  0  0  0
    5.4124    1.2872   17.8294 C   0  0  0  0  0  0  0  0  0  0  0  0
    4.9461    1.7901   16.9865 H   0  0  0  0  0  0  0  0  0  0  0  0
    4.8084    1.3089   19.0923 C   0  0  0  0  0  0  0  0  0  0  0  0
    3.8735    1.8380   19.2304 H   0  0  0  0  0  0  0  0  0  0  0  0
    5.4420    0.6607   20.1490 C   0  0  0  0  0  0  0  0  0  0  0  0
    4.9934    0.6768   21.1462 H   0  0  0  0  0  0  0  0  0  0  0  0
  1  2  1  0
  2  3  2  0
  3  4  1  0
  4  5  2  0
  5  6  1  0
  6  7  2  0
  6  8  2  0
  6  9  1  0
  9 10  1  0
 10 11  1  0
 10 12  1  0
 10 13  1  0
  9 14  1  0
 14 15  1  0
 14 16  1  0
 14 17  1  0
  5 18  1  0
 18 19  2  0
 19 20  1  0
 20 21  2  0
 21 22  1  0
 21 23  1  0
 23 24  2  0
 24 25  1  0
 24 26  1  0
 26 27  1  0
 26 28  2  0
 28 29  1  0
 19  2  1  0
 28 20  1  0
M  END
>  <plip>  (1) 
-0.07142857142857142

>  <filename>  (1) 
[H][c]1[n][n][c]([S](=[O])(=[O])[N]([C]([H])([H])[H])[C]([H])([H])[H])[n][c]1-[c]1[c]([H])[n][c]([H])[c]([H])[c]1[H]

$$$$
