
     RDKit          3D

 30 32  0  0  0  0  0  0  0  0999 V2000
    4.9224    1.7769   16.9975 H   0  0  0  0  0  0  0  0  0  0  0  0
    5.4057    1.2909   17.8418 C   0  0  0  0  0  0  0  0  0  0  0  0
    6.5694    0.6740   17.5864 N   0  0  0  0  0  0  0  0  0  0  0  0
    7.1700    0.0637   18.6122 C   0  0  0  0  0  0  0  0  0  0  0  0
    8.1085   -0.4270   18.3703 H   0  0  0  0  0  0  0  0  0  0  0  0
    6.6403   -0.0059   19.9113 C   0  0  0  0  0  0  0  0  0  0  0  0
    7.3869   -0.7170   20.9711 C   0  0  0  0  0  0  0  0  0  0  0  0
    6.5839   -1.2483   21.9477 O   0  0  0  0  0  0  0  0  0  0  0  0
    7.1534   -1.9322   22.9821 C   0  0  0  0  0  0  0  0  0  0  0  0
    6.1999   -2.4853   23.9823 C   0  0  0  0  0  0  0  0  0  0  0  0
    6.5332   -2.3867   25.3469 C   0  0  0  0  0  0  0  0  0  0  0  0
    7.4582   -1.8957   25.6372 H   0  0  0  0  0  0  0  0  0  0  0  0
    5.6930   -2.8889   26.3355 C   0  0  0  0  0  0  0  0  0  0  0  0
    5.9713   -2.8005   27.3805 H   0  0  0  0  0  0  0  0  0  0  0  0
    4.4958   -3.5092   25.9830 C   0  0  0  0  0  0  0  0  0  0  0  0
    3.8289   -3.9038   26.7409 H   0  0  0  0  0  0  0  0  0  0  0  0
    4.1489   -3.6407   24.6363 C   0  0  0  0  0  0  0  0  0  0  0  0
    2.6453   -4.4098   24.2534 Cl  0  0  0  0  0  0  0  0  0  0  0  0
    5.0106   -3.1615   23.6341 C   0  0  0  0  0  0  0  0  0  0  0  0
    4.5930   -3.3540   21.9686 Cl  0  0  0  0  0  0  0  0  0  0  0  0
    8.4932   -2.0771   23.0772 C   0  0  0  0  0  0  0  0  0  0  0  0
    8.9480   -2.6253   23.8840 H   0  0  0  0  0  0  0  0  0  0  0  0
    9.4021   -1.5086   22.0939 C   0  0  0  0  0  0  0  0  0  0  0  0
   10.6184   -1.6153   22.1667 O   0  0  0  0  0  0  0  0  0  0  0  0
    8.7314   -0.8026   21.0155 C   0  0  0  0  0  0  0  0  0  0  0  0
    9.3635   -0.3306   20.2812 H   0  0  0  0  0  0  0  0  0  0  0  0
    5.4213    0.6465   20.1648 C   0  0  0  0  0  0  0  0  0  0  0  0
    5.0012    0.6186   21.1746 H   0  0  0  0  0  0  0  0  0  0  0  0
    4.8030    1.3130   19.1074 C   0  0  0  0  0  0  0  0  0  0  0  0
    3.8701    1.8484   19.2556 H   0  0  0  0  0  0  0  0  0  0  0  0
  1  2  1  0
  2  3  2  0
  3  4  1  0
  4  5  1  0
  4  6  2  0
  6  7  1  0
  7  8  1  0
  8  9  1  0
  9 10  1  0
 10 11  2  0
 11 12  1  0
 11 13  1  0
 13 14  1  0
 13 15  2  0
 15 16  1  0
 15 17  1  0
 17 18  1  0
 17 19  2  0
 19 20  1  0
  9 21  2  0
 21 22  1  0
 21 23  1  0
 23 24  2  0
 23 25  1  0
 25 26  1  0
  6 27  1  0
 27 28  1  0
 27 29  2  0
 29 30  1  0
 29  2  1  0
 25  7  2  0
 19 10  1  0
M  END
>  <plip>  (1) 
-0.03571428571428571

>  <filename>  (1) 
[H][c]1[n][c]([H])[c](-[c]2[o][c](-[c]3[c]([H])[c]([H])[c]([H])[c]([Cl])[c]3[Cl])[c]([H])[c](=[O])[c]2[H])[c]([H])[c]1[H]

$$$$
