
     RDKit          3D

 34 35  0  0  0  0  0  0  0  0999 V2000
    5.6152   -4.3421   26.6690 H   0  0  0  0  0  0  0  0  0  0  0  0
    6.5767   -4.5001   26.6278 O   0  0  0  0  0  0  0  0  0  0  0  0
    6.7871   -3.9410   25.4265 C   0  0  0  0  0  0  0  0  0  0  0  0
    5.8394   -3.4887   24.8233 O   0  0  0  0  0  0  0  0  0  0  0  0
    8.1951   -3.9086   24.9715 C   0  0  0  0  0  0  0  0  0  0  0  0
    8.6973   -3.3014   23.8291 C   0  0  0  0  0  0  0  0  0  0  0  0
    8.0011   -2.5955   22.7213 C   0  0  0  0  0  0  0  0  0  0  0  0
    6.9614   -2.9489   22.6395 H   0  0  0  0  0  0  0  0  0  0  0  0
    8.4798   -2.8128   21.7552 H   0  0  0  0  0  0  0  0  0  0  0  0
    8.1022   -1.1450   22.9357 N   0  0  0  0  0  0  0  0  0  0  0  0
    7.6530   -0.7984   23.7688 H   0  0  0  0  0  0  0  0  0  0  0  0
    7.5678   -0.3284   21.9845 C   0  0  0  0  0  0  0  0  0  0  0  0
    7.3965   -0.7064   20.7934 N   0  0  0  0  0  0  0  0  0  0  0  0
    6.7015    0.0379   19.8314 C   0  0  0  0  0  0  0  0  0  0  0  0
    7.2058    0.0767   18.5079 C   0  0  0  0  0  0  0  0  0  0  0  0
    8.1352   -0.4531   18.2972 H   0  0  0  0  0  0  0  0  0  0  0  0
    6.6152    0.7223   17.4969 N   0  0  0  0  0  0  0  0  0  0  0  0
    5.4536    1.3522   17.7613 C   0  0  0  0  0  0  0  0  0  0  0  0
    4.9951    1.8798   16.9310 H   0  0  0  0  0  0  0  0  0  0  0  0
    4.8400    1.3335   19.0163 C   0  0  0  0  0  0  0  0  0  0  0  0
    3.9104    1.8645   19.1790 H   0  0  0  0  0  0  0  0  0  0  0  0
    5.4659    0.6548   20.0688 C   0  0  0  0  0  0  0  0  0  0  0  0
    5.0229    0.5827   21.0626 H   0  0  0  0  0  0  0  0  0  0  0  0
    7.3089    0.8758   22.6086 N   0  0  0  0  0  0  0  0  0  0  0  0
    7.1507    1.5870   21.9106 H   0  0  0  0  0  0  0  0  0  0  0  0
    8.1629    1.0639   23.1108 H   0  0  0  0  0  0  0  0  0  0  0  0
   10.0952   -3.3526   23.9640 C   0  0  0  0  0  0  0  0  0  0  0  0
   11.0892   -2.7581   23.0279 C   0  0  0  0  0  0  0  0  0  0  0  0
   10.7638   -2.8575   21.9945 H   0  0  0  0  0  0  0  0  0  0  0  0
   11.1654   -1.6852   23.2122 H   0  0  0  0  0  0  0  0  0  0  0  0
   12.0662   -3.2208   23.1303 H   0  0  0  0  0  0  0  0  0  0  0  0
   10.4375   -3.9915   25.0747 N   0  0  0  0  0  0  0  0  0  0  0  0
    9.2907   -4.3146   25.6796 N   0  0  0  0  0  0  0  0  0  0  0  0
    9.3328   -4.8221   26.5568 H   0  0  0  0  0  0  0  0  0  0  0  0
  1  2  1  0
  2  3  1  0
  3  4  2  0
  3  5  1  0
  5  6  2  0
  6  7  1  0
  7  8  1  0
  7  9  1  0
  7 10  1  0
 10 11  1  0
 10 12  1  0
 12 13  2  3
 13 14  1  0
 14 15  2  0
 15 16  1  0
 15 17  1  0
 17 18  2  0
 18 19  1  0
 18 20  1  0
 20 21  1  0
 20 22  2  0
 22 23  1  0
 12 24  1  0
 24 25  1  0
 24 26  1  0
  6 27  1  0
 27 28  1  0
 28 29  1  0
 28 30  1  0
 28 31  1  0
 27 32  2  0
 32 33  1  0
 33 34  1  0
 33  5  1  0
 22 14  1  0
M  END
>  <plip>  (1) 
-0.10714285714285714

>  <filename>  (1) 
[H][O][C](=[O])[c]1[c]([C]([H])([H])[N]([H])[C](=[N][c]2[c]([H])[n][c]([H])[c]([H])[c]2[H])[N]([H])[H])[c]([C]([H])([H])[H])[n][n]1[H]

$$$$
