
     RDKit          3D

 41 43  0  0  0  0  0  0  0  0999 V2000
    7.6837   -0.4953   27.4477 C   0  0  0  0  0  0  0  0  0  0  0  0
    6.4116   -0.8458   27.2558 C   0  0  0  0  0  0  0  0  0  0  0  0
    5.9168   -1.8283   26.2615 C   0  0  0  0  0  0  0  0  0  0  0  0
    6.8276   -2.4960   25.5435 N   0  0  0  0  0  0  0  0  0  0  0  0
    6.4198   -3.3585   24.6084 C   0  0  0  0  0  0  0  0  0  0  0  0
    7.5563   -3.9867   23.8042 C   0  0  0  0  0  0  0  0  0  0  0  0
    8.3046   -2.9469   22.9474 N   0  0  0  0  0  4  0  0  0  0  0  0
    7.4550   -2.4566   21.7999 C   0  0  1  0  0  0  0  0  0  0  0  0
    6.5384   -1.2568   22.1247 C   0  0  0  0  0  0  0  0  0  0  0  0
    7.3948   -0.3489   21.2136 C   0  0  2  0  0  0  0  0  0  0  0  0
    8.1831    0.5550   21.9547 O   0  0  0  0  0  0  0  0  0  0  0  0
    8.0802    1.4057   21.5030 H   0  0  0  0  0  0  0  0  0  0  0  0
    6.7039    0.3814   20.0880 C   0  0  0  0  0  0  0  0  0  0  0  0
    5.4491    0.9896   20.2331 C   0  0  0  0  0  0  0  0  0  0  0  0
    4.8366    1.5385   19.1051 C   0  0  0  0  0  0  0  0  0  0  0  0
    5.5035    1.4799   17.8761 C   0  0  0  0  0  0  0  0  0  0  0  0
    6.7373    0.9743   17.7273 N   0  0  0  0  0  0  0  0  0  0  0  0
    7.3176    0.4742   18.8223 C   0  0  0  0  0  0  0  0  0  0  0  0
    8.3319    0.0996   18.6880 H   0  0  0  0  0  0  0  0  0  0  0  0
    5.0414    1.8760   16.9750 H   0  0  0  0  0  0  0  0  0  0  0  0
    3.8649    2.0157   19.1692 H   0  0  0  0  0  0  0  0  0  0  0  0
    4.9756    1.0361   21.2172 H   0  0  0  0  0  0  0  0  0  0  0  0
    8.1896   -1.5939   20.7810 C   0  0  0  0  0  0  0  0  0  0  0  0
    9.2732   -1.5100   20.8687 H   0  0  0  0  0  0  0  0  0  0  0  0
    7.9050   -1.8373   19.7674 H   0  0  0  0  0  0  0  0  0  0  0  0
    6.4991   -0.9583   23.1759 H   0  0  0  0  0  0  0  0  0  0  0  0
    5.5396   -1.4264   21.7239 H   0  0  0  0  0  0  0  0  0  0  0  0
    6.8979   -3.2981   21.3816 H   0  0  0  0  0  0  0  0  0  0  0  0
    9.2244   -3.2854   22.5774 H   0  0  0  0  0  0  0  0  0  0  0  0
    8.4778   -2.1013   23.5709 H   0  0  0  0  0  0  0  0  0  0  0  0
    7.1300   -4.7635   23.1651 H   0  0  0  0  0  0  0  0  0  0  0  0
    8.2486   -4.4458   24.5072 H   0  0  0  0  0  0  0  0  0  0  0  0
    5.0604   -3.6081   24.3587 C   0  0  0  0  0  0  0  0  0  0  0  0
    4.1011   -2.9133   25.1040 C   0  0  0  0  0  0  0  0  0  0  0  0
    4.5366   -2.0107   26.0713 C   0  0  0  0  0  0  0  0  0  0  0  0
    3.8477   -1.4365   26.6801 H   0  0  0  0  0  0  0  0  0  0  0  0
    3.0331   -3.0572   24.9181 H   0  0  0  0  0  0  0  0  0  0  0  0
    4.7807   -4.3116   23.5823 H   0  0  0  0  0  0  0  0  0  0  0  0
    5.6282   -0.3847   27.8538 H   0  0  0  0  0  0  0  0  0  0  0  0
    8.4787   -0.9412   26.8502 H   0  0  0  0  0  0  0  0  0  0  0  0
    7.9654    0.2520   28.1857 H   0  0  0  0  0  0  0  0  0  0  0  0
  1  2  2  3
  2  3  1  0
  3  4  2  0
  4  5  1  0
  5  6  1  0
  6  7  1  0
  7  8  1  0
  8  9  1  0
  9 10  1  0
 10 11  1  1
 11 12  1  0
 10 13  1  0
 13 14  2  0
 14 15  1  0
 15 16  2  0
 16 17  1  0
 17 18  2  0
 18 19  1  0
 16 20  1  0
 15 21  1  0
 14 22  1  0
 10 23  1  0
 23 24  1  0
 23 25  1  0
  9 26  1  0
  9 27  1  0
  8 28  1  6
  7 29  1  0
  7 30  1  0
  6 31  1  0
  6 32  1  0
  5 33  2  0
 33 34  1  0
 34 35  2  0
 35 36  1  0
 34 37  1  0
 33 38  1  0
  2 39  1  0
  1 40  1  0
  1 41  1  0
 35  3  1  0
 23  8  1  0
 18 13  1  0
M  CHG  1   7   1
M  END
>  <plip>  (1) 
-0.03333333333333333

>  <filename>  (1) 
[H][O][C@]1([c]2[c]([H])[n][c]([H])[c]([H])[c]2[H])[C]([H])([H])[C@]([H])([N+]([H])([H])[C]([H])([H])[c]2[n][c]([C]([H])=[C]([H])[H])[c]([H])[c]([H])[c]2[H])[C]1([H])[H]

$$$$
