
     RDKit          3D

 30 31  0  0  0  0  0  0  0  0999 V2000
    4.9162    1.7882   16.9873 H   0  0  0  0  0  0  0  0  0  0  0  0
    5.3985    1.2981   17.8301 C   0  0  0  0  0  0  0  0  0  0  0  0
    6.5601    0.6776   17.5694 N   0  0  0  0  0  0  0  0  0  0  0  0
    7.1708    0.0622   18.5923 C   0  0  0  0  0  0  0  0  0  0  0  0
    8.1176   -0.4273   18.3687 H   0  0  0  0  0  0  0  0  0  0  0  0
    6.6609    0.0052   19.9077 C   0  0  0  0  0  0  0  0  0  0  0  0
    7.3326   -0.7118   20.9286 N   0  0  0  0  0  0  0  0  0  0  0  0
    8.2725   -0.0988   21.7502 N   0  0  0  0  0  0  0  0  0  0  0  0
    9.4490    0.3959   21.0108 C   0  0  0  0  0  0  0  0  0  0  0  0
    9.1500    1.1692   20.2891 H   0  0  0  0  0  0  0  0  0  0  0  0
    9.8838   -0.4328   20.4460 H   0  0  0  0  0  0  0  0  0  0  0  0
   10.4863    0.9801   21.9676 C   0  0  0  0  0  0  0  0  0  0  0  0
   10.8813    0.1557   22.5855 H   0  0  0  0  0  0  0  0  0  0  0  0
   11.3194    1.3835   21.3815 H   0  0  0  0  0  0  0  0  0  0  0  0
    9.8988    2.0685   22.7623 N   0  0  0  0  0  0  0  0  0  0  0  0
   10.5953    2.4210   23.4150 H   0  0  0  0  0  0  0  0  0  0  0  0
    8.7396    1.5670   23.5148 C   0  0  0  0  0  0  0  0  0  0  0  0
    9.0021    0.7861   24.2491 H   0  0  0  0  0  0  0  0  0  0  0  0
    8.2894    2.3997   24.0657 H   0  0  0  0  0  0  0  0  0  0  0  0
    7.6942    0.9890   22.5636 C   0  0  0  0  0  0  0  0  0  0  0  0
    7.3045    1.7951   21.9212 H   0  0  0  0  0  0  0  0  0  0  0  0
    6.8510    0.5876   23.1312 H   0  0  0  0  0  0  0  0  0  0  0  0
    7.0123   -2.1074   21.1253 C   0  0  0  0  0  0  0  0  0  0  0  0
    5.9429   -2.2512   21.3383 H   0  0  0  0  0  0  0  0  0  0  0  0
    7.6175   -2.5182   21.9383 H   0  0  0  0  0  0  0  0  0  0  0  0
    7.2041   -2.6785   20.2123 H   0  0  0  0  0  0  0  0  0  0  0  0
    5.4345    0.6451   20.1576 C   0  0  0  0  0  0  0  0  0  0  0  0
    5.0209    0.6213   21.1697 H   0  0  0  0  0  0  0  0  0  0  0  0
    4.8034    1.3099   19.0990 C   0  0  0  0  0  0  0  0  0  0  0  0
    3.8726    1.8439   19.2558 H   0  0  0  0  0  0  0  0  0  0  0  0
  1  2  1  0
  2  3  2  0
  3  4  1  0
  4  5  1  0
  4  6  2  0
  6  7  1  0
  7  8  1  0
  8  9  1  0
  9 10  1  0
  9 11  1  0
  9 12  1  0
 12 13  1  0
 12 14  1  0
 12 15  1  0
 15 16  1  0
 15 17  1  0
 17 18  1  0
 17 19  1  0
 17 20  1  0
 20 21  1  0
 20 22  1  0
  7 23  1  0
 23 24  1  0
 23 25  1  0
 23 26  1  0
  6 27  1  0
 27 28  1  0
 27 29  2  0
 29 30  1  0
 29  2  1  0
 20  8  1  0
M  END
>  <plip>  (1) 
-0.03571428571428571

>  <filename>  (1) 
[H][c]1[n][c]([H])[c]([N]([N]2[C]([H])([H])[C]([H])([H])[N]([H])[C]([H])([H])[C]2([H])[H])[C]([H])([H])[H])[c]([H])[c]1[H]

$$$$
