
     RDKit          3D

 45 47  0  0  0  0  0  0  0  0999 V2000
    7.4259    0.5912   22.9297 C   0  0  0  0  0  0  0  0  0  0  0  0
    7.0762   -0.7357   22.2499 C   0  0  0  0  0  0  0  0  0  0  0  0
    7.3951   -0.7016   20.8506 O   0  0  0  0  0  0  0  0  0  0  0  0
    6.6606    0.0053   19.9399 C   0  0  0  0  0  0  0  0  0  0  0  0
    5.4430    0.6478   20.1818 C   0  0  0  0  0  0  0  0  0  0  0  0
    4.8124    1.3041   19.1095 C   0  0  0  0  0  0  0  0  0  0  0  0
    5.4007    1.2923   17.8429 C   0  0  0  0  0  0  0  0  0  0  0  0
    6.5693    0.6705   17.5949 N   0  0  0  0  0  0  0  0  0  0  0  0
    7.1737    0.0577   18.6180 C   0  0  0  0  0  0  0  0  0  0  0  0
    8.1203   -0.4339   18.3933 H   0  0  0  0  0  0  0  0  0  0  0  0
    4.9158    1.7804   16.9963 H   0  0  0  0  0  0  0  0  0  0  0  0
    3.8786    1.8386   19.2607 H   0  0  0  0  0  0  0  0  0  0  0  0
    4.9989    0.6346   21.1795 H   0  0  0  0  0  0  0  0  0  0  0  0
    7.9014   -1.9143   22.8533 C   0  0  0  0  0  0  0  0  0  0  0  0
    9.0723   -2.0839   22.5595 O   0  0  0  0  0  0  0  0  0  0  0  0
    7.2845   -2.7531   23.7689 N   0  0  0  0  0  0  0  0  0  0  0  0
    7.8497   -4.1140   23.8979 C   0  0  0  0  0  0  0  0  0  0  0  0
    7.0079   -5.0130   24.8053 C   0  0  0  0  0  0  0  0  0  0  0  0
    5.5057   -4.8329   24.5237 C   0  0  0  0  0  0  0  0  0  0  0  0
    4.6606   -5.7757   25.3631 C   0  0  0  0  0  0  0  0  0  0  0  0
    4.6823   -5.7167   26.7660 C   0  0  0  0  0  0  0  0  0  0  0  0
    3.9134   -6.5790   27.5514 C   0  0  0  0  0  0  0  0  0  0  0  0
    3.0937   -7.5294   26.9359 C   0  0  0  0  0  0  0  0  0  0  0  0
    3.0459   -7.6206   25.5428 C   0  0  0  0  0  0  0  0  0  0  0  0
    3.8272   -6.7474   24.7907 C   0  0  0  0  0  0  0  0  0  0  0  0
    3.7623   -6.8489   23.4476 F   0  0  0  0  0  0  0  0  0  0  0  0
    2.4189   -8.3455   25.0319 H   0  0  0  0  0  0  0  0  0  0  0  0
    2.4940   -8.2042   27.5372 H   0  0  0  0  0  0  0  0  0  0  0  0
    3.9505   -6.5070   28.6345 H   0  0  0  0  0  0  0  0  0  0  0  0
    5.3102   -4.9768   27.2574 H   0  0  0  0  0  0  0  0  0  0  0  0
    5.0779   -3.3507   24.7079 C   0  0  0  0  0  0  0  0  0  0  0  0
    6.2587   -2.3719   24.7450 C   0  0  0  0  0  0  0  0  0  0  0  0
    5.9123   -1.3553   24.5656 H   0  0  0  0  0  0  0  0  0  0  0  0
    6.6857   -2.3721   25.7619 H   0  0  0  0  0  0  0  0  0  0  0  0
    4.4908   -3.2196   25.6240 H   0  0  0  0  0  0  0  0  0  0  0  0
    4.4053   -3.0848   23.8907 H   0  0  0  0  0  0  0  0  0  0  0  0
    5.3583   -5.0902   23.4685 H   0  0  0  0  0  0  0  0  0  0  0  0
    7.2309   -4.8095   25.8584 H   0  0  0  0  0  0  0  0  0  0  0  0
    7.2918   -6.0561   24.6491 H   0  0  0  0  0  0  0  0  0  0  0  0
    8.8868   -4.0818   24.2532 H   0  0  0  0  0  0  0  0  0  0  0  0
    7.8886   -4.5623   22.8976 H   0  0  0  0  0  0  0  0  0  0  0  0
    6.0127   -0.9715   22.3528 H   0  0  0  0  0  0  0  0  0  0  0  0
    8.4824    0.8171   22.7589 H   0  0  0  0  0  0  0  0  0  0  0  0
    7.2542    0.5366   24.0094 H   0  0  0  0  0  0  0  0  0  0  0  0
    6.8358    1.4198   22.5260 H   0  0  0  0  0  0  0  0  0  0  0  0
  1  2  1  0
  2  3  1  0
  3  4  1  0
  4  5  2  0
  5  6  1  0
  6  7  2  0
  7  8  1  0
  8  9  2  0
  9 10  1  0
  7 11  1  0
  6 12  1  0
  5 13  1  0
  2 14  1  0
 14 15  2  0
 14 16  1  0
 16 17  1  0
 17 18  1  0
 18 19  1  0
 19 20  1  0
 20 21  2  0
 21 22  1  0
 22 23  2  0
 23 24  1  0
 24 25  2  0
 25 26  1  0
 24 27  1  0
 23 28  1  0
 22 29  1  0
 21 30  1  0
 19 31  1  0
 31 32  1  0
 32 33  1  0
 32 34  1  0
 31 35  1  0
 31 36  1  0
 19 37  1  0
 18 38  1  0
 18 39  1  0
 17 40  1  0
 17 41  1  0
  2 42  1  0
  1 43  1  0
  1 44  1  0
  1 45  1  0
  9  4  1  0
 32 16  1  0
 25 20  1  0
M  END
>  <plip>  (1) 
-0.07142857142857142

>  <filename>  (1) 
[H][c]1[n][c]([H])[c]([O][C]([H])([C](=[O])[N]2[C]([H])([H])[C]([H])([H])[C]([H])([c]3[c]([H])[c]([H])[c]([H])[c]([H])[c]3[F])[C]([H])([H])[C]2([H])[H])[C]([H])([H])[H])[c]([H])[c]1[H]

$$$$
