
     RDKit          3D

 31 33  0  0  0  0  0  0  0  0999 V2000
    4.7705    2.0746   16.9164 H   0  0  0  0  0  0  0  0  0  0  0  0
    5.0500    1.3436   17.6697 C   0  0  0  0  0  0  0  0  0  0  0  0
    5.8358    0.3430   17.2411 N   0  0  0  0  0  0  0  0  0  0  0  0
    6.2387   -0.5540   18.1443 C   0  0  0  0  0  0  0  0  0  0  0  0
    6.8490   -1.3857   17.7935 H   0  0  0  0  0  0  0  0  0  0  0  0
    5.9381   -0.4623   19.5187 C   0  0  0  0  0  0  0  0  0  0  0  0
    6.6533   -1.2647   20.4604 N   0  0  0  0  0  0  0  0  0  0  0  0
    6.1933   -2.1808   21.3702 C   0  0  0  0  0  0  0  0  0  0  0  0
    5.1440   -2.3592   21.5501 H   0  0  0  0  0  0  0  0  0  0  0  0
    7.1823   -2.7670   21.9840 N   0  0  0  0  0  0  0  0  0  0  0  0
    8.3454   -2.2052   21.5149 N   0  0  0  0  0  0  0  0  0  0  0  0
    8.0231   -1.2837   20.6473 C   0  0  0  0  0  0  0  0  0  0  0  0
    8.9906   -0.3404   19.9566 C   0  0  0  0  0  0  0  0  0  0  0  0
    8.4321    0.4149   19.4024 H   0  0  0  0  0  0  0  0  0  0  0  0
    9.5567   -0.8912   19.2039 H   0  0  0  0  0  0  0  0  0  0  0  0
    9.9261    0.3559   20.8355 N   0  0  0  0  0  0  0  0  0  0  0  0
   10.7026   -0.1633   21.1992 H   0  0  0  0  0  0  0  0  0  0  0  0
    9.6180    1.5227   21.4718 C   0  0  0  0  0  0  0  0  0  0  0  0
    8.5949    2.1390   21.2218 O   0  0  0  0  0  0  0  0  0  0  0  0
   10.6219    2.0156   22.4480 C   0  0  0  0  0  0  0  0  0  0  0  0
   10.4041    3.6552   22.9490 S   0  0  0  0  0  0  0  0  0  0  0  0
   11.7749    3.5773   23.9610 C   0  0  0  0  0  0  0  0  0  0  0  0
   12.1015    4.4674   24.4797 H   0  0  0  0  0  0  0  0  0  0  0  0
   12.3677    2.3452   23.9309 C   0  0  0  0  0  0  0  0  0  0  0  0
   13.2413    2.0661   24.5032 H   0  0  0  0  0  0  0  0  0  0  0  0
   11.7193    1.4441   23.0453 C   0  0  0  0  0  0  0  0  0  0  0  0
   12.0999    0.4386   22.8641 H   0  0  0  0  0  0  0  0  0  0  0  0
    5.0408    0.5213   19.9410 C   0  0  0  0  0  0  0  0  0  0  0  0
    4.7318    0.5717   20.9853 H   0  0  0  0  0  0  0  0  0  0  0  0
    4.5997    1.4512   18.9910 C   0  0  0  0  0  0  0  0  0  0  0  0
    3.9311    2.2585   19.2666 H   0  0  0  0  0  0  0  0  0  0  0  0
  1  2  1  0
  2  3  2  0
  3  4  1  0
  4  5  1  0
  4  6  2  0
  6  7  1  0
  7  8  1  0
  8  9  1  0
  8 10  2  0
 10 11  1  0
 11 12  2  0
 12 13  1  0
 13 14  1  0
 13 15  1  0
 13 16  1  0
 16 17  1  0
 16 18  1  0
 18 19  2  0
 18 20  1  0
 20 21  1  0
 21 22  1  0
 22 23  1  0
 22 24  2  0
 24 25  1  0
 24 26  1  0
 26 27  1  0
  6 28  1  0
 28 29  1  0
 28 30  2  0
 30 31  1  0
 30  2  1  0
 12  7  1  0
 26 20  2  0
M  END
>  <plip>  (1) 
-0.10344827586206896

>  <filename>  (1) 
[H][c]1[n][c]([H])[c](-[n]2[c]([H])[n][n][c]2[C]([H])([H])[N]([H])[C](=[O])[c]2[s][c]([H])[c]([H])[c]2[H])[c]([H])[c]1[H]

$$$$
