
     RDKit          3D

 44 44  0  0  0  0  0  0  0  0999 V2000
    5.7690   -0.1779   26.9217 C   0  0  0  0  0  0  0  0  0  0  0  0
    5.2153    1.2272   27.1536 C   0  0  0  0  0  0  0  0  0  0  0  0
    6.2826    2.2860   27.3953 C   0  0  0  0  0  0  0  0  0  0  0  0
    7.1836    2.4290   26.2802 O   0  0  0  0  0  0  0  0  0  0  0  0
    6.6988    3.0350   25.1775 C   0  0  0  0  0  0  0  0  0  0  0  0
    5.6482    3.6261   25.1286 O   0  0  0  0  0  0  0  0  0  0  0  0
    7.6852    2.9152   24.0108 C   0  0  0  0  0  0  0  0  0  0  0  0
    7.6491    1.5799   23.2046 C   0  0  0  0  0  0  0  0  0  0  0  0
    8.7532    1.4892   21.7808 S   0  0  0  0  0  0  0  0  0  0  0  0
    8.1943    2.2594   20.6981 O   0  0  0  0  0  0  0  0  0  0  0  0
   10.1050    1.7387   22.2450 O   0  0  0  0  0  0  0  0  0  0  0  0
    8.6754   -0.1485   21.3951 N   0  0  0  0  0  0  0  0  0  0  0  0
    9.5848   -1.0188   22.1859 C   0  0  0  0  0  0  0  0  0  0  0  0
   10.9948   -1.0703   21.5958 C   0  0  0  0  0  0  0  0  0  0  0  0
   11.7831   -1.9423   22.3976 O   0  0  0  0  0  0  0  0  0  0  0  0
   12.6140   -2.1079   21.9319 H   0  0  0  0  0  0  0  0  0  0  0  0
   10.8516   -1.4573   20.5936 H   0  0  0  0  0  0  0  0  0  0  0  0
   11.4162   -0.0599   21.5101 H   0  0  0  0  0  0  0  0  0  0  0  0
    9.6460   -0.7425   23.2444 H   0  0  0  0  0  0  0  0  0  0  0  0
    9.1960   -2.0437   22.1604 H   0  0  0  0  0  0  0  0  0  0  0  0
    7.3598   -0.7039   21.0335 C   0  0  0  0  0  0  0  0  0  0  0  0
    6.6344    0.0356   19.9424 C   0  0  0  0  0  0  0  0  0  0  0  0
    5.3979    0.6628   20.1456 C   0  0  0  0  0  0  0  0  0  0  0  0
    4.7787    1.3116   19.0736 C   0  0  0  0  0  0  0  0  0  0  0  0
    5.4101    1.2908   17.8277 C   0  0  0  0  0  0  0  0  0  0  0  0
    6.5812    0.6753   17.6089 N   0  0  0  0  0  0  0  0  0  0  0  0
    7.1780    0.0804   18.6526 C   0  0  0  0  0  0  0  0  0  0  0  0
    8.1352   -0.3964   18.4318 H   0  0  0  0  0  0  0  0  0  0  0  0
    4.9559    1.7853   16.9709 H   0  0  0  0  0  0  0  0  0  0  0  0
    3.8423    1.8440   19.1983 H   0  0  0  0  0  0  0  0  0  0  0  0
    4.9290    0.6612   21.1325 H   0  0  0  0  0  0  0  0  0  0  0  0
    6.6975   -0.8197   21.9119 H   0  0  0  0  0  0  0  0  0  0  0  0
    7.5595   -1.7285   20.6822 H   0  0  0  0  0  0  0  0  0  0  0  0
    7.9619    0.7241   23.8112 H   0  0  0  0  0  0  0  0  0  0  0  0
    6.6627    1.3776   22.7792 H   0  0  0  0  0  0  0  0  0  0  0  0
    7.4470    3.7571   23.3548 H   0  0  0  0  0  0  0  0  0  0  0  0
    8.6814    3.0725   24.4350 H   0  0  0  0  0  0  0  0  0  0  0  0
    5.8188    3.2526   27.6122 H   0  0  0  0  0  0  0  0  0  0  0  0
    6.9319    2.0138   28.2317 H   0  0  0  0  0  0  0  0  0  0  0  0
    4.5583    1.2372   28.0318 H   0  0  0  0  0  0  0  0  0  0  0  0
    4.5976    1.5420   26.3059 H   0  0  0  0  0  0  0  0  0  0  0  0
    4.9632   -0.9080   26.7933 H   0  0  0  0  0  0  0  0  0  0  0  0
    6.3988   -0.2223   26.0264 H   0  0  0  0  0  0  0  0  0  0  0  0
    6.3824   -0.5008   27.7710 H   0  0  0  0  0  0  0  0  0  0  0  0
  1  2  1  0
  2  3  1  0
  3  4  1  0
  4  5  1  0
  5  6  2  0
  5  7  1  0
  7  8  1  0
  8  9  1  0
  9 10  2  0
  9 11  2  0
  9 12  1  0
 12 13  1  0
 13 14  1  0
 14 15  1  0
 15 16  1  0
 14 17  1  0
 14 18  1  0
 13 19  1  0
 13 20  1  0
 12 21  1  0
 21 22  1  0
 22 23  2  0
 23 24  1  0
 24 25  2  0
 25 26  1  0
 26 27  2  0
 27 28  1  0
 25 29  1  0
 24 30  1  0
 23 31  1  0
 21 32  1  0
 21 33  1  0
  8 34  1  0
  8 35  1  0
  7 36  1  0
  7 37  1  0
  3 38  1  0
  3 39  1  0
  2 40  1  0
  2 41  1  0
  1 42  1  0
  1 43  1  0
  1 44  1  0
 27 22  1  0
M  END
>  <plip>  (1) 
-0.034482758620689655

>  <filename>  (1) 
[H][O][C]([H])([H])[C]([H])([H])[N]([C]([H])([H])[c]1[c]([H])[n][c]([H])[c]([H])[c]1[H])[S](=[O])(=[O])[C]([H])([H])[C]([H])([H])[C](=[O])[O][C]([H])([H])[C]([H])([H])[C]([H])([H])[H]

$$$$
