
     RDKit          3D

 31 33  0  0  0  0  0  0  0  0999 V2000
    4.9184    1.7796   16.9990 H   0  0  0  0  0  0  0  0  0  0  0  0
    5.4027    1.2946   17.8414 C   0  0  0  0  0  0  0  0  0  0  0  0
    6.5684    0.6823   17.5801 N   0  0  0  0  0  0  0  0  0  0  0  0
    7.1703    0.0577   18.5945 C   0  0  0  0  0  0  0  0  0  0  0  0
    8.1187   -0.4310   18.3759 H   0  0  0  0  0  0  0  0  0  0  0  0
    6.6442    0.0162   19.8894 C   0  0  0  0  0  0  0  0  0  0  0  0
    7.3731   -0.7229   20.9091 C   0  0  0  0  0  0  0  0  0  0  0  0
    7.5306   -2.0118   20.8952 N   0  0  0  0  0  0  0  0  0  0  0  0
    8.2494   -2.2486   22.0279 N   0  0  0  0  0  0  0  0  0  0  0  0
    8.5542   -3.1673   22.2972 H   0  0  0  0  0  0  0  0  0  0  0  0
    8.5710   -1.1481   22.7307 C   0  0  0  0  0  0  0  0  0  0  0  0
    9.4584   -1.0685   24.1353 S   0  0  0  0  0  0  0  0  0  0  0  0
    8.0016   -0.1391   21.9898 N   0  0  0  0  0  0  0  0  0  0  0  0
    8.0665    1.2882   22.3023 C   0  0  0  0  0  0  0  0  0  0  0  0
    8.2849    1.8434   21.3877 H   0  0  0  0  0  0  0  0  0  0  0  0
    8.9115    1.4410   22.9786 H   0  0  0  0  0  0  0  0  0  0  0  0
    6.8063    1.8487   22.9452 C   0  0  0  0  0  0  0  0  0  0  0  0
    6.1725    2.9934   22.4301 C   0  0  0  0  0  0  0  0  0  0  0  0
    6.5698    3.4845   21.5422 H   0  0  0  0  0  0  0  0  0  0  0  0
    5.0005    3.4846   23.0147 C   0  0  0  0  0  0  0  0  0  0  0  0
    4.5081    4.3574   22.5914 H   0  0  0  0  0  0  0  0  0  0  0  0
    4.4570    2.8608   24.1431 C   0  0  0  0  0  0  0  0  0  0  0  0
    3.5545    3.2251   24.6227 H   0  0  0  0  0  0  0  0  0  0  0  0
    5.1157    1.7478   24.6620 C   0  0  0  0  0  0  0  0  0  0  0  0
    4.6101    1.1466   25.7525 F   0  0  0  0  0  0  0  0  0  0  0  0
    6.2775    1.2365   24.0912 C   0  0  0  0  0  0  0  0  0  0  0  0
    6.7593    0.3696   24.5389 H   0  0  0  0  0  0  0  0  0  0  0  0
    5.4258    0.6523   20.1533 C   0  0  0  0  0  0  0  0  0  0  0  0
    5.0092    0.6276   21.1654 H   0  0  0  0  0  0  0  0  0  0  0  0
    4.7997    1.3150   19.1042 C   0  0  0  0  0  0  0  0  0  0  0  0
    3.8688    1.8476   19.2561 H   0  0  0  0  0  0  0  0  0  0  0  0
  1  2  1  0
  2  3  2  0
  3  4  1  0
  4  5  1  0
  4  6  2  0
  6  7  1  0
  7  8  2  0
  8  9  1  0
  9 10  1  0
  9 11  1  0
 11 12  2  0
 11 13  1  0
 13 14  1  0
 14 15  1  0
 14 16  1  0
 14 17  1  0
 17 18  2  0
 18 19  1  0
 18 20  1  0
 20 21  1  0
 20 22  2  0
 22 23  1  0
 22 24  1  0
 24 25  1  0
 24 26  2  0
 26 27  1  0
  6 28  1  0
 28 29  1  0
 28 30  2  0
 30 31  1  0
 30  2  1  0
 13  7  1  0
 26 17  1  0
M  END
>  <plip>  (1) 
-0.034482758620689655

>  <filename>  (1) 
[H][c]1[n][c]([H])[c](-[c]2[n][n]([H])[c](=[S])[n]2[C]([H])([H])[c]2[c]([H])[c]([H])[c]([H])[c]([F])[c]2[H])[c]([H])[c]1[H]

$$$$
