
     RDKit          3D

 26 28  0  0  0  0  0  0  0  0999 V2000
    4.9159    1.7740   17.0024 H   0  0  0  0  0  0  0  0  0  0  0  0
    5.4044    1.2897   17.8435 C   0  0  0  0  0  0  0  0  0  0  0  0
    6.5698    0.6744   17.5850 N   0  0  0  0  0  0  0  0  0  0  0  0
    7.1793    0.0630   18.6032 C   0  0  0  0  0  0  0  0  0  0  0  0
    8.1260   -0.4278   18.3833 H   0  0  0  0  0  0  0  0  0  0  0  0
    6.6511    0.0104   19.9046 C   0  0  0  0  0  0  0  0  0  0  0  0
    7.3965   -0.6994   20.9331 C   0  0  0  0  0  0  0  0  0  0  0  0
    8.6539   -1.0448   20.8403 N   0  0  0  0  0  0  0  0  0  0  0  0
    8.9643   -1.6767   22.0078 C   0  0  0  0  0  0  0  0  0  0  0  0
    9.9452   -2.0694   22.2078 H   0  0  0  0  0  0  0  0  0  0  0  0
    7.8672   -1.7352   22.8281 C   0  0  0  0  0  0  0  0  0  0  0  0
    7.7117   -2.2995   24.0971 N   0  0  0  0  0  0  0  0  0  0  0  0
    6.5661   -2.3184   24.8764 C   0  0  0  0  0  0  0  0  0  0  0  0
    5.6365   -1.8640   24.5467 H   0  0  0  0  0  0  0  0  0  0  0  0
    6.8533   -2.9706   26.0386 C   0  0  0  0  0  0  0  0  0  0  0  0
    6.1636   -3.1475   26.8530 H   0  0  0  0  0  0  0  0  0  0  0  0
    8.2196   -3.3725   25.9842 C   0  0  0  0  0  0  0  0  0  0  0  0
    8.7642   -3.9129   26.7470 H   0  0  0  0  0  0  0  0  0  0  0  0
    8.7207   -2.9519   24.7897 C   0  0  0  0  0  0  0  0  0  0  0  0
    9.7181   -3.0644   24.3762 H   0  0  0  0  0  0  0  0  0  0  0  0
    6.8669   -1.0964   22.1275 N   0  0  0  0  0  0  0  0  0  0  0  0
    5.9073   -0.9791   22.4033 H   0  0  0  0  0  0  0  0  0  0  0  0
    5.4323    0.6540   20.1577 C   0  0  0  0  0  0  0  0  0  0  0  0
    4.9928    0.6478   21.1592 H   0  0  0  0  0  0  0  0  0  0  0  0
    4.8026    1.3123   19.1091 C   0  0  0  0  0  0  0  0  0  0  0  0
    3.8704    1.8457   19.2633 H   0  0  0  0  0  0  0  0  0  0  0  0
  1  2  1  0
  2  3  2  0
  3  4  1  0
  4  5  1  0
  4  6  2  0
  6  7  1  0
  7  8  2  0
  8  9  1  0
  9 10  1  0
  9 11  2  0
 11 12  1  0
 12 13  1  0
 13 14  1  0
 13 15  2  0
 15 16  1  0
 15 17  1  0
 17 18  1  0
 17 19  2  0
 19 20  1  0
 11 21  1  0
 21 22  1  0
  6 23  1  0
 23 24  1  0
 23 25  2  0
 25 26  1  0
 25  2  1  0
 21  7  1  0
 19 12  1  0
M  END
>  <plip>  (1) 
-0.07142857142857142

>  <filename>  (1) 
[H][c]1[n][c]([H])[c](-[c]2[n][c]([H])[c](-[n]3[c]([H])[c]([H])[c]([H])[c]3[H])[n]2[H])[c]([H])[c]1[H]

$$$$
