
     RDKit          3D

 35 36  0  0  0  0  0  0  0  0999 V2000
    4.9568    1.7915   16.9955 H   0  0  0  0  0  0  0  0  0  0  0  0
    5.4161    1.2870   17.8448 C   0  0  0  0  0  0  0  0  0  0  0  0
    6.5787    0.6613   17.5962 N   0  0  0  0  0  0  0  0  0  0  0  0
    7.1726    0.0369   18.6236 C   0  0  0  0  0  0  0  0  0  0  0  0
    8.1241   -0.4417   18.3851 H   0  0  0  0  0  0  0  0  0  0  0  0
    6.6544   -0.0239   19.9353 C   0  0  0  0  0  0  0  0  0  0  0  0
    7.3492   -0.7622   21.0653 C   0  0  0  0  0  0  0  0  0  0  0  0
    8.3041   -1.1866   20.7239 H   0  0  0  0  0  0  0  0  0  0  0  0
    7.5332   -0.0062   22.4236 C   0  0  0  0  0  0  0  0  0  0  0  0
    7.1049    1.0064   22.4856 H   0  0  0  0  0  0  0  0  0  0  0  0
    8.5629    0.0233   22.8100 H   0  0  0  0  0  0  0  0  0  0  0  0
    6.7273   -1.0325   23.0721 N   0  0  0  0  0  0  0  0  0  0  0  0
    6.3874   -1.0124   24.3973 C   0  0  0  0  0  0  0  0  0  0  0  0
    6.7376   -0.1272   25.1406 O   0  0  0  0  0  0  0  0  0  0  0  0
    5.6284   -2.1210   24.7726 N   0  0  0  0  0  0  0  0  0  0  0  0
    5.2756   -2.6705   24.0171 H   0  0  0  0  0  0  0  0  0  0  0  0
    5.1591   -2.2896   26.0603 C   0  0  0  0  0  0  0  0  0  0  0  0
    5.4427   -1.5485   26.9694 O   0  0  0  0  0  0  0  0  0  0  0  0
    4.2845   -3.5070   26.3262 C   0  0  0  0  0  0  0  0  0  0  0  0
    3.7294   -3.8062   25.4328 H   0  0  0  0  0  0  0  0  0  0  0  0
    3.5580   -3.1549   27.0653 H   0  0  0  0  0  0  0  0  0  0  0  0
    5.0582   -4.7112   26.9094 C   0  0  0  0  0  0  0  0  0  0  0  0
    4.3342   -5.4555   27.2688 H   0  0  0  0  0  0  0  0  0  0  0  0
    5.6214   -4.3852   27.7958 H   0  0  0  0  0  0  0  0  0  0  0  0
    5.9981   -5.3546   25.8921 C   0  0  0  0  0  0  0  0  0  0  0  0
    6.7664   -4.6477   25.5635 H   0  0  0  0  0  0  0  0  0  0  0  0
    5.4438   -5.6785   25.0041 H   0  0  0  0  0  0  0  0  0  0  0  0
    6.5126   -6.2336   26.2948 H   0  0  0  0  0  0  0  0  0  0  0  0
    6.5002   -1.8198   21.8612 C   0  0  0  0  0  0  0  0  0  0  0  0
    6.9421   -2.8239   21.9050 H   0  0  0  0  0  0  0  0  0  0  0  0
    5.4492   -1.9024   21.5532 H   0  0  0  0  0  0  0  0  0  0  0  0
    5.4353    0.6423   20.1596 C   0  0  0  0  0  0  0  0  0  0  0  0
    4.9890    0.6531   21.1535 H   0  0  0  0  0  0  0  0  0  0  0  0
    4.8073    1.3054   19.1037 C   0  0  0  0  0  0  0  0  0  0  0  0
    3.8744    1.8428   19.2372 H   0  0  0  0  0  0  0  0  0  0  0  0
  1  2  1  0
  2  3  2  0
  3  4  1  0
  4  5  1  0
  4  6  2  0
  6  7  1  0
  7  8  1  0
  7  9  1  0
  9 10  1  0
  9 11  1  0
  9 12  1  0
 12 13  1  0
 13 14  2  0
 13 15  1  0
 15 16  1  0
 15 17  1  0
 17 18  2  0
 17 19  1  0
 19 20  1  0
 19 21  1  0
 19 22  1  0
 22 23  1  0
 22 24  1  0
 22 25  1  0
 25 26  1  0
 25 27  1  0
 25 28  1  0
 12 29  1  0
 29 30  1  0
 29 31  1  0
  6 32  1  0
 32 33  1  0
 32 34  2  0
 34 35  1  0
 34  2  1  0
 29  7  1  0
M  END
>  <plip>  (1) 
-0.0

>  <filename>  (1) 
[H][c]1[n][c]([H])[c]([C]2([H])[C]([H])([H])[N]([C](=[O])[N]([H])[C](=[O])[C]([H])([H])[C]([H])([H])[C]([H])([H])[H])[C]2([H])[H])[c]([H])[c]1[H]

$$$$
