
     RDKit          3D

 26 27  0  0  0  0  0  0  0  0999 V2000
    5.9382   -1.2211   22.1939 H   0  0  0  0  0  0  0  0  0  0  0  0
    7.0041   -1.1314   21.9579 C   0  0  0  0  0  0  0  0  0  0  0  0
    7.4587   -0.5796   20.9100 N   0  0  0  0  0  0  0  0  0  0  0  0
    6.6504   -0.0018   19.9115 C   0  0  0  0  0  0  0  0  0  0  0  0
    7.1475    0.0297   18.5830 C   0  0  0  0  0  0  0  0  0  0  0  0
    8.0955   -0.4681   18.3806 H   0  0  0  0  0  0  0  0  0  0  0  0
    6.5422    0.6425   17.5625 N   0  0  0  0  0  0  0  0  0  0  0  0
    5.3857    1.2816   17.8270 C   0  0  0  0  0  0  0  0  0  0  0  0
    4.9215    1.8045   16.9929 H   0  0  0  0  0  0  0  0  0  0  0  0
    4.7968    1.2954   19.0941 C   0  0  0  0  0  0  0  0  0  0  0  0
    3.8639    1.8236   19.2492 H   0  0  0  0  0  0  0  0  0  0  0  0
    5.4358    0.6421   20.1572 C   0  0  0  0  0  0  0  0  0  0  0  0
    5.0295    0.6601   21.1679 H   0  0  0  0  0  0  0  0  0  0  0  0
    7.8414   -1.6890   22.8910 N   0  0  0  0  0  0  0  0  0  0  0  0
    7.4166   -2.2882   23.5739 H   0  0  0  0  0  0  0  0  0  0  0  0
    9.2519   -1.7115   22.8025 C   0  0  0  0  0  0  0  0  0  0  0  0
    9.9547   -0.5964   22.3229 C   0  0  0  0  0  0  0  0  0  0  0  0
    9.3868    0.3035   22.1295 H   0  0  0  0  0  0  0  0  0  0  0  0
   11.3243   -0.6774   22.0679 C   0  0  0  0  0  0  0  0  0  0  0  0
   11.8487    0.1821   21.6625 H   0  0  0  0  0  0  0  0  0  0  0  0
   11.9991   -1.8714   22.3229 C   0  0  0  0  0  0  0  0  0  0  0  0
   13.6505   -2.0415   21.8032 Cl  0  0  0  0  0  0  0  0  0  0  0  0
   11.3409   -2.9281   22.9633 C   0  0  0  0  0  0  0  0  0  0  0  0
   11.9274   -3.7610   23.3280 H   0  0  0  0  0  0  0  0  0  0  0  0
    9.9623   -2.8519   23.1886 C   0  0  0  0  0  0  0  0  0  0  0  0
    9.4426   -3.6930   23.6387 H   0  0  0  0  0  0  0  0  0  0  0  0
  1  2  1  0
  2  3  2  3
  3  4  1  0
  4  5  2  0
  5  6  1  0
  5  7  1  0
  7  8  2  0
  8  9  1  0
  8 10  1  0
 10 11  1  0
 10 12  2  0
 12 13  1  0
  2 14  1  0
 14 15  1  0
 14 16  1  0
 16 17  2  0
 17 18  1  0
 17 19  1  0
 19 20  1  0
 19 21  2  0
 21 22  1  0
 21 23  1  0
 23 24  1  0
 23 25  2  0
 25 26  1  0
 12  4  1  0
 25 16  1  0
M  END
>  <plip>  (1) 
-0.03571428571428571

>  <filename>  (1) 
[H][C](=[N][c]1[c]([H])[n][c]([H])[c]([H])[c]1[H])[N]([H])[c]1[c]([H])[c]([H])[c]([Cl])[c]([H])[c]1[H]

$$$$
