
     RDKit          3D

 33 36  0  0  0  0  0  0  0  0999 V2000
    5.0042    1.7659   17.0210 H   0  0  0  0  0  0  0  0  0  0  0  0
    5.4786    1.2758   17.8701 C   0  0  0  0  0  0  0  0  0  0  0  0
    6.6621    0.6967   17.6185 N   0  0  0  0  0  0  0  0  0  0  0  0
    7.2709    0.0732   18.6298 C   0  0  0  0  0  0  0  0  0  0  0  0
    8.2393   -0.3690   18.4067 H   0  0  0  0  0  0  0  0  0  0  0  0
    6.7244   -0.0559   19.9171 C   0  0  0  0  0  0  0  0  0  0  0  0
    7.4920   -0.8045   20.9127 C   0  0  0  0  0  0  0  0  0  0  0  0
    8.8540   -0.6580   20.9985 N   0  0  0  0  0  0  0  0  0  0  0  0
    9.2074   -1.4776   21.9449 C   0  0  0  0  0  0  0  0  0  0  0  0
    8.1833   -2.1989   22.4490 N   0  0  0  0  0  0  0  0  0  0  0  0
    7.0502   -1.7845   21.7913 C   0  0  0  0  0  0  0  0  0  0  0  0
    5.7900   -2.5620   21.8096 C   0  0  2  0  0  0  0  0  0  0  0  0
    5.0205   -1.8703   21.4549 H   0  0  0  0  0  0  0  0  0  0  0  0
    5.3625   -3.0919   23.1019 N   0  0  0  0  0  0  0  0  0  0  0  0
    4.8395   -4.2145   22.8297 C   0  0  0  0  0  0  0  0  0  0  0  0
    4.2192   -5.0123   23.7310 N   0  0  0  0  0  0  0  0  0  0  0  0
    4.5361   -4.6318   24.6123 H   0  0  0  0  0  0  0  0  0  0  0  0
    4.5446   -5.9446   23.5314 H   0  0  0  0  0  0  0  0  0  0  0  0
    4.9441   -4.7354   21.6027 O   0  0  0  0  0  0  0  0  0  0  0  0
    5.8103   -3.8254   20.9061 C   0  0  0  0  0  0  0  0  0  0  0  0
    6.8112   -4.2765   20.8615 H   0  0  0  0  0  0  0  0  0  0  0  0
    5.4092   -3.6680   19.9063 H   0  0  0  0  0  0  0  0  0  0  0  0
    8.4338   -3.2213   23.4430 C   0  0  0  0  0  0  0  0  0  0  0  0
    8.1894   -4.2099   23.0370 H   0  0  0  0  0  0  0  0  0  0  0  0
    7.7770   -3.0684   24.3031 H   0  0  0  0  0  0  0  0  0  0  0  0
    9.9384   -3.0990   23.8018 C   0  0  0  0  0  0  0  0  0  0  0  0
   10.0725   -2.7428   24.8240 H   0  0  0  0  0  0  0  0  0  0  0  0
   10.4469   -4.0567   23.6921 H   0  0  0  0  0  0  0  0  0  0  0  0
   10.7460   -1.8968   22.6670 S   0  0  0  0  0  0  0  0  0  0  0  0
    5.4887    0.5633   20.1676 C   0  0  0  0  0  0  0  0  0  0  0  0
    5.0372    0.5415   21.1604 H   0  0  0  0  0  0  0  0  0  0  0  0
    4.8627    1.2511   19.1254 C   0  0  0  0  0  0  0  0  0  0  0  0
    3.9107    1.7526   19.2623 H   0  0  0  0  0  0  0  0  0  0  0  0
  1  2  1  0
  2  3  2  0
  3  4  1  0
  4  5  1  0
  4  6  2  0
  6  7  1  0
  7  8  1  0
  8  9  2  0
  9 10  1  0
 10 11  1  0
 11 12  1  0
 12 13  1  6
 12 14  1  0
 14 15  2  0
 15 16  1  0
 16 17  1  0
 16 18  1  0
 15 19  1  0
 19 20  1  0
 20 21  1  0
 20 22  1  0
 10 23  1  0
 23 24  1  0
 23 25  1  0
 23 26  1  0
 26 27  1  0
 26 28  1  0
 26 29  1  0
  6 30  1  0
 30 31  1  0
 30 32  2  0
 32 33  1  0
 32  2  1  0
 11  7  2  0
 20 12  1  0
 29  9  1  0
M  END
>  <plip>  (1) 
-0.07142857142857142

>  <filename>  (1) 
[H][c]1[n][c]([H])[c](-[c]2[n][c]3[n]([c]2[C@]2([H])[N]=[C]([N]([H])[H])[O][C]2([H])[H])[C]([H])([H])[C]([H])([H])[S]3)[c]([H])[c]1[H]

$$$$
