
     RDKit          3D

 28 30  0  0  0  0  0  0  0  0999 V2000
    4.7186    1.3720   18.9049 C   0  0  0  0  0  0  0  0  0  0  0  0
    5.4081    1.4255   17.6915 C   0  0  0  0  0  0  0  0  0  0  0  0
    6.5594    0.7696   17.4755 N   0  0  0  0  0  0  0  0  0  0  0  0
    7.0543    0.0438   18.4857 C   0  0  0  0  0  0  0  0  0  0  0  0
    6.4107   -0.1417   19.7182 C   0  0  0  0  0  0  0  0  0  0  0  0
    7.1068   -0.9485   20.7820 C   0  0  0  0  0  0  0  0  0  0  0  0
    8.2566   -0.1548   21.2066 N   0  0  0  0  0  0  0  0  0  0  0  0
    8.9938   -0.5241   22.3013 C   0  0  0  0  0  0  0  0  0  0  0  0
    9.0137   -1.7396   22.7516 N   0  0  0  0  0  0  0  0  0  0  0  0
    9.9889   -1.8249   24.1253 S   0  0  0  0  0  0  0  0  0  0  0  0
   10.4339   -0.1419   24.0896 C   0  0  0  0  0  0  0  0  0  0  0  0
   11.2912    0.5897   24.9357 C   0  0  0  0  0  0  0  0  0  0  0  0
   11.4666    1.9362   24.6603 C   0  0  0  0  0  0  0  0  0  0  0  0
   10.8098    2.5803   23.5954 C   0  0  0  0  0  0  0  0  0  0  0  0
    9.9823    1.8577   22.7463 C   0  0  0  0  0  0  0  0  0  0  0  0
    9.7895    0.4769   22.9984 C   0  0  0  0  0  0  0  0  0  0  0  0
    9.5259    2.3833   21.9037 H   0  0  0  0  0  0  0  0  0  0  0  0
   10.9533    3.6536   23.4677 H   0  0  0  0  0  0  0  0  0  0  0  0
   12.1417    2.5137   25.2699 H   0  0  0  0  0  0  0  0  0  0  0  0
   11.8013    0.1251   25.7783 H   0  0  0  0  0  0  0  0  0  0  0  0
    8.0517    0.8295   21.2920 H   0  0  0  0  0  0  0  0  0  0  0  0
    6.4273   -1.1972   21.6172 H   0  0  0  0  0  0  0  0  0  0  0  0
    7.4773   -1.9028   20.3827 H   0  0  0  0  0  0  0  0  0  0  0  0
    5.2242    0.5696   19.9339 C   0  0  0  0  0  0  0  0  0  0  0  0
    4.7307    0.5324   20.9053 H   0  0  0  0  0  0  0  0  0  0  0  0
    8.0343   -0.3996   18.3114 H   0  0  0  0  0  0  0  0  0  0  0  0
    5.0163    2.0047   16.8528 H   0  0  0  0  0  0  0  0  0  0  0  0
    3.8169    1.9614   19.0317 H   0  0  0  0  0  0  0  0  0  0  0  0
  1  2  2  0
  2  3  1  0
  3  4  2  0
  4  5  1  0
  5  6  1  0
  6  7  1  0
  7  8  1  0
  8  9  2  0
  9 10  1  0
 10 11  1  0
 11 12  2  0
 12 13  1  0
 13 14  2  0
 14 15  1  0
 15 16  2  0
 15 17  1  0
 14 18  1  0
 13 19  1  0
 12 20  1  0
  7 21  1  0
  6 22  1  0
  6 23  1  0
  5 24  2  0
 24 25  1  0
  4 26  1  0
  2 27  1  0
  1 28  1  0
 24  1  1  0
 16  8  1  0
 16 11  1  0
M  END
>  <plip>  (1) 
-0.06666666666666667

>  <filename>  (1) 
[H][c]1[n][c]([H])[c]([C]([H])([H])[N]([H])[c]2[n][s][c]3[c]([H])[c]([H])[c]([H])[c]([H])[c]23)[c]([H])[c]1[H]

$$$$
