
     RDKit          3D

 44 46  0  0  0  0  0  0  0  0999 V2000
    4.9249    1.8092   16.9309 H   0  0  0  0  0  0  0  0  0  0  0  0
    5.3931    1.3201   17.7839 C   0  0  0  0  0  0  0  0  0  0  0  0
    6.5541    0.6927   17.5469 N   0  0  0  0  0  0  0  0  0  0  0  0
    7.1427    0.0834   18.5865 C   0  0  0  0  0  0  0  0  0  0  0  0
    8.0736   -0.4305   18.3463 H   0  0  0  0  0  0  0  0  0  0  0  0
    6.6442    0.0617   19.9090 C   0  0  0  0  0  0  0  0  0  0  0  0
    7.4381   -0.5908   21.0608 C   0  0  2  0  0  0  0  0  0  0  0  0
    8.5670    0.3379   21.5928 C   0  0  0  0  0  0  0  0  0  0  0  0
    9.1456   -0.2058   22.3546 H   0  0  0  0  0  0  0  0  0  0  0  0
    9.2775    0.5379   20.7631 H   0  0  0  0  0  0  0  0  0  0  0  0
    8.0433    1.5431   22.2083 N   0  0  0  0  0  0  0  0  0  0  0  0
    7.5248    2.0849   21.5181 H   0  0  0  0  0  0  0  0  0  0  0  0
    9.0005    2.4038   22.8776 C   0  0  0  0  0  0  0  0  0  0  0  0
    9.8165    2.7723   22.2249 H   0  0  0  0  0  0  0  0  0  0  0  0
    9.4820    1.8409   23.6917 H   0  0  0  0  0  0  0  0  0  0  0  0
    8.2476    3.5930   23.4735 C   0  0  0  0  0  0  0  0  0  0  0  0
    7.7678    4.1454   22.6534 H   0  0  0  0  0  0  0  0  0  0  0  0
    7.4365    3.1994   24.0969 H   0  0  0  0  0  0  0  0  0  0  0  0
    9.1453    4.5311   24.2530 C   0  0  0  0  0  0  0  0  0  0  0  0
    9.1673    4.5217   25.6544 C   0  0  0  0  0  0  0  0  0  0  0  0
    8.4814    3.8801   26.2076 H   0  0  0  0  0  0  0  0  0  0  0  0
   10.0522    5.3477   26.3601 C   0  0  0  0  0  0  0  0  0  0  0  0
   10.0973    5.2976   27.4446 H   0  0  0  0  0  0  0  0  0  0  0  0
   10.9328    6.1793   25.6617 C   0  0  0  0  0  0  0  0  0  0  0  0
   11.6140    6.8178   26.2177 H   0  0  0  0  0  0  0  0  0  0  0  0
   10.9275    6.1915   24.2616 C   0  0  0  0  0  0  0  0  0  0  0  0
   11.6216    6.8317   23.7205 H   0  0  0  0  0  0  0  0  0  0  0  0
   10.0228    5.3851   23.5593 C   0  0  0  0  0  0  0  0  0  0  0  0
   10.0141    5.3899   22.4667 H   0  0  0  0  0  0  0  0  0  0  0  0
    8.0487   -1.9440   20.6240 C   0  0  0  0  0  0  0  0  0  0  0  0
    8.9408   -1.8309   19.9974 H   0  0  0  0  0  0  0  0  0  0  0  0
    7.2599   -2.4595   20.0541 H   0  0  0  0  0  0  0  0  0  0  0  0
    8.3317   -2.7414   21.8132 N   0  0  0  0  0  0  0  0  0  0  0  0
    9.2815   -2.5781   22.1330 H   0  0  0  0  0  0  0  0  0  0  0  0
    7.3607   -2.3201   22.8358 C   0  0  0  0  0  0  0  0  0  0  0  0
    7.8794   -2.0197   23.7558 H   0  0  0  0  0  0  0  0  0  0  0  0
    6.6850   -3.1463   23.0947 H   0  0  0  0  0  0  0  0  0  0  0  0
    6.5596   -1.1527   22.2162 C   0  0  0  0  0  0  0  0  0  0  0  0
    6.2845   -0.3952   22.9569 H   0  0  0  0  0  0  0  0  0  0  0  0
    5.6402   -1.5639   21.7782 H   0  0  0  0  0  0  0  0  0  0  0  0
    5.4197    0.7204   20.1173 C   0  0  0  0  0  0  0  0  0  0  0  0
    4.9706    0.7423   21.1109 H   0  0  0  0  0  0  0  0  0  0  0  0
    4.7858    1.3509   19.0400 C   0  0  0  0  0  0  0  0  0  0  0  0
    3.8388    1.8631   19.1658 H   0  0  0  0  0  0  0  0  0  0  0  0
  1  2  1  0
  2  3  2  0
  3  4  1  0
  4  5  1  0
  4  6  2  0
  6  7  1  0
  7  8  1  1
  8  9  1  0
  8 10  1  0
  8 11  1  0
 11 12  1  0
 11 13  1  0
 13 14  1  0
 13 15  1  0
 13 16  1  0
 16 17  1  0
 16 18  1  0
 16 19  1  0
 19 20  2  0
 20 21  1  0
 20 22  1  0
 22 23  1  0
 22 24  2  0
 24 25  1  0
 24 26  1  0
 26 27  1  0
 26 28  2  0
 28 29  1  0
  7 30  1  0
 30 31  1  0
 30 32  1  0
 30 33  1  0
 33 34  1  0
 33 35  1  0
 35 36  1  0
 35 37  1  0
 35 38  1  0
 38 39  1  0
 38 40  1  0
  6 41  1  0
 41 42  1  0
 41 43  2  0
 43 44  1  0
 43  2  1  0
 38  7  1  0
 28 19  1  0
M  END
>  <plip>  (1) 
-0.10344827586206896

>  <filename>  (1) 
[H][c]1[n][c]([H])[c]([C@]2([C]([H])([H])[N]([H])[C]([H])([H])[C]([H])([H])[c]3[c]([H])[c]([H])[c]([H])[c]([H])[c]3[H])[C]([H])([H])[N]([H])[C]([H])([H])[C]2([H])[H])[c]([H])[c]1[H]

$$$$
