
     RDKit          3D

 33 35  0  0  0  0  0  0  0  0999 V2000
    8.0398    0.2836   21.9551 C   0  0  0  0  0  0  0  0  0  0  0  0
    7.4123   -0.7398   21.0081 C   0  0  0  0  0  0  0  0  0  0  0  0
    6.6421   -1.6846   21.8039 N   0  0  0  0  0  0  0  0  0  0  0  0
    6.3229   -2.9581   21.4132 C   0  0  0  0  0  0  0  0  0  0  0  0
    6.3340   -3.3657   20.1027 C   0  0  0  0  0  0  0  0  0  0  0  0
    6.1857   -4.7369   19.8205 C   0  0  0  0  0  0  0  0  0  0  0  0
    5.9234   -5.6560   20.7220 N   0  0  0  0  0  0  0  0  0  0  0  0
    5.8031   -5.2425   22.0098 C   0  0  0  0  0  0  0  0  0  0  0  0
    5.4916   -6.2182   22.9769 C   0  0  0  0  0  0  0  0  0  0  0  0
    5.4111   -5.8191   24.2820 C   0  0  0  0  0  0  0  0  0  0  0  0
    5.6271   -4.5445   24.6923 N   0  0  0  0  0  0  0  0  0  0  0  0
    5.9158   -3.6282   23.7921 C   0  0  0  0  0  0  0  0  0  0  0  0
    5.9963   -3.9041   22.4162 C   0  0  0  0  0  0  0  0  0  0  0  0
    6.1115   -2.6213   24.1721 H   0  0  0  0  0  0  0  0  0  0  0  0
    5.1654   -6.5294   25.0691 H   0  0  0  0  0  0  0  0  0  0  0  0
    5.3348   -7.2290   22.6286 H   0  0  0  0  0  0  0  0  0  0  0  0
    6.3209   -5.1057   18.8051 H   0  0  0  0  0  0  0  0  0  0  0  0
    6.5111   -2.6321   19.3299 H   0  0  0  0  0  0  0  0  0  0  0  0
    5.9468   -1.2780   22.4139 H   0  0  0  0  0  0  0  0  0  0  0  0
    6.6232   -0.0336   19.9106 C   0  0  0  0  0  0  0  0  0  0  0  0
    5.4181    0.6438   20.1503 C   0  0  0  0  0  0  0  0  0  0  0  0
    4.7978    1.3107   19.0917 C   0  0  0  0  0  0  0  0  0  0  0  0
    5.4004    1.2953   17.8301 C   0  0  0  0  0  0  0  0  0  0  0  0
    6.5642    0.6767   17.5858 N   0  0  0  0  0  0  0  0  0  0  0  0
    7.1501    0.0429   18.6108 C   0  0  0  0  0  0  0  0  0  0  0  0
    8.1077   -0.4276   18.3761 H   0  0  0  0  0  0  0  0  0  0  0  0
    4.9364    1.7957   16.9814 H   0  0  0  0  0  0  0  0  0  0  0  0
    3.8709    1.8503   19.2375 H   0  0  0  0  0  0  0  0  0  0  0  0
    4.9793    0.6647   21.1503 H   0  0  0  0  0  0  0  0  0  0  0  0
    8.2180   -1.3091   20.5154 H   0  0  0  0  0  0  0  0  0  0  0  0
    7.2665    0.9140   22.4146 H   0  0  0  0  0  0  0  0  0  0  0  0
    8.7171    0.9423   21.4023 H   0  0  0  0  0  0  0  0  0  0  0  0
    8.5983   -0.2154   22.7534 H   0  0  0  0  0  0  0  0  0  0  0  0
  1  2  1  0
  2  3  1  0
  3  4  1  0
  4  5  2  0
  5  6  1  0
  6  7  2  0
  7  8  1  0
  8  9  2  0
  9 10  1  0
 10 11  2  0
 11 12  1  0
 12 13  2  0
 12 14  1  0
 10 15  1  0
  9 16  1  0
  6 17  1  0
  5 18  1  0
  3 19  1  0
  2 20  1  0
 20 21  2  0
 21 22  1  0
 22 23  2  0
 23 24  1  0
 24 25  2  0
 25 26  1  0
 23 27  1  0
 22 28  1  0
 21 29  1  0
  2 30  1  0
  1 31  1  0
  1 32  1  0
  1 33  1  0
 13  4  1  0
 25 20  1  0
 13  8  1  0
M  END
>  <plip>  (1) 
-0.14285714285714285

>  <filename>  (1) 
[H][c]1[n][c]([H])[c]([C]([H])([N]([H])[c]2[c]([H])[c]([H])[n][c]3[c]([H])[c]([H])[n][c]([H])[c]23)[C]([H])([H])[H])[c]([H])[c]1[H]

$$$$
