
     RDKit          3D

 28 31  0  0  0  0  0  0  0  0999 V2000
    4.9512    1.8069   16.9747 H   0  0  0  0  0  0  0  0  0  0  0  0
    5.4003    1.2936   17.8234 C   0  0  0  0  0  0  0  0  0  0  0  0
    6.5580    0.6616   17.5773 N   0  0  0  0  0  0  0  0  0  0  0  0
    7.1494    0.0280   18.5919 C   0  0  0  0  0  0  0  0  0  0  0  0
    8.0989   -0.4513   18.3605 H   0  0  0  0  0  0  0  0  0  0  0  0
    6.6323    0.0024   19.8961 C   0  0  0  0  0  0  0  0  0  0  0  0
    7.3761   -0.6675   20.9584 C   0  0  0  0  0  0  0  0  0  0  0  0
    8.0401   -1.8513   20.7516 N   0  0  0  0  0  0  0  0  0  0  0  0
    8.4476   -2.1941   21.9387 C   0  0  0  0  0  0  0  0  0  0  0  0
    9.3247   -3.5289   22.6144 S   0  0  0  0  0  0  0  0  0  0  0  0
    9.4151   -2.7300   24.1670 C   0  0  0  0  0  0  0  0  0  0  0  0
    9.9932   -3.2108   24.9461 H   0  0  0  0  0  0  0  0  0  0  0  0
    8.7342   -1.5704   24.1795 C   0  0  0  0  0  0  0  0  0  0  0  0
    8.5941   -0.8699   24.9979 H   0  0  0  0  0  0  0  0  0  0  0  0
    8.1560   -1.2938   22.9340 N   0  0  0  0  0  0  0  0  0  0  0  0
    7.4750   -0.2827   22.2933 C   0  0  0  0  0  0  0  0  0  0  0  0
    7.1350    0.8913   22.9363 N   0  0  0  0  0  0  0  0  0  0  0  0
    6.6327    1.0618   24.2022 C   0  0  0  0  0  0  0  0  0  0  0  0
    6.4146    0.2220   24.8464 H   0  0  0  0  0  0  0  0  0  0  0  0
    6.4061    2.3164   24.4719 N   0  0  0  0  0  0  0  0  0  0  0  0
    6.7631    3.0105   23.3394 C   0  0  0  0  0  0  0  0  0  0  0  0
    6.6760    4.0900   23.3169 H   0  0  0  0  0  0  0  0  0  0  0  0
    7.2066    2.1536   22.3765 C   0  0  0  0  0  0  0  0  0  0  0  0
    7.5409    2.2693   21.3608 H   0  0  0  0  0  0  0  0  0  0  0  0
    5.4109    0.6583   20.1403 C   0  0  0  0  0  0  0  0  0  0  0  0
    4.9925    0.6828   21.1498 H   0  0  0  0  0  0  0  0  0  0  0  0
    4.7883    1.3108   19.0813 C   0  0  0  0  0  0  0  0  0  0  0  0
    3.8596    1.8493   19.2198 H   0  0  0  0  0  0  0  0  0  0  0  0
  1  2  1  0
  2  3  2  0
  3  4  1  0
  4  5  1  0
  4  6  2  0
  6  7  1  0
  7  8  1  0
  8  9  2  0
  9 10  1  0
 10 11  1  0
 11 12  1  0
 11 13  2  0
 13 14  1  0
 13 15  1  0
 15 16  1  0
 16 17  1  0
 17 18  1  0
 18 19  1  0
 18 20  2  0
 20 21  1  0
 21 22  1  0
 21 23  2  0
 23 24  1  0
  6 25  1  0
 25 26  1  0
 25 27  2  0
 27 28  1  0
 27  2  1  0
 16  7  2  0
 23 17  1  0
 15  9  1  0
M  END
>  <plip>  (1) 
-0.0

>  <filename>  (1) 
[H][c]1[n][c]([H])[c](-[c]2[n][c]3[s][c]([H])[c]([H])[n]3[c]2-[n]2[c]([H])[n][c]([H])[c]2[H])[c]([H])[c]1[H]

$$$$
