
     RDKit          3D

 38 39  0  0  0  0  0  0  0  0999 V2000
    4.9108    1.7690   17.0088 H   0  0  0  0  0  0  0  0  0  0  0  0
    5.4072    1.2863   17.8535 C   0  0  0  0  0  0  0  0  0  0  0  0
    6.5778    0.6734   17.6037 N   0  0  0  0  0  0  0  0  0  0  0  0
    7.1902    0.0478   18.6135 C   0  0  0  0  0  0  0  0  0  0  0  0
    8.1367   -0.4455   18.3808 H   0  0  0  0  0  0  0  0  0  0  0  0
    6.6351    0.0161   19.8830 C   0  0  0  0  0  0  0  0  0  0  0  0
    7.4204   -0.9246   21.1053 S   0  0  0  0  0  0  0  0  0  0  0  0
    8.4023   -1.8192   20.4953 O   0  0  0  0  0  0  0  0  0  0  0  0
    6.4095   -1.4363   22.0111 O   0  0  0  0  0  0  0  0  0  0  0  0
    8.5187    0.3754   22.1655 C   0  0  0  0  0  0  0  0  0  0  0  0
    9.7486   -0.3058   22.7899 N   0  0  0  0  0  0  0  0  0  0  0  0
   10.2344   -0.8322   22.0405 H   0  0  0  0  0  0  0  0  0  0  0  0
    9.5297   -1.5151   24.0065 S   0  0  0  0  0  0  0  0  0  0  0  0
    8.2793   -2.2221   23.8180 O   0  0  0  0  0  0  0  0  0  0  0  0
   10.7496   -2.2499   24.1178 O   0  0  0  0  0  0  0  0  0  0  0  0
    9.3889   -0.5143   25.4146 C   0  0  0  0  0  0  0  0  0  0  0  0
   10.1969    0.9157   25.7773 C   0  0  0  0  0  0  0  0  0  0  0  0
   11.1449    0.8077   24.8252 H   0  0  0  0  0  0  0  0  0  0  0  0
   10.1967    0.9160   25.7771 C   0  0  0  0  0  0  0  0  0  0  0  0
   10.7791    1.7749   26.5138 H   0  0  0  0  0  0  0  0  0  0  0  0
    8.1553    0.2852   27.7737 C   0  0  0  0  0  0  0  0  0  0  0  0
    8.6512    1.4428   28.7277 H   0  0  0  0  0  0  0  0  0  0  0  0
    8.1397   -0.1367   27.7176 C   0  0  0  0  0  0  0  0  0  0  0  0
    7.3619   -0.2182   28.5448 H   0  0  0  0  0  0  0  0  0  0  0  0
    8.3036   -0.6413   26.4583 C   0  0  0  0  0  0  0  0  0  0  0  0
    7.6457   -1.5523   26.3849 H   0  0  0  0  0  0  0  0  0  0  0  0
    7.6448    1.0018   23.2501 C   0  0  0  0  0  0  0  0  0  0  0  0
    7.1867    0.2405   23.8831 H   0  0  0  0  0  0  0  0  0  0  0  0
    6.8410    1.5919   22.8053 H   0  0  0  0  0  0  0  0  0  0  0  0
    8.2757    1.6607   23.8845 H   0  0  0  0  0  0  0  0  0  0  0  0
    9.0226    1.4750   21.2148 C   0  0  0  0  0  0  0  0  0  0  0  0
    9.5748    1.0581   20.3745 H   0  0  0  0  0  0  0  0  0  0  0  0
    9.6779    2.1510   21.7704 H   0  0  0  0  0  0  0  0  0  0  0  0
    8.1841    2.0666   20.8265 H   0  0  0  0  0  0  0  0  0  0  0  0
    5.4362    0.6596   20.1672 C   0  0  0  0  0  0  0  0  0  0  0  0
    4.9971    0.6269   21.1620 H   0  0  0  0  0  0  0  0  0  0  0  0
    4.8070    1.3114   19.1183 C   0  0  0  0  0  0  0  0  0  0  0  0
    3.8753    1.8431   19.2680 H   0  0  0  0  0  0  0  0  0  0  0  0
  1  2  1  0
  2  3  2  0
  3  4  1  0
  4  5  1  0
  4  6  2  0
  6  7  1  0
  7  8  2  0
  7  9  2  0
  7 10  1  0
 10 11  1  0
 11 12  1  0
 11 13  1  0
 13 14  2  0
 13 15  2  0
 13 16  1  0
 16 17  2  0
 17 18  1  0
 17 19  1  0
 19 20  1  0
 19 21  2  0
 21 22  1  0
 21 23  1  0
 23 24  1  0
 23 25  2  0
 25 26  1  0
 10 27  1  0
 27 28  1  0
 27 29  1  0
 27 30  1  0
 10 31  1  0
 31 32  1  0
 31 33  1  0
 31 34  1  0
  6 35  1  0
 35 36  1  0
 35 37  2  0
 37 38  1  0
 37  2  1  0
 25 16  1  0
M  END
>  <plip>  (1) 
-0.0

>  <filename>  (1) 
[H][c]1[n][c]([H])[c]([S](=[O])(=[O])[C]([N]([H])[S](=[O])(=[O])[c]2[c]([H])[c]([H])[c]([H])[c]([H])[c]2[H])([C]([H])([H])[H])[C]([H])([H])[H])[c]([H])[c]1[H]

$$$$
