
     RDKit          3D

 37 39  0  0  0  0  0  0  0  0999 V2000
    9.1478   -1.4754   24.7039 H   0  0  0  0  0  0  0  0  0  0  0  0
    8.7082   -0.6611   24.2753 N   0  0  0  0  0  0  0  0  0  0  0  0
    8.3429   -0.9839   23.1061 C   0  0  0  0  0  0  0  0  0  0  0  0
    8.5753   -2.5436   22.2792 S   0  0  0  0  0  0  0  0  0  0  0  0
    7.7663   -1.9539   20.8671 C   0  0  0  0  0  0  0  0  0  0  0  0
    7.4079   -2.5739   20.0726 H   0  0  0  0  0  0  0  0  0  0  0  0
    7.4076   -0.6686   20.9731 C   0  0  0  0  0  0  0  0  0  0  0  0
    6.6613    0.0459   19.9245 C   0  0  0  0  0  0  0  0  0  0  0  0
    7.1605    0.0647   18.6122 C   0  0  0  0  0  0  0  0  0  0  0  0
    8.1084   -0.4126   18.3645 H   0  0  0  0  0  0  0  0  0  0  0  0
    6.5540    0.6690   17.5852 N   0  0  0  0  0  0  0  0  0  0  0  0
    5.3932    1.2940   17.8299 C   0  0  0  0  0  0  0  0  0  0  0  0
    4.9306    1.7969   16.9785 H   0  0  0  0  0  0  0  0  0  0  0  0
    4.7901    1.3126   19.0924 C   0  0  0  0  0  0  0  0  0  0  0  0
    3.8579    1.8474   19.2281 H   0  0  0  0  0  0  0  0  0  0  0  0
    5.4259    0.6737   20.1550 C   0  0  0  0  0  0  0  0  0  0  0  0
    4.9978    0.6546   21.1579 H   0  0  0  0  0  0  0  0  0  0  0  0
    7.7025   -0.1170   22.2262 N   0  0  0  0  0  0  0  0  0  0  0  0
    7.3626    1.2185   22.6237 C   0  0  0  0  0  0  0  0  0  0  0  0
    7.9305    2.2743   21.9087 C   0  0  0  0  0  0  0  0  0  0  0  0
    8.5829    2.0146   21.0782 H   0  0  0  0  0  0  0  0  0  0  0  0
    7.6580    3.5945   22.2391 C   0  0  0  0  0  0  0  0  0  0  0  0
    8.1050    4.4233   21.7030 H   0  0  0  0  0  0  0  0  0  0  0  0
    6.7802    3.8782   23.2941 C   0  0  0  0  0  0  0  0  0  0  0  0
    6.5973    5.1994   23.5398 O   0  0  0  0  0  0  0  0  0  0  0  0
    5.7374    5.6241   24.5747 C   0  0  0  0  0  0  0  0  0  0  0  0
    5.7801    6.7130   24.5411 H   0  0  0  0  0  0  0  0  0  0  0  0
    6.0774    5.2718   25.5589 H   0  0  0  0  0  0  0  0  0  0  0  0
    4.7029    5.2906   24.4111 H   0  0  0  0  0  0  0  0  0  0  0  0
    6.1646    2.8429   24.0075 C   0  0  0  0  0  0  0  0  0  0  0  0
    5.4870    3.0670   24.8213 H   0  0  0  0  0  0  0  0  0  0  0  0
    6.4456    1.5084   23.6720 C   0  0  0  0  0  0  0  0  0  0  0  0
    5.8565    0.4471   24.2664 O   0  0  0  0  0  0  0  0  0  0  0  0
    4.9635    0.5947   25.3468 C   0  0  0  0  0  0  0  0  0  0  0  0
    4.7058   -0.4298   25.6147 H   0  0  0  0  0  0  0  0  0  0  0  0
    5.4321    1.0955   26.2054 H   0  0  0  0  0  0  0  0  0  0  0  0
    4.0572    1.1402   25.0517 H   0  0  0  0  0  0  0  0  0  0  0  0
  1  2  1  0
  2  3  2  3
  3  4  1  0
  4  5  1  0
  5  6  1  0
  5  7  2  0
  7  8  1  0
  8  9  2  0
  9 10  1  0
  9 11  1  0
 11 12  2  0
 12 13  1  0
 12 14  1  0
 14 15  1  0
 14 16  2  0
 16 17  1  0
  7 18  1  0
 18 19  1  0
 19 20  2  0
 20 21  1  0
 20 22  1  0
 22 23  1  0
 22 24  2  0
 24 25  1  0
 25 26  1  0
 26 27  1  0
 26 28  1  0
 26 29  1  0
 24 30  1  0
 30 31  1  0
 30 32  2  0
 32 33  1  0
 33 34  1  0
 34 35  1  0
 34 36  1  0
 34 37  1  0
 18  3  1  0
 32 19  1  0
 16  8  1  0
M  END
>  <plip>  (1) 
-0.07142857142857142

>  <filename>  (1) 
[H][N]=[c]1[s][c]([H])[c](-[c]2[c]([H])[n][c]([H])[c]([H])[c]2[H])[n]1-[c]1[c]([H])[c]([H])[c]([O][C]([H])([H])[H])[c]([H])[c]1[O][C]([H])([H])[H]

$$$$
