
     RDKit          3D

 28 30  0  0  0  0  0  0  0  0999 V2000
    4.9150    1.7840   16.9903 H   0  0  0  0  0  0  0  0  0  0  0  0
    5.3988    1.2970   17.8296 C   0  0  0  0  0  0  0  0  0  0  0  0
    6.5611    0.6803   17.5604 N   0  0  0  0  0  0  0  0  0  0  0  0
    7.1697    0.0762   18.5873 C   0  0  0  0  0  0  0  0  0  0  0  0
    8.1080   -0.4247   18.3599 H   0  0  0  0  0  0  0  0  0  0  0  0
    6.6628    0.0219   19.8961 C   0  0  0  0  0  0  0  0  0  0  0  0
    7.3890   -0.6974   20.9637 C   0  0  0  0  0  0  0  0  0  0  0  0
    8.7460   -0.7772   21.0706 C   0  0  0  0  0  0  0  0  0  0  0  0
    9.4597   -0.3091   20.4149 H   0  0  0  0  0  0  0  0  0  0  0  0
    9.2376   -1.6750   22.4484 S   0  0  0  0  0  0  0  0  0  0  0  0
    7.5877   -1.9885   22.9132 C   0  0  0  0  0  0  0  0  0  0  0  0
    7.2372   -2.7878   24.1097 C   0  0  0  0  0  0  0  0  0  0  0  0
    8.1938   -3.5689   24.7760 C   0  0  0  0  0  0  0  0  0  0  0  0
    9.2137   -3.5904   24.4126 H   0  0  0  0  0  0  0  0  0  0  0  0
    7.8501   -4.3201   25.8994 C   0  0  0  0  0  0  0  0  0  0  0  0
    8.5803   -4.9244   26.4215 H   0  0  0  0  0  0  0  0  0  0  0  0
    6.5440   -4.3040   26.3760 C   0  0  0  0  0  0  0  0  0  0  0  0
    6.2071   -5.0212   27.4513 F   0  0  0  0  0  0  0  0  0  0  0  0
    5.5775   -3.5343   25.7293 C   0  0  0  0  0  0  0  0  0  0  0  0
    4.3163   -3.5139   26.1843 F   0  0  0  0  0  0  0  0  0  0  0  0
    5.9239   -2.7915   24.6146 C   0  0  0  0  0  0  0  0  0  0  0  0
    5.1353   -2.2121   24.1797 H   0  0  0  0  0  0  0  0  0  0  0  0
    6.7418   -1.4054   22.0170 C   0  0  0  0  0  0  0  0  0  0  0  0
    5.6637   -1.5010   22.0217 H   0  0  0  0  0  0  0  0  0  0  0  0
    5.4345    0.6550   20.1479 C   0  0  0  0  0  0  0  0  0  0  0  0
    5.0172    0.6367   21.1609 H   0  0  0  0  0  0  0  0  0  0  0  0
    4.8017    1.3156   19.0985 C   0  0  0  0  0  0  0  0  0  0  0  0
    3.8681    1.8466   19.2559 H   0  0  0  0  0  0  0  0  0  0  0  0
  1  2  1  0
  2  3  2  0
  3  4  1  0
  4  5  1  0
  4  6  2  0
  6  7  1  0
  7  8  2  0
  8  9  1  0
  8 10  1  0
 10 11  1  0
 11 12  1  0
 12 13  2  0
 13 14  1  0
 13 15  1  0
 15 16  1  0
 15 17  2  0
 17 18  1  0
 17 19  1  0
 19 20  1  0
 19 21  2  0
 21 22  1  0
 11 23  2  0
 23 24  1  0
  6 25  1  0
 25 26  1  0
 25 27  2  0
 27 28  1  0
 27  2  1  0
 23  7  1  0
 21 12  1  0
M  END
>  <plip>  (1) 
-0.03571428571428571

>  <filename>  (1) 
[H][c]1[n][c]([H])[c](-[c]2[c]([H])[s][c](-[c]3[c]([H])[c]([H])[c]([F])[c]([F])[c]3[H])[c]2[H])[c]([H])[c]1[H]

$$$$
