
     RDKit          3D

 44 46  0  0  0  0  0  0  0  0999 V2000
    7.4550   -6.0222   27.9280 C   0  0  0  0  0  0  0  0  0  0  0  0
    7.5459   -5.7101   26.4343 C   0  0  0  0  0  0  0  0  0  0  0  0
    7.9383   -4.2467   26.1640 C   0  0  0  0  0  0  0  0  0  0  0  0
    8.3168   -4.0404   24.6862 C   0  0  0  0  0  0  0  0  0  0  0  0
    8.8131   -2.6023   24.4282 C   0  0  0  0  0  0  0  0  0  0  0  0
    9.5353   -2.0331   25.2338 O   0  0  0  0  0  0  0  0  0  0  0  0
    8.4456   -1.9964   23.2490 N   0  0  0  0  0  0  0  0  0  0  0  0
    8.6240   -0.5368   23.0979 C   0  0  0  0  0  0  0  0  0  0  0  0
    7.4310    0.0490   22.3304 C   0  0  0  0  0  0  0  0  0  0  0  0
    7.3605   -0.5255   20.9890 N   0  0  0  0  0  0  0  0  0  0  0  0
    6.6843    0.1144   19.9433 C   0  0  0  0  0  0  0  0  0  0  0  0
    5.4739    0.8003   20.1612 C   0  0  0  0  0  0  0  0  0  0  0  0
    4.8248    1.3911   19.0699 C   0  0  0  0  0  0  0  0  0  0  0  0
    5.4100    1.3186   17.8009 C   0  0  0  0  0  0  0  0  0  0  0  0
    6.5601    0.6698   17.5610 N   0  0  0  0  0  0  0  0  0  0  0  0
    7.1608    0.0772   18.6042 C   0  0  0  0  0  0  0  0  0  0  0  0
    8.0765   -0.4717   18.3872 H   0  0  0  0  0  0  0  0  0  0  0  0
    4.9376    1.7855   16.9401 H   0  0  0  0  0  0  0  0  0  0  0  0
    3.8811    1.9088   19.1958 H   0  0  0  0  0  0  0  0  0  0  0  0
    5.0601    0.8466   21.1683 H   0  0  0  0  0  0  0  0  0  0  0  0
    7.8699   -1.8814   20.7974 C   0  0  0  0  0  0  0  0  0  0  0  0
    7.9021   -2.7267   22.0911 C   0  0  0  0  0  0  0  0  0  0  0  0
    6.8814   -3.0765   22.2945 H   0  0  0  0  0  0  0  0  0  0  0  0
    8.5158   -3.6133   21.8902 H   0  0  0  0  0  0  0  0  0  0  0  0
    8.8786   -1.8594   20.3574 H   0  0  0  0  0  0  0  0  0  0  0  0
    7.2006   -2.3885   20.0908 H   0  0  0  0  0  0  0  0  0  0  0  0
    7.5287    1.1402   22.2497 H   0  0  0  0  0  0  0  0  0  0  0  0
    6.5154   -0.1676   22.9087 H   0  0  0  0  0  0  0  0  0  0  0  0
    8.6975   -0.0775   24.0873 H   0  0  0  0  0  0  0  0  0  0  0  0
    9.5613   -0.3258   22.5633 H   0  0  0  0  0  0  0  0  0  0  0  0
    9.3854   -5.0759   24.2165 C   0  0  0  0  0  0  0  0  0  0  0  0
    9.5935   -6.2140   25.2308 C   0  0  0  0  0  0  0  0  0  0  0  0
    8.3855   -6.6696   25.7981 O   0  0  0  0  0  0  0  0  0  0  0  0
   10.0429   -7.0892   24.7556 H   0  0  0  0  0  0  0  0  0  0  0  0
   10.2911   -5.8776   26.0132 H   0  0  0  0  0  0  0  0  0  0  0  0
   10.3569   -4.5897   24.0659 H   0  0  0  0  0  0  0  0  0  0  0  0
    9.0833   -5.4924   23.2468 H   0  0  0  0  0  0  0  0  0  0  0  0
    7.3967   -4.2165   24.1155 H   0  0  0  0  0  0  0  0  0  0  0  0
    8.7755   -3.9384   26.8058 H   0  0  0  0  0  0  0  0  0  0  0  0
    7.0708   -3.6278   26.4277 H   0  0  0  0  0  0  0  0  0  0  0  0
    6.5540   -5.8786   25.9873 H   0  0  0  0  0  0  0  0  0  0  0  0
    6.8165   -6.8933   28.1091 H   0  0  0  0  0  0  0  0  0  0  0  0
    7.0433   -5.1604   28.4663 H   0  0  0  0  0  0  0  0  0  0  0  0
    8.4464   -6.2376   28.3429 H   0  0  0  0  0  0  0  0  0  0  0  0
  1  2  1  0
  2  3  1  0
  3  4  1  0
  4  5  1  0
  5  6  2  0
  5  7  1  0
  7  8  1  0
  8  9  1  0
  9 10  1  0
 10 11  1  0
 11 12  2  0
 12 13  1  0
 13 14  2  0
 14 15  1  0
 15 16  2  0
 16 17  1  0
 14 18  1  0
 13 19  1  0
 12 20  1  0
 10 21  1  0
 21 22  1  0
 22 23  1  0
 22 24  1  0
 21 25  1  0
 21 26  1  0
  9 27  1  0
  9 28  1  0
  8 29  1  0
  8 30  1  0
  4 31  1  0
 31 32  1  0
 32 33  1  0
 32 34  1  0
 32 35  1  0
 31 36  1  0
 31 37  1  0
  4 38  1  0
  3 39  1  0
  3 40  1  0
  2 41  1  0
  1 42  1  0
  1 43  1  0
  1 44  1  0
 33  2  1  0
 22  7  1  0
 16 11  1  0
M  END
>  <plip>  (1) 
-0.03571428571428571

>  <filename>  (1) 
[H][c]1[n][c]([H])[c]([N]2[C]([H])([H])[C]([H])([H])[N]([C](=[O])[C]3([H])[C]([H])([H])[C]([H])([H])[O][C]([H])([C]([H])([H])[H])[C]3([H])[H])[C]([H])([H])[C]2([H])[H])[c]([H])[c]1[H]

$$$$
