
     RDKit          3D

 29 30  0  0  0  0  0  0  0  0999 V2000
    9.0347   -0.5862   20.8385 O   0  0  0  0  0  0  0  0  0  0  0  0
    7.6489   -0.8164   21.1797 S   0  0  0  0  0  0  0  0  0  0  0  0
    7.0896   -0.4642   22.4675 O   0  0  0  0  0  0  0  0  0  0  0  0
    7.2474   -2.4172   20.8810 N   0  0  0  0  0  0  0  0  0  0  0  0
    7.5897   -3.3947   21.8633 C   0  0  0  0  0  0  0  0  0  0  0  0
    8.4882   -3.1526   22.9025 C   0  0  0  0  0  0  0  0  0  0  0  0
    8.8886   -4.2063   23.7447 C   0  0  0  0  0  0  0  0  0  0  0  0
    9.8641   -3.9229   24.8739 C   0  0  0  0  0  0  0  0  0  0  0  0
   10.6130   -4.9991   25.1766 F   0  0  0  0  0  0  0  0  0  0  0  0
   10.7070   -2.9251   24.5543 F   0  0  0  0  0  0  0  0  0  0  0  0
    9.2325   -3.5510   26.0044 F   0  0  0  0  0  0  0  0  0  0  0  0
    8.3761   -5.4978   23.5448 C   0  0  0  0  0  0  0  0  0  0  0  0
    7.4595   -5.7057   22.5100 C   0  0  0  0  0  0  0  0  0  0  0  0
    6.8507   -7.3038   22.2086 Cl  0  0  0  0  0  0  0  0  0  0  0  0
    7.0487   -4.6638   21.6778 C   0  0  0  0  0  0  0  0  0  0  0  0
    6.3398   -4.8248   20.8767 H   0  0  0  0  0  0  0  0  0  0  0  0
    8.6973   -6.3423   24.1526 H   0  0  0  0  0  0  0  0  0  0  0  0
    8.8476   -2.1362   23.0324 H   0  0  0  0  0  0  0  0  0  0  0  0
    6.2555   -2.2736   20.7727 H   0  0  0  0  0  0  0  0  0  0  0  0
    6.6334   -0.1374   19.9652 C   0  0  0  0  0  0  0  0  0  0  0  0
    5.4285    0.5230   20.2235 C   0  0  0  0  0  0  0  0  0  0  0  0
    4.8653    1.1949   19.1448 C   0  0  0  0  0  0  0  0  0  0  0  0
    5.5074    1.1479   17.9007 C   0  0  0  0  0  0  0  0  0  0  0  0
    6.6278    0.4470   17.6711 N   0  0  0  0  0  0  0  0  0  0  0  0
    7.1757   -0.2056   18.6904 C   0  0  0  0  0  0  0  0  0  0  0  0
    8.0713   -0.7800   18.4648 H   0  0  0  0  0  0  0  0  0  0  0  0
    5.0853    1.6623   17.0425 H   0  0  0  0  0  0  0  0  0  0  0  0
    3.9462    1.7590   19.2478 H   0  0  0  0  0  0  0  0  0  0  0  0
    4.9478    0.5229   21.2075 H   0  0  0  0  0  0  0  0  0  0  0  0
  1  2  2  0
  2  3  2  0
  2  4  1  0
  4  5  1  0
  5  6  2  0
  6  7  1  0
  7  8  1  0
  8  9  1  0
  8 10  1  0
  8 11  1  0
  7 12  2  0
 12 13  1  0
 13 14  1  0
 13 15  2  0
 15 16  1  0
 12 17  1  0
  6 18  1  0
  4 19  1  0
  2 20  1  0
 20 21  2  0
 21 22  1  0
 22 23  2  0
 23 24  1  0
 24 25  2  0
 25 26  1  0
 23 27  1  0
 22 28  1  0
 21 29  1  0
 15  5  1  0
 25 20  1  0
M  END
>  <plip>  (1) 
-0.13333333333333333

>  <filename>  (1) 
[H][c]1[n][c]([H])[c]([S](=[O])(=[O])[N]([H])[c]2[c]([H])[c]([Cl])[c]([H])[c]([C]([F])([F])[F])[c]2[H])[c]([H])[c]1[H]

$$$$
