
     RDKit          3D

 33 36  0  0  0  0  0  0  0  0999 V2000
    4.9195    1.7947   16.9905 H   0  0  0  0  0  0  0  0  0  0  0  0
    5.3976    1.2974   17.8306 C   0  0  0  0  0  0  0  0  0  0  0  0
    6.5604    0.6815   17.5620 N   0  0  0  0  0  0  0  0  0  0  0  0
    7.1569    0.0511   18.5746 C   0  0  0  0  0  0  0  0  0  0  0  0
    8.1163   -0.4184   18.3575 H   0  0  0  0  0  0  0  0  0  0  0  0
    6.6518   -0.0066   19.8896 C   0  0  0  0  0  0  0  0  0  0  0  0
    7.3730   -0.7122   20.9348 C   0  0  0  0  0  0  0  0  0  0  0  0
    7.5964   -0.2594   22.2109 C   0  0  0  0  0  0  0  0  0  0  0  0
    7.2837    1.0574   22.7114 C   0  0  0  0  0  0  0  0  0  0  0  0
    7.6289    2.2146   22.0942 C   0  0  0  0  0  0  0  0  0  0  0  0
    8.1508    2.3084   21.1459 H   0  0  0  0  0  0  0  0  0  0  0  0
    7.1578    3.6338   22.9475 S   0  0  0  0  0  0  0  0  0  0  0  0
    6.4221    2.6804   24.2045 C   0  0  0  0  0  0  0  0  0  0  0  0
    5.7534    3.1374   25.3574 C   0  0  0  0  0  0  0  0  0  0  0  0
    5.6621    4.2012   25.5591 H   0  0  0  0  0  0  0  0  0  0  0  0
    5.2109    2.1984   26.2275 C   0  0  0  0  0  0  0  0  0  0  0  0
    4.6952    2.5320   27.1237 H   0  0  0  0  0  0  0  0  0  0  0  0
    5.3149    0.8157   25.9655 C   0  0  0  0  0  0  0  0  0  0  0  0
    4.8820    0.0948   26.6554 H   0  0  0  0  0  0  0  0  0  0  0  0
    5.9739    0.3681   24.8319 C   0  0  0  0  0  0  0  0  0  0  0  0
    6.0578   -0.6943   24.6121 H   0  0  0  0  0  0  0  0  0  0  0  0
    6.5569    1.3020   23.9488 C   0  0  0  0  0  0  0  0  0  0  0  0
    8.3024   -1.3301   22.9820 C   0  0  0  0  0  0  0  0  0  0  0  0
    8.7196   -1.3834   24.1240 O   0  0  0  0  0  0  0  0  0  0  0  0
    8.4329   -2.3599   22.1010 N   0  0  0  0  0  0  0  0  0  0  0  0
    8.9615   -3.1554   22.4085 H   0  0  0  0  0  0  0  0  0  0  0  0
    7.9492   -2.0833   20.7770 C   0  0  0  0  0  0  0  0  0  0  0  0
    8.7744   -2.0445   20.0515 H   0  0  0  0  0  0  0  0  0  0  0  0
    7.1940   -2.8191   20.4488 H   0  0  0  0  0  0  0  0  0  0  0  0
    5.4329    0.6445   20.1476 C   0  0  0  0  0  0  0  0  0  0  0  0
    5.0178    0.6355   21.1594 H   0  0  0  0  0  0  0  0  0  0  0  0
    4.8036    1.3060   19.0968 C   0  0  0  0  0  0  0  0  0  0  0  0
    3.8765    1.8421   19.2486 H   0  0  0  0  0  0  0  0  0  0  0  0
  1  2  1  0
  2  3  2  0
  3  4  1  0
  4  5  1  0
  4  6  2  0
  6  7  1  0
  7  8  2  0
  8  9  1  0
  9 10  2  0
 10 11  1  0
 10 12  1  0
 12 13  1  0
 13 14  2  0
 14 15  1  0
 14 16  1  0
 16 17  1  0
 16 18  2  0
 18 19  1  0
 18 20  1  0
 20 21  1  0
 20 22  2  0
  8 23  1  0
 23 24  2  0
 23 25  1  0
 25 26  1  0
 25 27  1  0
 27 28  1  0
 27 29  1  0
  6 30  1  0
 30 31  1  0
 30 32  2  0
 32 33  1  0
 32  2  1  0
 27  7  1  0
 22  9  1  0
 22 13  1  0
M  END
>  <plip>  (1) 
-0.0

>  <filename>  (1) 
[H][c]1[n][c]([H])[c]([C]2=[C]([c]3[c]([H])[s][c]4[c]([H])[c]([H])[c]([H])[c]([H])[c]34)[C](=[O])[N]([H])[C]2([H])[H])[c]([H])[c]1[H]

$$$$
