
     RDKit          3D

 29 31  0  0  0  0  0  0  0  0999 V2000
    4.9180    1.7783   16.9972 H   0  0  0  0  0  0  0  0  0  0  0  0
    5.4026    1.2929   17.8385 C   0  0  0  0  0  0  0  0  0  0  0  0
    6.5663    0.6789   17.5677 N   0  0  0  0  0  0  0  0  0  0  0  0
    7.1644    0.0698   18.5909 C   0  0  0  0  0  0  0  0  0  0  0  0
    8.1092   -0.4174   18.3591 H   0  0  0  0  0  0  0  0  0  0  0  0
    6.6480    0.0168   19.8940 C   0  0  0  0  0  0  0  0  0  0  0  0
    7.3815   -0.6918   20.9321 C   0  0  0  0  0  0  0  0  0  0  0  0
    6.8699   -0.8052   22.2134 N   0  0  0  0  0  0  0  0  0  0  0  0
    7.7652   -1.4878   22.8769 C   0  0  0  0  0  0  0  0  0  0  0  0
    7.7432   -1.9600   24.3343 C   0  0  0  0  0  0  0  0  0  0  0  0
    8.5524   -2.7738   24.7364 O   0  0  0  0  0  0  0  0  0  0  0  0
    6.6566   -1.3979   25.2179 C   0  0  0  0  0  0  0  0  0  0  0  0
    6.1181   -2.2341   26.2128 C   0  0  0  0  0  0  0  0  0  0  0  0
    6.4917   -3.2526   26.3087 H   0  0  0  0  0  0  0  0  0  0  0  0
    5.1345   -1.7562   27.0775 C   0  0  0  0  0  0  0  0  0  0  0  0
    4.7379   -2.4103   27.8484 H   0  0  0  0  0  0  0  0  0  0  0  0
    4.6755   -0.4393   26.9591 C   0  0  0  0  0  0  0  0  0  0  0  0
    3.9097   -0.0690   27.6355 H   0  0  0  0  0  0  0  0  0  0  0  0
    5.2095    0.4010   25.9753 C   0  0  0  0  0  0  0  0  0  0  0  0
    4.8562    1.4242   25.8802 H   0  0  0  0  0  0  0  0  0  0  0  0
    6.1967   -0.0678   25.1039 C   0  0  0  0  0  0  0  0  0  0  0  0
    6.6005    0.5993   24.3404 H   0  0  0  0  0  0  0  0  0  0  0  0
    8.8404   -1.8214   22.1173 O   0  0  0  0  0  0  0  0  0  0  0  0
    8.5882   -1.3072   20.8909 C   0  0  0  0  0  0  0  0  0  0  0  0
    9.3214   -1.4390   20.1106 H   0  0  0  0  0  0  0  0  0  0  0  0
    5.4298    0.6569   20.1639 C   0  0  0  0  0  0  0  0  0  0  0  0
    5.0117    0.6259   21.1768 H   0  0  0  0  0  0  0  0  0  0  0  0
    4.8019    1.3119   19.1068 C   0  0  0  0  0  0  0  0  0  0  0  0
    3.8702    1.8457   19.2587 H   0  0  0  0  0  0  0  0  0  0  0  0
  1  2  1  0
  2  3  2  0
  3  4  1  0
  4  5  1  0
  4  6  2  0
  6  7  1  0
  7  8  1  0
  8  9  2  0
  9 10  1  0
 10 11  2  0
 10 12  1  0
 12 13  2  0
 13 14  1  0
 13 15  1  0
 15 16  1  0
 15 17  2  0
 17 18  1  0
 17 19  1  0
 19 20  1  0
 19 21  2  0
 21 22  1  0
  9 23  1  0
 23 24  1  0
 24 25  1  0
  6 26  1  0
 26 27  1  0
 26 28  2  0
 28 29  1  0
 28  2  1  0
 24  7  2  0
 21 12  1  0
M  END
>  <plip>  (1) 
-0.03571428571428571

>  <filename>  (1) 
[H][c]1[n][c]([H])[c](-[c]2[n][c]([C](=[O])[c]3[c]([H])[c]([H])[c]([H])[c]([H])[c]3[H])[o][c]2[H])[c]([H])[c]1[H]

$$$$
