
     RDKit          3D

 41 44  0  0  0  0  0  0  0  0999 V2000
    6.4923    1.3038   26.3424 O   0  0  0  0  0  0  0  0  0  0  0  0
    6.1119    0.4052   27.0790 C   0  0  0  0  0  0  0  0  0  0  0  0
    5.3782    0.7817   28.2012 N   0  0  0  0  0  0  0  0  0  0  0  0
    4.8000   -0.0817   29.0988 C   0  0  0  0  0  0  0  0  0  0  0  0
    4.9575   -1.4239   28.9187 C   0  0  0  0  0  0  0  0  0  0  0  0
    5.7432   -1.9003   27.8214 C   0  0  0  0  0  0  0  0  0  0  0  0
    6.3309   -1.0225   26.9421 C   0  0  0  0  0  0  0  0  0  0  0  0
    7.2447   -1.4057   25.8369 C   0  0  0  0  0  0  0  0  0  0  0  0
    6.7002   -0.9501   24.5813 N   0  0  0  0  0  0  0  0  0  0  0  0
    7.3224   -0.9622   23.4012 C   0  0  0  0  0  0  0  0  0  0  0  0
    6.6061   -0.3610   22.4317 N   0  0  0  0  0  0  0  0  0  0  0  0
    7.1411   -0.3683   21.2196 C   0  0  0  0  0  0  0  0  0  0  0  0
    6.4018    0.2133   20.0734 C   0  0  0  0  0  0  0  0  0  0  0  0
    5.1623    0.8701   20.1540 C   0  0  0  0  0  0  0  0  0  0  0  0
    4.6303    1.4183   18.9857 C   0  0  0  0  0  0  0  0  0  0  0  0
    5.3394    1.2905   17.7873 C   0  0  0  0  0  0  0  0  0  0  0  0
    6.4981    0.6278   17.6892 N   0  0  0  0  0  0  0  0  0  0  0  0
    7.0019    0.1057   18.8078 C   0  0  0  0  0  0  0  0  0  0  0  0
    7.9337   -0.4421   18.6991 H   0  0  0  0  0  0  0  0  0  0  0  0
    4.9628    1.7297   16.8659 H   0  0  0  0  0  0  0  0  0  0  0  0
    3.6888    1.9561   18.9858 H   0  0  0  0  0  0  0  0  0  0  0  0
    4.6287    0.9535   21.1014 H   0  0  0  0  0  0  0  0  0  0  0  0
    8.3404   -0.8700   20.9021 N   0  0  0  0  0  0  0  0  0  0  0  0
    9.0150   -1.4181   21.8975 C   0  0  0  0  0  0  0  0  0  0  0  0
    8.5813   -1.5056   23.1967 C   0  0  0  0  0  0  0  0  0  0  0  0
    9.6340   -2.1702   24.0565 C   0  0  0  0  0  0  0  0  0  0  0  0
   10.4447   -2.9452   23.0060 C   0  0  0  0  0  0  0  0  0  0  0  0
   10.3587   -2.0524   21.7547 C   0  0  0  0  0  0  0  0  0  0  0  0
   10.4250   -2.5641   20.7987 H   0  0  0  0  0  0  0  0  0  0  0  0
   11.1201   -1.2642   21.7792 H   0  0  0  0  0  0  0  0  0  0  0  0
   11.4690   -3.1833   23.3066 H   0  0  0  0  0  0  0  0  0  0  0  0
    9.9173   -3.8907   22.8395 H   0  0  0  0  0  0  0  0  0  0  0  0
   10.2635   -1.4061   24.5375 H   0  0  0  0  0  0  0  0  0  0  0  0
    9.2394   -2.8175   24.8492 H   0  0  0  0  0  0  0  0  0  0  0  0
    5.9901   -0.2377   24.5254 H   0  0  0  0  0  0  0  0  0  0  0  0
    8.2500   -0.9892   26.0282 H   0  0  0  0  0  0  0  0  0  0  0  0
    7.3587   -2.4991   25.8280 H   0  0  0  0  0  0  0  0  0  0  0  0
    5.8631   -2.9797   27.6911 H   0  0  0  0  0  0  0  0  0  0  0  0
    4.4854   -2.1247   29.6042 H   0  0  0  0  0  0  0  0  0  0  0  0
    4.2267    0.3558   29.9157 H   0  0  0  0  0  0  0  0  0  0  0  0
    5.3071    1.7884   28.2062 H   0  0  0  0  0  0  0  0  0  0  0  0
  1  2  2  0
  2  3  1  0
  3  4  1  0
  4  5  2  0
  5  6  1  0
  6  7  2  0
  7  8  1  0
  8  9  1  0
  9 10  1  0
 10 11  2  0
 11 12  1  0
 12 13  1  0
 13 14  2  0
 14 15  1  0
 15 16  2  0
 16 17  1  0
 17 18  2  0
 18 19  1  0
 16 20  1  0
 15 21  1  0
 14 22  1  0
 12 23  2  0
 23 24  1  0
 24 25  2  0
 25 26  1  0
 26 27  1  0
 27 28  1  0
 28 29  1  0
 28 30  1  0
 27 31  1  0
 27 32  1  0
 26 33  1  0
 26 34  1  0
  9 35  1  0
  8 36  1  0
  8 37  1  0
  6 38  1  0
  5 39  1  0
  4 40  1  0
  3 41  1  0
  7  2  1  0
 25 10  1  0
 18 13  1  0
 28 24  1  0
M  END
>  <plip>  (1) 
-0.03571428571428571

>  <filename>  (1) 
[H][c]1[n][c]([H])[c](-[c]2[n][c]([N]([H])[C]([H])([H])[c]3[c]([H])[c]([H])[c]([H])[n]([H])[c]3=[O])[c]3[c]([n]2)[C]([H])([H])[C]([H])([H])[C]3([H])[H])[c]([H])[c]1[H]

$$$$
