
     RDKit          3D

 30 31  0  0  0  0  0  0  0  0999 V2000
    4.9424    4.2712   22.0188 H   0  0  0  0  0  0  0  0  0  0  0  0
    5.6320    3.9919   22.6453 O   0  0  0  0  0  0  0  0  0  0  0  0
    4.9656    3.0281   23.2952 C   0  0  0  0  0  0  0  0  0  0  0  0
    3.8174    2.7975   22.9975 O   0  0  0  0  0  0  0  0  0  0  0  0
    5.7896    2.3141   24.3322 C   0  0  0  0  0  0  0  0  0  0  0  0
    6.6206    2.9619   24.6290 H   0  0  0  0  0  0  0  0  0  0  0  0
    5.1264    2.1895   25.1900 H   0  0  0  0  0  0  0  0  0  0  0  0
    6.2749    0.9366   23.8426 C   0  0  0  0  0  0  0  0  0  0  0  0
    6.6635    0.3513   24.6836 H   0  0  0  0  0  0  0  0  0  0  0  0
    5.4165    0.3874   23.4480 H   0  0  0  0  0  0  0  0  0  0  0  0
    7.3644    1.0278   22.7749 C   0  0  0  0  0  0  0  0  0  0  0  0
    8.2862    1.4105   23.2237 H   0  0  0  0  0  0  0  0  0  0  0  0
    7.0776    1.7238   21.9806 H   0  0  0  0  0  0  0  0  0  0  0  0
    7.6590   -0.2621   22.1727 N   0  0  0  0  0  0  0  0  0  0  0  0
    7.3995   -0.7275   20.9064 C   0  0  0  0  0  0  0  0  0  0  0  0
    6.6453    0.0149   19.9023 C   0  0  0  0  0  0  0  0  0  0  0  0
    7.1623    0.0516   18.5992 C   0  0  0  0  0  0  0  0  0  0  0  0
    8.1099   -0.4356   18.3722 H   0  0  0  0  0  0  0  0  0  0  0  0
    6.5627    0.6796   17.5854 N   0  0  0  0  0  0  0  0  0  0  0  0
    5.3989    1.2963   17.8413 C   0  0  0  0  0  0  0  0  0  0  0  0
    4.9275    1.7885   16.9938 H   0  0  0  0  0  0  0  0  0  0  0  0
    4.7955    1.3152   19.1044 C   0  0  0  0  0  0  0  0  0  0  0  0
    3.8657    1.8482   19.2571 H   0  0  0  0  0  0  0  0  0  0  0  0
    5.4303    0.6613   20.1577 C   0  0  0  0  0  0  0  0  0  0  0  0
    4.9902    0.6544   21.1584 H   0  0  0  0  0  0  0  0  0  0  0  0
    7.9044   -1.9064   20.6990 N   0  0  0  0  0  0  0  0  0  0  0  0
    8.4776   -2.2263   21.8991 N   0  0  0  0  0  0  0  0  0  0  0  0
    8.9928   -3.0737   22.0692 H   0  0  0  0  0  0  0  0  0  0  0  0
    8.3828   -1.2487   22.8366 C   0  0  0  0  0  0  0  0  0  0  0  0
    8.8356   -1.2450   23.9674 O   0  0  0  0  0  0  0  0  0  0  0  0
  1  2  1  0
  2  3  1  0
  3  4  2  0
  3  5  1  0
  5  6  1  0
  5  7  1  0
  5  8  1  0
  8  9  1  0
  8 10  1  0
  8 11  1  0
 11 12  1  0
 11 13  1  0
 11 14  1  0
 14 15  1  0
 15 16  1  0
 16 17  2  0
 17 18  1  0
 17 19  1  0
 19 20  2  0
 20 21  1  0
 20 22  1  0
 22 23  1  0
 22 24  2  0
 24 25  1  0
 15 26  2  0
 26 27  1  0
 27 28  1  0
 27 29  1  0
 29 30  2  0
 29 14  1  0
 24 16  1  0
M  END
>  <plip>  (1) 
-0.10344827586206896

>  <filename>  (1) 
[H][O][C](=[O])[C]([H])([H])[C]([H])([H])[C]([H])([H])[n]1[c](-[c]2[c]([H])[n][c]([H])[c]([H])[c]2[H])[n][n]([H])[c]1=[O]

$$$$
