
     RDKit          3D

 27 28  0  0  0  0  0  0  0  0999 V2000
    5.3975   -3.3348   18.5250 H   0  0  0  0  0  0  0  0  0  0  0  0
    5.2739   -2.6406   19.1941 O   0  0  0  0  0  0  0  0  0  0  0  0
    5.7998   -3.2814   20.2360 C   0  0  0  0  0  0  0  0  0  0  0  0
    6.2190   -4.4017   20.0799 O   0  0  0  0  0  0  0  0  0  0  0  0
    5.7295   -2.5317   21.5382 C   0  0  2  0  0  0  0  0  0  0  0  0
    5.0349   -1.7062   21.4170 H   0  0  0  0  0  0  0  0  0  0  0  0
    7.0633   -1.8812   21.6506 C   0  0  0  0  0  0  0  0  0  0  0  0
    8.0033   -2.2433   22.4551 N   0  0  0  0  0  0  0  0  0  0  0  0
    9.0120   -1.3496   22.2152 N   0  0  0  0  0  0  0  0  0  0  0  0
    9.8925   -1.3518   22.7035 H   0  0  0  0  0  0  0  0  0  0  0  0
    8.7309   -0.4113   21.2712 C   0  0  0  0  0  0  0  0  0  0  0  0
    9.4391    0.5005   20.8951 O   0  0  0  0  0  0  0  0  0  0  0  0
    7.4327   -0.7939   20.8521 N   0  0  0  0  0  0  0  0  0  0  0  0
    6.6900   -0.0974   19.8234 C   0  0  0  0  0  0  0  0  0  0  0  0
    7.1613   -0.0089   18.4919 C   0  0  0  0  0  0  0  0  0  0  0  0
    8.1088   -0.4688   18.2192 H   0  0  0  0  0  0  0  0  0  0  0  0
    6.5275    0.6444   17.5073 N   0  0  0  0  0  0  0  0  0  0  0  0
    5.3868    1.2833   17.8110 C   0  0  0  0  0  0  0  0  0  0  0  0
    4.9047    1.8333   17.0016 H   0  0  0  0  0  0  0  0  0  0  0  0
    4.8409    1.2676   19.0937 C   0  0  0  0  0  0  0  0  0  0  0  0
    3.9245    1.8067   19.2850 H   0  0  0  0  0  0  0  0  0  0  0  0
    5.4968    0.5692   20.1177 C   0  0  0  0  0  0  0  0  0  0  0  0
    5.1117    0.5654   21.1361 H   0  0  0  0  0  0  0  0  0  0  0  0
    5.2817   -3.4342   22.7044 C   0  0  0  0  0  0  0  0  0  0  0  0
    5.9707   -4.2695   22.8418 H   0  0  0  0  0  0  0  0  0  0  0  0
    4.2848   -3.8355   22.4940 H   0  0  0  0  0  0  0  0  0  0  0  0
    5.2287   -2.8943   23.6524 H   0  0  0  0  0  0  0  0  0  0  0  0
  1  2  1  0
  2  3  1  0
  3  4  2  0
  3  5  1  0
  5  6  1  6
  5  7  1  0
  7  8  2  0
  8  9  1  0
  9 10  1  0
  9 11  1  0
 11 12  2  0
 11 13  1  0
 13 14  1  0
 14 15  2  0
 15 16  1  0
 15 17  1  0
 17 18  2  0
 18 19  1  0
 18 20  1  0
 20 21  1  0
 20 22  2  0
 22 23  1  0
  5 24  1  0
 24 25  1  0
 24 26  1  0
 24 27  1  0
 13  7  1  0
 22 14  1  0
M  END
>  <plip>  (1) 
-0.23333333333333334

>  <filename>  (1) 
[H][O][C](=[O])[C@]([H])([c]1[n][n]([H])[c](=[O])[n]1-[c]1[c]([H])[n][c]([H])[c]([H])[c]1[H])[C]([H])([H])[H]

$$$$
