
     RDKit          3D

 40 41  0  0  0  0  0  0  0  0999 V2000
    4.9216    1.7812   16.9973 H   0  0  0  0  0  0  0  0  0  0  0  0
    5.4044    1.2883   17.8390 C   0  0  0  0  0  0  0  0  0  0  0  0
    6.5647    0.6740   17.5831 N   0  0  0  0  0  0  0  0  0  0  0  0
    7.1724    0.0558   18.6072 C   0  0  0  0  0  0  0  0  0  0  0  0
    8.1229   -0.4150   18.3809 H   0  0  0  0  0  0  0  0  0  0  0  0
    6.6624   -0.0116   19.9104 C   0  0  0  0  0  0  0  0  0  0  0  0
    7.4075   -0.7187   21.0336 C   0  0  1  0  0  0  0  0  0  0  0  0
    8.6596   -1.2728   20.5257 N   0  0  0  0  0  0  0  0  0  0  0  0
    8.4172   -2.0977   19.9810 H   0  0  0  0  0  0  0  0  0  0  0  0
    9.1614   -1.6453   21.3280 H   0  0  0  0  0  0  0  0  0  0  0  0
    7.7567    0.3177   22.1157 C   0  0  0  0  0  0  0  0  0  0  0  0
    6.8592    0.7361   22.5851 H   0  0  0  0  0  0  0  0  0  0  0  0
    8.3805   -0.1165   22.9040 H   0  0  0  0  0  0  0  0  0  0  0  0
    8.3029    1.1472   21.6600 H   0  0  0  0  0  0  0  0  0  0  0  0
    6.4854   -1.8446   21.6020 C   0  0  0  0  0  0  0  0  0  0  0  0
    5.5923   -1.3382   21.9383 H   0  0  0  0  0  0  0  0  0  0  0  0
    6.1426   -2.4669   20.7649 H   0  0  0  0  0  0  0  0  0  0  0  0
    7.0747   -2.6939   22.7015 C   0  0  0  0  0  0  0  0  0  0  0  0
    7.7533   -3.8775   22.3881 C   0  0  0  0  0  0  0  0  0  0  0  0
    7.8061   -4.1900   21.3468 H   0  0  0  0  0  0  0  0  0  0  0  0
    8.3654   -4.6505   23.3728 C   0  0  0  0  0  0  0  0  0  0  0  0
    8.8679   -5.5644   23.0914 H   0  0  0  0  0  0  0  0  0  0  0  0
    8.3149   -4.2683   24.7347 C   0  0  0  0  0  0  0  0  0  0  0  0
    8.9099   -5.0426   25.7227 N   0  0  0  0  0  0  0  0  0  0  0  0
    9.9498   -5.9980   25.3826 C   0  0  0  0  0  0  0  0  0  0  0  0
   10.4472   -6.3575   26.2878 H   0  0  0  0  0  0  0  0  0  0  0  0
   10.7201   -5.5447   24.7472 H   0  0  0  0  0  0  0  0  0  0  0  0
    9.5662   -6.8775   24.8517 H   0  0  0  0  0  0  0  0  0  0  0  0
    8.5084   -4.9030   27.1119 C   0  0  0  0  0  0  0  0  0  0  0  0
    8.8517   -3.9637   27.5663 H   0  0  0  0  0  0  0  0  0  0  0  0
    7.4171   -4.9405   27.2182 H   0  0  0  0  0  0  0  0  0  0  0  0
    8.9199   -5.7228   27.7087 H   0  0  0  0  0  0  0  0  0  0  0  0
    7.6280   -3.0697   25.0477 C   0  0  0  0  0  0  0  0  0  0  0  0
    7.5720   -2.7424   26.0773 H   0  0  0  0  0  0  0  0  0  0  0  0
    7.0290   -2.3024   24.0474 C   0  0  0  0  0  0  0  0  0  0  0  0
    6.5215   -1.3750   24.3128 H   0  0  0  0  0  0  0  0  0  0  0  0
    5.4422    0.6424   20.1526 C   0  0  0  0  0  0  0  0  0  0  0  0
    4.9965    0.6442   21.1500 H   0  0  0  0  0  0  0  0  0  0  0  0
    4.8088    1.3058   19.1042 C   0  0  0  0  0  0  0  0  0  0  0  0
    3.8790    1.8394   19.2580 H   0  0  0  0  0  0  0  0  0  0  0  0
  1  2  1  0
  2  3  2  0
  3  4  1  0
  4  5  1  0
  4  6  2  0
  6  7  1  0
  7  8  1  6
  8  9  1  0
  8 10  1  0
  7 11  1  0
 11 12  1  0
 11 13  1  0
 11 14  1  0
  7 15  1  0
 15 16  1  0
 15 17  1  0
 15 18  1  0
 18 19  2  0
 19 20  1  0
 19 21  1  0
 21 22  1  0
 21 23  2  0
 23 24  1  0
 24 25  1  0
 25 26  1  0
 25 27  1  0
 25 28  1  0
 24 29  1  0
 29 30  1  0
 29 31  1  0
 29 32  1  0
 23 33  1  0
 33 34  1  0
 33 35  2  0
 35 36  1  0
  6 37  1  0
 37 38  1  0
 37 39  2  0
 39 40  1  0
 39  2  1  0
 35 18  1  0
M  END
>  <plip>  (1) 
-0.03571428571428571

>  <filename>  (1) 
[H][c]1[n][c]([H])[c]([C@@]([N]([H])[H])([C]([H])([H])[H])[C]([H])([H])[c]2[c]([H])[c]([H])[c]([N]([C]([H])([H])[H])[C]([H])([H])[H])[c]([H])[c]2[H])[c]([H])[c]1[H]

$$$$
