
     RDKit          3D

 31 33  0  0  0  0  0  0  0  0999 V2000
    8.7866    0.0481   21.2751 C   0  0  0  0  0  0  0  0  0  0  0  0
    7.3862   -0.5475   21.1091 C   0  0  0  0  0  0  0  0  0  0  0  0
    7.4154   -1.9747   20.9741 N   0  0  0  0  0  0  0  0  0  0  0  0
    7.7324   -2.8501   21.9516 C   0  0  0  0  0  0  0  0  0  0  0  0
    7.8844   -2.5048   23.3299 C   0  0  0  0  0  0  0  0  0  0  0  0
    8.2224   -3.4825   24.2686 C   0  0  0  0  0  0  0  0  0  0  0  0
    8.3990   -4.7715   23.7505 C   0  0  0  0  0  0  0  0  0  0  0  0
    8.8040   -6.0036   24.2343 N   0  0  0  0  0  0  0  0  0  0  0  0
    8.8242   -6.8425   23.1417 C   0  0  0  0  0  0  0  0  0  0  0  0
    8.4546   -6.2783   22.0387 N   0  0  0  0  0  0  0  0  0  0  0  0
    8.1953   -4.9838   22.3605 C   0  0  0  0  0  0  0  0  0  0  0  0
    7.8791   -4.0746   21.4594 N   0  0  0  0  0  0  0  0  0  0  0  0
    9.2105   -7.8525   23.1665 H   0  0  0  0  0  0  0  0  0  0  0  0
    9.0805   -6.2157   25.1799 H   0  0  0  0  0  0  0  0  0  0  0  0
    8.3489   -3.2545   25.3281 H   0  0  0  0  0  0  0  0  0  0  0  0
    7.7489   -1.4781   23.6318 H   0  0  0  0  0  0  0  0  0  0  0  0
    7.5363   -2.4201   20.0768 H   0  0  0  0  0  0  0  0  0  0  0  0
    6.6297    0.0001   19.9301 C   0  0  0  0  0  0  0  0  0  0  0  0
    5.4063    0.6501   20.1113 C   0  0  0  0  0  0  0  0  0  0  0  0
    4.8164    1.2965   19.0279 C   0  0  0  0  0  0  0  0  0  0  0  0
    5.4580    1.2331   17.7859 C   0  0  0  0  0  0  0  0  0  0  0  0
    6.5835    0.5336   17.5722 N   0  0  0  0  0  0  0  0  0  0  0  0
    7.1369   -0.0868   18.6264 C   0  0  0  0  0  0  0  0  0  0  0  0
    8.0422   -0.6567   18.3993 H   0  0  0  0  0  0  0  0  0  0  0  0
    5.0390    1.7502   16.9246 H   0  0  0  0  0  0  0  0  0  0  0  0
    3.8913    1.8506   19.1427 H   0  0  0  0  0  0  0  0  0  0  0  0
    4.9386    0.6419   21.0977 H   0  0  0  0  0  0  0  0  0  0  0  0
    6.8110   -0.3116   22.0177 H   0  0  0  0  0  0  0  0  0  0  0  0
    9.2979   -0.4189   22.1221 H   0  0  0  0  0  0  0  0  0  0  0  0
    8.7349    1.1255   21.4516 H   0  0  0  0  0  0  0  0  0  0  0  0
    9.3951   -0.1231   20.3821 H   0  0  0  0  0  0  0  0  0  0  0  0
  1  2  1  0
  2  3  1  0
  3  4  1  0
  4  5  2  0
  5  6  1  0
  6  7  2  0
  7  8  1  0
  8  9  1  0
  9 10  2  0
 10 11  1  0
 11 12  2  0
  9 13  1  0
  8 14  1  0
  6 15  1  0
  5 16  1  0
  3 17  1  0
  2 18  1  0
 18 19  2  0
 19 20  1  0
 20 21  2  0
 21 22  1  0
 22 23  2  0
 23 24  1  0
 21 25  1  0
 20 26  1  0
 19 27  1  0
  2 28  1  0
  1 29  1  0
  1 30  1  0
  1 31  1  0
 12  4  1  0
 23 18  1  0
 11  7  1  0
M  END
>  <plip>  (1) 
-0.16666666666666666

>  <filename>  (1) 
[H][c]1[n][c]([H])[c]([C]([H])([N]([H])[c]2[n][c]3[n][c]([H])[n]([H])[c]3[c]([H])[c]2[H])[C]([H])([H])[H])[c]([H])[c]1[H]

$$$$
