
     RDKit          3D

 41 44  0  0  0  0  0  0  0  0999 V2000
    8.4913    1.8513   20.7728 O   0  0  0  0  0  0  0  0  0  0  0  0
    8.2168    1.4590   21.8971 C   0  0  0  0  0  0  0  0  0  0  0  0
    8.4402    2.3545   23.0459 C   0  0  0  0  0  0  0  0  0  0  0  0
    7.6691    2.6193   24.2000 C   0  0  0  0  0  0  0  0  0  0  0  0
    6.3914    2.3045   24.7336 C   0  0  0  0  0  0  0  0  0  0  0  0
    5.3225    1.2982   23.8225 Cl  0  0  0  0  0  0  0  0  0  0  0  0
    5.9877    2.8089   25.9544 C   0  0  0  0  0  0  0  0  0  0  0  0
    6.8317    3.7013   26.6762 C   0  0  0  0  0  0  0  0  0  0  0  0
    8.0415    4.0669   26.1355 C   0  0  0  0  0  0  0  0  0  0  0  0
    8.4219    3.5415   24.9193 N   0  0  0  0  0  0  0  0  0  0  0  0
    9.5722    3.8801   24.2944 N   0  0  0  0  0  0  0  0  0  0  0  0
    9.5673    3.1834   23.1692 C   0  0  0  0  0  0  0  0  0  0  0  0
   10.3904    3.3108   22.4732 H   0  0  0  0  0  0  0  0  0  0  0  0
    8.7771    4.7467   26.5434 H   0  0  0  0  0  0  0  0  0  0  0  0
    6.5242    4.0973   27.6397 H   0  0  0  0  0  0  0  0  0  0  0  0
    5.0209    2.5069   26.3483 H   0  0  0  0  0  0  0  0  0  0  0  0
    7.7741    0.1606   22.1537 N   0  0  0  0  0  0  0  0  0  0  0  0
    8.3210   -0.5462   23.3337 C   0  0  0  0  0  0  0  0  0  0  0  0
    7.4662   -1.7479   23.7432 C   0  0  0  0  0  0  0  0  0  0  0  0
    7.2541   -2.7040   22.5608 C   0  0  0  0  0  0  0  0  0  0  0  0
    6.6088   -1.9252   21.4121 C   0  0  0  0  0  0  0  0  0  0  0  0
    7.4404   -0.6959   20.9935 C   0  0  1  0  0  0  0  0  0  0  0  0
    6.6619    0.0304   19.9134 C   0  0  0  0  0  0  0  0  0  0  0  0
    5.4389    0.6667   20.1609 C   0  0  0  0  0  0  0  0  0  0  0  0
    4.7992    1.3121   19.0978 C   0  0  0  0  0  0  0  0  0  0  0  0
    5.3942    1.2830   17.8321 C   0  0  0  0  0  0  0  0  0  0  0  0
    6.5505    0.6554   17.5761 N   0  0  0  0  0  0  0  0  0  0  0  0
    7.1591    0.0550   18.6078 C   0  0  0  0  0  0  0  0  0  0  0  0
    8.1139   -0.4224   18.3767 H   0  0  0  0  0  0  0  0  0  0  0  0
    4.9363    1.7918   16.9861 H   0  0  0  0  0  0  0  0  0  0  0  0
    3.8662    1.8426   19.2366 H   0  0  0  0  0  0  0  0  0  0  0  0
    5.0036    0.6643   21.1651 H   0  0  0  0  0  0  0  0  0  0  0  0
    8.3892   -1.0532   20.5597 H   0  0  0  0  0  0  0  0  0  0  0  0
    6.4740   -2.5494   20.5220 H   0  0  0  0  0  0  0  0  0  0  0  0
    5.6079   -1.5769   21.7063 H   0  0  0  0  0  0  0  0  0  0  0  0
    8.2148   -3.1335   22.2299 H   0  0  0  0  0  0  0  0  0  0  0  0
    6.6291   -3.5577   22.8532 H   0  0  0  0  0  0  0  0  0  0  0  0
    7.9696   -2.2573   24.5767 H   0  0  0  0  0  0  0  0  0  0  0  0
    6.4938   -1.3897   24.1110 H   0  0  0  0  0  0  0  0  0  0  0  0
    9.3532   -0.8878   23.1287 H   0  0  0  0  0  0  0  0  0  0  0  0
    8.3764    0.1722   24.1572 H   0  0  0  0  0  0  0  0  0  0  0  0
  1  2  2  0
  2  3  1  0
  3  4  2  0
  4  5  1  0
  5  6  1  0
  5  7  2  0
  7  8  1  0
  8  9  2  0
  9 10  1  0
 10 11  1  0
 11 12  2  0
 12 13  1  0
  9 14  1  0
  8 15  1  0
  7 16  1  0
  2 17  1  0
 17 18  1  0
 18 19  1  0
 19 20  1  0
 20 21  1  0
 21 22  1  0
 22 23  1  0
 23 24  2  0
 24 25  1  0
 25 26  2  0
 26 27  1  0
 27 28  2  0
 28 29  1  0
 26 30  1  0
 25 31  1  0
 24 32  1  0
 22 33  1  6
 21 34  1  0
 21 35  1  0
 20 36  1  0
 20 37  1  0
 19 38  1  0
 19 39  1  0
 18 40  1  0
 18 41  1  0
 12  3  1  0
 22 17  1  0
 28 23  1  0
 10  4  1  0
M  END
>  <plip>  (1) 
-0.034482758620689655

>  <filename>  (1) 
[H][c]1[n][c]([H])[c]([C@@]2([H])[N]([C](=[O])[c]3[c]([H])[n][n]4[c]([H])[c]([H])[c]([H])[c]([Cl])[c]34)[C]([H])([H])[C]([H])([H])[C]([H])([H])[C]2([H])[H])[c]([H])[c]1[H]

$$$$
