
     RDKit          3D

 46 48  0  0  0  0  0  0  0  0999 V2000
    3.7822   -2.7907   25.6469 C   0  0  0  0  0  0  0  0  0  0  0  0
    4.3318   -2.1553   26.9031 C   0  0  0  0  0  0  0  0  0  0  0  0
    3.5068   -2.0261   28.0266 C   0  0  0  0  0  0  0  0  0  0  0  0
    3.9622   -1.4284   29.2050 C   0  0  0  0  0  0  0  0  0  0  0  0
    5.2691   -0.9373   29.2734 C   0  0  0  0  0  0  0  0  0  0  0  0
    6.1026   -1.0539   28.1628 C   0  0  0  0  0  0  0  0  0  0  0  0
    5.6676   -1.6802   26.9818 C   0  0  0  0  0  0  0  0  0  0  0  0
    6.6224   -1.8269   25.8498 C   0  0  0  0  0  0  0  0  0  0  0  0
    6.9740   -3.0165   25.3502 C   0  0  0  0  0  0  0  0  0  0  0  0
    7.9968   -3.1588   24.2621 C   0  0  0  0  0  0  0  0  0  0  0  0
    8.0479   -1.9889   23.3582 N   0  0  0  0  0  0  0  0  0  0  0  0
    8.7177   -2.1640   22.1724 C   0  0  0  0  0  0  0  0  0  0  0  0
    9.4952   -3.0981   22.0321 O   0  0  0  0  0  0  0  0  0  0  0  0
    8.5536   -1.1965   20.9737 C   0  0  0  0  0  0  0  0  0  0  0  0
    9.6649   -0.1425   20.9420 C   0  0  0  0  0  0  0  0  0  0  0  0
    9.6396    0.4784   21.8417 H   0  0  0  0  0  0  0  0  0  0  0  0
    9.5651    0.5160   20.0734 H   0  0  0  0  0  0  0  0  0  0  0  0
   10.6438   -0.6347   20.8898 H   0  0  0  0  0  0  0  0  0  0  0  0
    7.2398   -0.6265   20.9874 O   0  0  0  0  0  0  0  0  0  0  0  0
    6.6815    0.0028   19.9132 C   0  0  0  0  0  0  0  0  0  0  0  0
    5.4539    0.6447   20.1604 C   0  0  0  0  0  0  0  0  0  0  0  0
    4.8180    1.3026   19.1090 C   0  0  0  0  0  0  0  0  0  0  0  0
    5.4058    1.2907   17.8363 C   0  0  0  0  0  0  0  0  0  0  0  0
    6.5669    0.6715   17.5843 N   0  0  0  0  0  0  0  0  0  0  0  0
    7.1905    0.0513   18.6005 C   0  0  0  0  0  0  0  0  0  0  0  0
    8.1339   -0.4320   18.3574 H   0  0  0  0  0  0  0  0  0  0  0  0
    4.9192    1.7820   16.9949 H   0  0  0  0  0  0  0  0  0  0  0  0
    3.8840    1.8339   19.2646 H   0  0  0  0  0  0  0  0  0  0  0  0
    5.0353    0.6141   21.1683 H   0  0  0  0  0  0  0  0  0  0  0  0
    8.6684   -1.8383   20.0948 H   0  0  0  0  0  0  0  0  0  0  0  0
    7.4097   -0.7238   23.7507 C   0  0  0  0  0  0  0  0  0  0  0  0
    7.2928   -0.6020   25.2693 C   0  0  0  0  0  0  0  0  0  0  0  0
    8.2936   -0.4751   25.7035 H   0  0  0  0  0  0  0  0  0  0  0  0
    6.7265    0.2997   25.5098 H   0  0  0  0  0  0  0  0  0  0  0  0
    7.9960    0.1109   23.3613 H   0  0  0  0  0  0  0  0  0  0  0  0
    6.4177   -0.6678   23.2948 H   0  0  0  0  0  0  0  0  0  0  0  0
    8.9882   -3.3237   24.7092 H   0  0  0  0  0  0  0  0  0  0  0  0
    7.7777   -4.0678   23.6928 H   0  0  0  0  0  0  0  0  0  0  0  0
    6.5898   -3.9324   25.7894 H   0  0  0  0  0  0  0  0  0  0  0  0
    7.1235   -0.6768   28.1916 H   0  0  0  0  0  0  0  0  0  0  0  0
    5.6327   -0.4654   30.1833 H   0  0  0  0  0  0  0  0  0  0  0  0
    3.2988   -1.3412   30.0612 H   0  0  0  0  0  0  0  0  0  0  0  0
    2.4881   -2.4072   27.9660 H   0  0  0  0  0  0  0  0  0  0  0  0
    4.0712   -3.8441   25.5692 H   0  0  0  0  0  0  0  0  0  0  0  0
    4.1677   -2.2981   24.7517 H   0  0  0  0  0  0  0  0  0  0  0  0
    2.6899   -2.7497   25.6145 H   0  0  0  0  0  0  0  0  0  0  0  0
  1  2  1  0
  2  3  2  0
  3  4  1  0
  4  5  2  0
  5  6  1  0
  6  7  2  0
  7  8  1  0
  8  9  2  0
  9 10  1  0
 10 11  1  0
 11 12  1  0
 12 13  2  0
 12 14  1  0
 14 15  1  0
 15 16  1  0
 15 17  1  0
 15 18  1  0
 14 19  1  0
 19 20  1  0
 20 21  2  0
 21 22  1  0
 22 23  2  0
 23 24  1  0
 24 25  2  0
 25 26  1  0
 23 27  1  0
 22 28  1  0
 21 29  1  0
 14 30  1  0
 11 31  1  0
 31 32  1  0
 32 33  1  0
 32 34  1  0
 31 35  1  0
 31 36  1  0
 10 37  1  0
 10 38  1  0
  9 39  1  0
  6 40  1  0
  5 41  1  0
  4 42  1  0
  3 43  1  0
  1 44  1  0
  1 45  1  0
  1 46  1  0
  7  2  1  0
 32  8  1  0
 25 20  1  0
M  END
>  <plip>  (1) 
-0.03571428571428571

>  <filename>  (1) 
[H][C]1=[C]([c]2[c]([H])[c]([H])[c]([H])[c]([H])[c]2[C]([H])([H])[H])[C]([H])([H])[C]([H])([H])[N]([C](=[O])[C]([H])([O][c]2[c]([H])[n][c]([H])[c]([H])[c]2[H])[C]([H])([H])[H])[C]1([H])[H]

$$$$
