
     RDKit          3D

 30 32  0  0  0  0  0  0  0  0999 V2000
    4.9359    1.7984   16.9851 H   0  0  0  0  0  0  0  0  0  0  0  0
    5.4006    1.2955   17.8305 C   0  0  0  0  0  0  0  0  0  0  0  0
    6.5674    0.6761   17.5822 N   0  0  0  0  0  0  0  0  0  0  0  0
    7.1689    0.0590   18.6058 C   0  0  0  0  0  0  0  0  0  0  0  0
    8.1140   -0.4333   18.3787 H   0  0  0  0  0  0  0  0  0  0  0  0
    6.6560    0.0173   19.9242 C   0  0  0  0  0  0  0  0  0  0  0  0
    7.3590   -0.6765   21.0291 C   0  0  0  0  0  0  0  0  0  0  0  0
    8.0687   -2.2253   20.8434 S   0  0  0  0  0  0  0  0  0  0  0  0
    8.4951   -2.4288   22.4284 N   0  0  0  0  0  0  0  0  0  0  0  0
    8.1356   -1.3786   23.1099 C   0  0  0  0  0  0  0  0  0  0  0  0
    8.3689   -1.3455   24.1757 H   0  0  0  0  0  0  0  0  0  0  0  0
    7.5003   -0.3365   22.3666 C   0  0  0  0  0  0  0  0  0  0  0  0
    7.1608    0.9372   22.9803 C   0  0  0  0  0  0  0  0  0  0  0  0
    6.7109    0.8793   24.2487 N   0  0  0  0  0  0  0  0  0  0  0  0
    6.3577    2.0255   24.8012 C   0  0  0  0  0  0  0  0  0  0  0  0
    5.8462    2.0499   26.0442 O   0  0  0  0  0  0  0  0  0  0  0  0
    5.6669    0.8391   26.7690 C   0  0  0  0  0  0  0  0  0  0  0  0
    4.9582    0.1695   26.2634 H   0  0  0  0  0  0  0  0  0  0  0  0
    5.2673    1.1686   27.7310 H   0  0  0  0  0  0  0  0  0  0  0  0
    6.6174    0.3058   26.9035 H   0  0  0  0  0  0  0  0  0  0  0  0
    6.4851    3.2851   24.1880 C   0  0  0  0  0  0  0  0  0  0  0  0
    6.1758    4.1426   24.7696 H   0  0  0  0  0  0  0  0  0  0  0  0
    7.0041    3.3434   22.9056 C   0  0  0  0  0  0  0  0  0  0  0  0
    7.1340    4.2946   22.3872 H   0  0  0  0  0  0  0  0  0  0  0  0
    7.3550    2.1350   22.2867 C   0  0  0  0  0  0  0  0  0  0  0  0
    7.7559    2.0856   21.2814 H   0  0  0  0  0  0  0  0  0  0  0  0
    5.4197    0.6514   20.1439 C   0  0  0  0  0  0  0  0  0  0  0  0
    4.9825    0.6344   21.1412 H   0  0  0  0  0  0  0  0  0  0  0  0
    4.7910    1.3098   19.0873 C   0  0  0  0  0  0  0  0  0  0  0  0
    3.8587    1.8436   19.2331 H   0  0  0  0  0  0  0  0  0  0  0  0
  1  2  1  0
  2  3  2  0
  3  4  1  0
  4  5  1  0
  4  6  2  0
  6  7  1  0
  7  8  1  0
  8  9  1  0
  9 10  2  0
 10 11  1  0
 10 12  1  0
 12 13  1  0
 13 14  2  0
 14 15  1  0
 15 16  1  0
 16 17  1  0
 17 18  1  0
 17 19  1  0
 17 20  1  0
 15 21  2  0
 21 22  1  0
 21 23  1  0
 23 24  1  0
 23 25  2  0
 25 26  1  0
  6 27  1  0
 27 28  1  0
 27 29  2  0
 29 30  1  0
 29  2  1  0
 12  7  2  0
 25 13  1  0
M  END
>  <plip>  (1) 
-0.0

>  <filename>  (1) 
[H][c]1[n][c]([H])[c](-[c]2[s][n][c]([H])[c]2-[c]2[n][c]([O][C]([H])([H])[H])[c]([H])[c]([H])[c]2[H])[c]([H])[c]1[H]

$$$$
