
     RDKit          3D

 41 42  0  0  0  0  0  0  0  0999 V2000
    7.8414    1.3171   22.3362 C   0  0  0  0  0  0  0  0  0  0  0  0
    8.4203    0.1266   21.6106 N   0  0  0  0  0  4  0  0  0  0  0  0
    9.4908   -0.4725   22.4548 C   0  0  0  0  0  0  0  0  0  0  0  0
   10.2756    0.2701   22.6456 H   0  0  0  0  0  0  0  0  0  0  0  0
    9.9475   -1.3359   21.9614 H   0  0  0  0  0  0  0  0  0  0  0  0
    9.0970   -0.7996   23.4242 H   0  0  0  0  0  0  0  0  0  0  0  0
    7.3696   -0.9002   21.0620 C   0  0  0  0  0  0  0  0  0  0  0  0
    6.4706   -1.6115   22.0989 C   0  0  0  0  0  0  0  0  0  0  0  0
    6.9948   -2.9067   22.5273 N   0  0  0  0  0  0  0  0  0  0  0  0
    6.4855   -3.5838   23.6104 C   0  0  0  0  0  0  0  0  0  0  0  0
    7.3532   -4.3703   24.3983 C   0  0  0  0  0  0  0  0  0  0  0  0
    8.7874   -4.4609   23.9925 C   0  0  0  0  0  0  0  0  0  0  0  0
    8.8925   -4.8917   22.7046 F   0  0  0  0  0  0  0  0  0  0  0  0
    9.4058   -3.2490   24.0196 F   0  0  0  0  0  0  0  0  0  0  0  0
    9.5201   -5.2858   24.7361 F   0  0  0  0  0  0  0  0  0  0  0  0
    6.8150   -5.0093   25.5169 C   0  0  0  0  0  0  0  0  0  0  0  0
    7.5838   -5.7766   26.3050 F   0  0  0  0  0  0  0  0  0  0  0  0
    5.4702   -4.8934   25.8688 C   0  0  0  0  0  0  0  0  0  0  0  0
    4.6121   -4.1811   25.0312 C   0  0  0  0  0  0  0  0  0  0  0  0
    5.1183   -3.5457   23.9026 C   0  0  0  0  0  0  0  0  0  0  0  0
    4.4470   -3.0409   23.2244 H   0  0  0  0  0  0  0  0  0  0  0  0
    3.5453   -4.1034   25.2372 H   0  0  0  0  0  0  0  0  0  0  0  0
    5.1242   -5.3415   26.7919 H   0  0  0  0  0  0  0  0  0  0  0  0
    7.9532   -3.1234   22.3182 H   0  0  0  0  0  0  0  0  0  0  0  0
    5.4968   -1.7688   21.6145 H   0  0  0  0  0  0  0  0  0  0  0  0
    6.2877   -0.9209   22.9426 H   0  0  0  0  0  0  0  0  0  0  0  0
    6.6390   -0.1335   19.9799 C   0  0  0  0  0  0  0  0  0  0  0  0
    5.4242    0.5368   20.1827 C   0  0  0  0  0  0  0  0  0  0  0  0
    4.8644    1.2468   19.1152 C   0  0  0  0  0  0  0  0  0  0  0  0
    5.5469    1.2658   17.8953 C   0  0  0  0  0  0  0  0  0  0  0  0
    6.7194    0.6471   17.6879 N   0  0  0  0  0  0  0  0  0  0  0  0
    7.2532   -0.0108   18.7240 C   0  0  0  0  0  0  0  0  0  0  0  0
    8.2204   -0.4831   18.5396 H   0  0  0  0  0  0  0  0  0  0  0  0
    5.1380    1.8012   17.0415 H   0  0  0  0  0  0  0  0  0  0  0  0
    3.9327    1.7930   19.2195 H   0  0  0  0  0  0  0  0  0  0  0  0
    4.9489    0.5373   21.1686 H   0  0  0  0  0  0  0  0  0  0  0  0
    7.9714   -1.6883   20.5924 H   0  0  0  0  0  0  0  0  0  0  0  0
    8.8356    0.4906   20.7226 H   0  0  0  0  0  0  0  0  0  0  0  0
    8.6488    1.9911   22.6491 H   0  0  0  0  0  0  0  0  0  0  0  0
    7.1604    1.8728   21.6882 H   0  0  0  0  0  0  0  0  0  0  0  0
    7.2941    1.0052   23.2338 H   0  0  0  0  0  0  0  0  0  0  0  0
  1  2  1  0
  2  3  1  0
  3  4  1  0
  3  5  1  0
  3  6  1  0
  2  7  1  0
  7  8  1  0
  8  9  1  0
  9 10  1  0
 10 11  2  0
 11 12  1  0
 12 13  1  0
 12 14  1  0
 12 15  1  0
 11 16  1  0
 16 17  1  0
 16 18  2  0
 18 19  1  0
 19 20  2  0
 20 21  1  0
 19 22  1  0
 18 23  1  0
  9 24  1  0
  8 25  1  0
  8 26  1  0
  7 27  1  0
 27 28  2  0
 28 29  1  0
 29 30  2  0
 30 31  1  0
 31 32  2  0
 32 33  1  0
 30 34  1  0
 29 35  1  0
 28 36  1  0
  7 37  1  0
  2 38  1  0
  1 39  1  0
  1 40  1  0
  1 41  1  0
 20 10  1  0
 32 27  1  0
M  CHG  1   2   1
M  END
>  <plip>  (1) 
-0.03225806451612903

>  <filename>  (1) 
[H][c]1[n][c]([H])[c]([C]([H])([C]([H])([H])[N]([H])[c]2[c]([H])[c]([H])[c]([H])[c]([F])[c]2[C]([F])([F])[F])[N+]([H])([C]([H])([H])[H])[C]([H])([H])[H])[c]([H])[c]1[H]

$$$$
