
     RDKit          3D

 33 34  0  0  0  0  0  0  0  0999 V2000
    4.9545    1.8361   16.9541 H   0  0  0  0  0  0  0  0  0  0  0  0
    5.3986    1.3148   17.8006 C   0  0  0  0  0  0  0  0  0  0  0  0
    6.5605    0.6864   17.5648 N   0  0  0  0  0  0  0  0  0  0  0  0
    7.1388    0.0574   18.5942 C   0  0  0  0  0  0  0  0  0  0  0  0
    8.0879   -0.4259   18.3636 H   0  0  0  0  0  0  0  0  0  0  0  0
    6.6109   -0.0092   19.8969 C   0  0  0  0  0  0  0  0  0  0  0  0
    7.3910   -0.7317   20.9876 C   0  0  0  0  0  0  0  0  0  0  0  0
    6.7733   -0.8391   21.8860 H   0  0  0  0  0  0  0  0  0  0  0  0
    7.6193   -1.7622   20.6783 H   0  0  0  0  0  0  0  0  0  0  0  0
    8.6895   -0.0291   21.3278 C   0  0  0  0  0  0  0  0  0  0  0  0
   10.0149   -0.3927   21.0103 C   0  0  0  0  0  0  0  0  0  0  0  0
   10.3688   -1.3136   20.5711 H   0  0  0  0  0  0  0  0  0  0  0  0
   10.8923    0.5489   21.3237 N   0  0  0  0  0  0  0  0  0  0  0  0
   10.1486    1.5309   21.8413 N   0  0  0  0  0  0  0  0  0  0  0  0
   10.6266    2.3346   22.2296 H   0  0  0  0  0  0  0  0  0  0  0  0
    8.8199    1.2331   21.9024 C   0  0  0  0  0  0  0  0  0  0  0  0
    7.8157    2.1231   22.5122 C   0  0  0  0  0  0  0  0  0  0  0  0
    6.8077    1.5614   23.0884 N   0  0  0  0  0  0  0  0  0  0  0  0
    5.8796    2.3365   23.7507 N   0  0  0  0  0  0  0  0  0  0  0  0
    5.7247    3.3099   23.5235 H   0  0  0  0  0  0  0  0  0  0  0  0
    4.7480    1.8264   24.3233 C   0  0  0  0  0  0  0  0  0  0  0  0
    3.4577    2.8070   24.6523 S   0  0  0  0  0  0  0  0  0  0  0  0
    4.7864    0.5229   24.6348 N   0  0  0  0  0  0  0  0  0  0  0  0
    5.4188   -0.0134   24.0555 H   0  0  0  0  0  0  0  0  0  0  0  0
    3.8791    0.1329   24.8052 H   0  0  0  0  0  0  0  0  0  0  0  0
    7.9928    3.6264   22.5012 C   0  0  0  0  0  0  0  0  0  0  0  0
    7.1027    4.1192   22.0842 H   0  0  0  0  0  0  0  0  0  0  0  0
    8.8520    3.9184   21.8985 H   0  0  0  0  0  0  0  0  0  0  0  0
    8.1191    3.9911   23.5276 H   0  0  0  0  0  0  0  0  0  0  0  0
    5.3833    0.6399   20.1080 C   0  0  0  0  0  0  0  0  0  0  0  0
    4.9116    0.6362   21.0882 H   0  0  0  0  0  0  0  0  0  0  0  0
    4.7732    1.3172   19.0476 C   0  0  0  0  0  0  0  0  0  0  0  0
    3.8383    1.8547   19.1780 H   0  0  0  0  0  0  0  0  0  0  0  0
  1  2  1  0
  2  3  2  0
  3  4  1  0
  4  5  1  0
  4  6  2  0
  6  7  1  0
  7  8  1  0
  7  9  1  0
  7 10  1  0
 10 11  1  0
 11 12  1  0
 11 13  2  0
 13 14  1  0
 14 15  1  0
 14 16  1  0
 16 17  1  0
 17 18  2  3
 18 19  1  0
 19 20  1  0
 19 21  1  0
 21 22  2  0
 21 23  1  0
 23 24  1  0
 23 25  1  0
 17 26  1  0
 26 27  1  0
 26 28  1  0
 26 29  1  0
  6 30  1  0
 30 31  1  0
 30 32  2  0
 32 33  1  0
 32  2  1  0
 16 10  2  0
M  END
>  <plip>  (1) 
-0.17857142857142858

>  <filename>  (1) 
[H][c]1[n][c]([H])[c]([C]([H])([H])[c]2[c]([H])[n][n]([H])[c]2[C](=[N][N]([H])[C](=[S])[N]([H])[H])[C]([H])([H])[H])[c]([H])[c]1[H]

$$$$
