
     RDKit          3D

 31 33  0  0  0  0  0  0  0  0999 V2000
    4.9208    1.7923   16.9555 H   0  0  0  0  0  0  0  0  0  0  0  0
    5.3805    1.3080   17.8114 C   0  0  0  0  0  0  0  0  0  0  0  0
    6.5472    0.6890   17.5712 N   0  0  0  0  0  0  0  0  0  0  0  0
    7.1490    0.1134   18.6219 C   0  0  0  0  0  0  0  0  0  0  0  0
    8.0983   -0.3774   18.4076 H   0  0  0  0  0  0  0  0  0  0  0  0
    6.6457    0.1246   19.9483 C   0  0  0  0  0  0  0  0  0  0  0  0
    7.3640   -0.5381   21.0720 C   0  0  0  0  0  0  0  0  0  0  0  0
    8.0257   -1.7996   21.0127 C   0  0  0  0  0  0  0  0  0  0  0  0
    8.0127   -2.3910   20.1308 H   0  0  0  0  0  0  0  0  0  0  0  0
    8.5850   -2.2978   22.0686 N   0  0  0  0  0  0  0  0  0  0  0  0
    8.3581   -1.2379   23.3377 S   0  0  0  0  0  0  0  0  0  0  0  0
    7.4503   -0.1222   22.3733 C   0  0  0  0  0  0  0  0  0  0  0  0
    6.8638    0.9582   22.8530 O   0  0  0  0  0  0  0  0  0  0  0  0
    7.1807    1.3945   24.1885 C   0  0  0  0  0  0  0  0  0  0  0  0
    6.9660    0.5942   24.9082 H   0  0  0  0  0  0  0  0  0  0  0  0
    6.3069    2.6026   24.4245 C   0  0  0  0  0  0  0  0  0  0  0  0
    5.2761    2.3084   24.6479 H   0  0  0  0  0  0  0  0  0  0  0  0
    6.2964    3.1745   23.4905 H   0  0  0  0  0  0  0  0  0  0  0  0
    7.0123    3.3746   25.5393 C   0  0  0  0  0  0  0  0  0  0  0  0
    6.6903    2.9902   26.5134 H   0  0  0  0  0  0  0  0  0  0  0  0
    6.7768    4.4426   25.5184 H   0  0  0  0  0  0  0  0  0  0  0  0
    8.5253    3.0960   25.3270 C   0  0  0  0  0  0  0  0  0  0  0  0
    9.0171    2.8821   26.2806 H   0  0  0  0  0  0  0  0  0  0  0  0
    9.0406    3.9611   24.8973 H   0  0  0  0  0  0  0  0  0  0  0  0
    8.6201    1.8949   24.3593 C   0  0  0  0  0  0  0  0  0  0  0  0
    8.9969    2.2019   23.3797 H   0  0  0  0  0  0  0  0  0  0  0  0
    9.2911    1.1148   24.7276 H   0  0  0  0  0  0  0  0  0  0  0  0
    5.4074    0.7576   20.1550 C   0  0  0  0  0  0  0  0  0  0  0  0
    4.9678    0.7639   21.1532 H   0  0  0  0  0  0  0  0  0  0  0  0
    4.7641    1.3541   19.0666 C   0  0  0  0  0  0  0  0  0  0  0  0
    3.8104    1.8581   19.1814 H   0  0  0  0  0  0  0  0  0  0  0  0
  1  2  1  0
  2  3  2  0
  3  4  1  0
  4  5  1  0
  4  6  2  0
  6  7  1  0
  7  8  1  0
  8  9  1  0
  8 10  2  0
 10 11  1  0
 11 12  1  0
 12 13  1  0
 13 14  1  0
 14 15  1  0
 14 16  1  0
 16 17  1  0
 16 18  1  0
 16 19  1  0
 19 20  1  0
 19 21  1  0
 19 22  1  0
 22 23  1  0
 22 24  1  0
 22 25  1  0
 25 26  1  0
 25 27  1  0
  6 28  1  0
 28 29  1  0
 28 30  2  0
 30 31  1  0
 30  2  1  0
 12  7  2  0
 25 14  1  0
M  END
>  <plip>  (1) 
-0.06896551724137931

>  <filename>  (1) 
[H][c]1[n][c]([H])[c](-[c]2[c]([H])[n][s][c]2[O][C]2([H])[C]([H])([H])[C]([H])([H])[C]([H])([H])[C]2([H])[H])[c]([H])[c]1[H]

$$$$
