
     RDKit          3D

 39 41  0  0  0  0  0  0  0  0999 V2000
    7.0235   -4.3582   20.8839 C   0  0  0  0  0  0  0  0  0  0  0  0
    6.4765   -3.0907   20.4935 O   0  0  0  0  0  0  0  0  0  0  0  0
    6.5912   -2.0599   21.4939 C   0  0  0  0  0  0  0  0  0  0  0  0
    7.3577   -0.8149   20.9902 C   0  0  2  0  0  0  0  0  0  0  0  0
    7.5380    0.1006   22.1151 N   0  0  0  0  0  0  0  0  0  0  0  0
    8.3432    1.2293   22.1060 C   0  0  0  0  0  0  0  0  0  0  0  0
    9.0444    1.4495   21.1236 O   0  0  0  0  0  0  0  0  0  0  0  0
    8.3626    2.1382   23.2874 C   0  0  0  0  0  0  0  0  0  0  0  0
    7.5911    2.0417   24.4374 C   0  0  0  0  0  0  0  0  0  0  0  0
    7.9408    3.1383   25.3238 C   0  0  0  0  0  0  0  0  0  0  0  0
    8.9332    3.8713   24.6873 C   0  0  0  0  0  0  0  0  0  0  0  0
    9.1778    3.2673   23.4588 N   0  0  0  0  0  0  0  0  0  0  0  0
    9.8505    3.6213   22.7742 H   0  0  0  0  0  0  0  0  0  0  0  0
    9.4942    5.0002   25.2922 C   0  0  0  0  0  0  0  0  0  0  0  0
   10.4707    5.6969   24.6628 F   0  0  0  0  0  0  0  0  0  0  0  0
    9.0294    5.3941   26.5578 C   0  0  0  0  0  0  0  0  0  0  0  0
    9.7667    6.9253   27.4325 Br  0  0  0  0  0  0  0  0  0  0  0  0
    8.0139    4.6620   27.1926 C   0  0  0  0  0  0  0  0  0  0  0  0
    7.4688    3.5243   26.5817 C   0  0  0  0  0  0  0  0  0  0  0  0
    6.6887    2.9513   27.0745 H   0  0  0  0  0  0  0  0  0  0  0  0
    7.6535    4.9777   28.1667 H   0  0  0  0  0  0  0  0  0  0  0  0
    6.8415    1.2887   24.6662 H   0  0  0  0  0  0  0  0  0  0  0  0
    6.9001    0.0085   22.8986 H   0  0  0  0  0  0  0  0  0  0  0  0
    6.6257   -0.0542   19.9001 C   0  0  0  0  0  0  0  0  0  0  0  0
    5.4148    0.6090   20.1394 C   0  0  0  0  0  0  0  0  0  0  0  0
    4.8181    1.2949   19.0816 C   0  0  0  0  0  0  0  0  0  0  0  0
    5.4280    1.3063   17.8237 C   0  0  0  0  0  0  0  0  0  0  0  0
    6.5936    0.6822   17.5890 N   0  0  0  0  0  0  0  0  0  0  0  0
    7.1774    0.0299   18.6099 C   0  0  0  0  0  0  0  0  0  0  0  0
    8.1287   -0.4532   18.4136 H   0  0  0  0  0  0  0  0  0  0  0  0
    4.9470    1.8383   17.0082 H   0  0  0  0  0  0  0  0  0  0  0  0
    3.8940    1.8444   19.2171 H   0  0  0  0  0  0  0  0  0  0  0  0
    4.9589    0.6167   21.1288 H   0  0  0  0  0  0  0  0  0  0  0  0
    8.3276   -1.1714   20.6216 H   0  0  0  0  0  0  0  0  0  0  0  0
    7.0992   -2.4639   22.3752 H   0  0  0  0  0  0  0  0  0  0  0  0
    5.5963   -1.7501   21.8166 H   0  0  0  0  0  0  0  0  0  0  0  0
    6.6731   -5.1444   20.2001 H   0  0  0  0  0  0  0  0  0  0  0  0
    6.7144   -4.6192   21.9047 H   0  0  0  0  0  0  0  0  0  0  0  0
    8.1192   -4.3027   20.8374 H   0  0  0  0  0  0  0  0  0  0  0  0
  1  2  1  0
  2  3  1  0
  3  4  1  0
  4  5  1  0
  5  6  1  0
  6  7  2  0
  6  8  1  0
  8  9  2  0
  9 10  1  0
 10 11  2  0
 11 12  1  0
 12 13  1  0
 11 14  1  0
 14 15  1  0
 14 16  2  0
 16 17  1  0
 16 18  1  0
 18 19  2  0
 19 20  1  0
 18 21  1  0
  9 22  1  0
  5 23  1  0
  4 24  1  0
 24 25  2  0
 25 26  1  0
 26 27  2  0
 27 28  1  0
 28 29  2  0
 29 30  1  0
 27 31  1  0
 26 32  1  0
 25 33  1  0
  4 34  1  6
  3 35  1  0
  3 36  1  0
  1 37  1  0
  1 38  1  0
  1 39  1  0
 12  8  1  0
 29 24  1  0
 19 10  1  0
M  END
>  <plip>  (1) 
-0.21428571428571427

>  <filename>  (1) 
[H][c]1[n][c]([H])[c]([C@@]([H])([N]([H])[C](=[O])[c]2[c]([H])[c]3[c]([H])[c]([H])[c]([Br])[c]([F])[c]3[n]2[H])[C]([H])([H])[O][C]([H])([H])[H])[c]([H])[c]1[H]

$$$$
