
     RDKit          3D

 34 36  0  0  0  0  0  0  0  0999 V2000
    4.9964    1.7717   16.9316 H   0  0  0  0  0  0  0  0  0  0  0  0
    5.4322    1.3002   17.8113 C   0  0  0  0  0  0  0  0  0  0  0  0
    6.6111    0.6884   17.6282 N   0  0  0  0  0  0  0  0  0  0  0  0
    7.1818    0.1217   18.7001 C   0  0  0  0  0  0  0  0  0  0  0  0
    8.1545   -0.3430   18.5350 H   0  0  0  0  0  0  0  0  0  0  0  0
    6.6082    0.0954   19.9796 C   0  0  0  0  0  0  0  0  0  0  0  0
    7.3250   -0.6118   21.0994 C   0  0  2  0  0  0  0  0  0  0  0  0
    6.8362   -0.3647   22.0565 H   0  0  0  0  0  0  0  0  0  0  0  0
    8.7522   -0.2445   21.1372 N   0  0  0  0  0  0  0  0  0  0  0  0
    9.3771    1.2236   21.5452 S   0  0  0  0  0  0  0  0  0  0  0  0
    8.4334    2.1889   21.0226 O   0  0  0  0  0  0  0  0  0  0  0  0
   10.7653    1.2591   21.1639 O   0  0  0  0  0  0  0  0  0  0  0  0
    9.2243    1.1761   23.3211 C   0  0  0  0  0  0  0  0  0  0  0  0
    7.9992    1.5757   23.8711 C   0  0  0  0  0  0  0  0  0  0  0  0
    7.2323    2.0602   23.2671 H   0  0  0  0  0  0  0  0  0  0  0  0
    7.7435    1.3592   25.2248 C   0  0  0  0  0  0  0  0  0  0  0  0
    6.7901    1.6389   25.6603 H   0  0  0  0  0  0  0  0  0  0  0  0
    8.7331    0.7816   26.0244 C   0  0  0  0  0  0  0  0  0  0  0  0
    8.3763    0.4122   27.6882 Cl  0  0  0  0  0  0  0  0  0  0  0  0
    9.9945    0.4800   25.4993 C   0  0  0  0  0  0  0  0  0  0  0  0
   10.7835    0.1269   26.1565 H   0  0  0  0  0  0  0  0  0  0  0  0
   10.2469    0.6721   24.1349 C   0  0  0  0  0  0  0  0  0  0  0  0
   11.2199    0.4115   23.7198 H   0  0  0  0  0  0  0  0  0  0  0  0
    9.5872   -1.3104   21.3449 C   0  0  0  0  0  0  0  0  0  0  0  0
   10.7594   -1.2982   21.6170 O   0  0  0  0  0  0  0  0  0  0  0  0
    8.8252   -2.4241   21.1934 N   0  0  0  0  0  0  0  0  0  0  0  0
    9.3463   -3.2296   20.9036 H   0  0  0  0  0  0  0  0  0  0  0  0
    7.4133   -2.1701   20.9725 C   0  0  0  0  0  0  0  0  0  0  0  0
    7.0490   -2.5164   19.9973 H   0  0  0  0  0  0  0  0  0  0  0  0
    6.8066   -2.6731   21.7342 H   0  0  0  0  0  0  0  0  0  0  0  0
    5.3722    0.7386   20.1483 C   0  0  0  0  0  0  0  0  0  0  0  0
    4.8866    0.7796   21.1256 H   0  0  0  0  0  0  0  0  0  0  0  0
    4.7731    1.3486   19.0421 C   0  0  0  0  0  0  0  0  0  0  0  0
    3.8275    1.8730   19.1203 H   0  0  0  0  0  0  0  0  0  0  0  0
  1  2  1  0
  2  3  2  0
  3  4  1  0
  4  5  1  0
  4  6  2  0
  6  7  1  0
  7  8  1  1
  7  9  1  0
  9 10  1  0
 10 11  2  0
 10 12  2  0
 10 13  1  0
 13 14  2  0
 14 15  1  0
 14 16  1  0
 16 17  1  0
 16 18  2  0
 18 19  1  0
 18 20  1  0
 20 21  1  0
 20 22  2  0
 22 23  1  0
  9 24  1  0
 24 25  2  0
 24 26  1  0
 26 27  1  0
 26 28  1  0
 28 29  1  0
 28 30  1  0
  6 31  1  0
 31 32  1  0
 31 33  2  0
 33 34  1  0
 33  2  1  0
 28  7  1  0
 22 13  1  0
M  END
>  <plip>  (1) 
-0.1

>  <filename>  (1) 
[H][c]1[n][c]([H])[c]([C@]2([H])[N]([S](=[O])(=[O])[c]3[c]([H])[c]([H])[c]([Cl])[c]([H])[c]3[H])[C](=[O])[N]([H])[C]2([H])[H])[c]([H])[c]1[H]

$$$$
