
     RDKit          3D

 28 29  0  0  0  0  0  0  0  0999 V2000
    5.0180    1.8082   17.0046 H   0  0  0  0  0  0  0  0  0  0  0  0
    5.4677    1.2743   17.8404 C   0  0  0  0  0  0  0  0  0  0  0  0
    6.6306    0.6570   17.5752 N   0  0  0  0  0  0  0  0  0  0  0  0
    7.2258    0.0157   18.5786 C   0  0  0  0  0  0  0  0  0  0  0  0
    8.1758   -0.4698   18.3574 H   0  0  0  0  0  0  0  0  0  0  0  0
    6.6953   -0.0722   19.8784 C   0  0  0  0  0  0  0  0  0  0  0  0
    7.4919   -0.7524   20.9338 C   0  0  0  0  0  0  0  0  0  0  0  0
    9.1149   -0.5611   21.0200 S   0  0  0  0  0  0  0  0  0  0  0  0
    6.7693   -1.6340   21.8934 C   0  0  0  0  0  0  0  0  0  0  0  0
    7.0730   -1.5936   23.2691 C   0  0  0  0  0  0  0  0  0  0  0  0
    7.8548   -0.9219   23.6129 H   0  0  0  0  0  0  0  0  0  0  0  0
    6.3909   -2.3969   24.1777 C   0  0  0  0  0  0  0  0  0  0  0  0
    6.6416   -2.3022   25.2341 H   0  0  0  0  0  0  0  0  0  0  0  0
    5.4173   -3.2940   23.6967 C   0  0  0  0  0  0  0  0  0  0  0  0
    4.4283   -4.2884   24.7667 S   0  0  0  0  0  0  0  0  0  0  0  0
    3.9634   -5.4446   24.0207 O   0  0  0  0  0  0  0  0  0  0  0  0
    3.5316   -3.5118   25.5995 O   0  0  0  0  0  0  0  0  0  0  0  0
    5.4898   -4.9121   25.8685 N   0  0  0  0  0  0  0  0  0  0  0  0
    4.8794   -4.7740   26.6712 H   0  0  0  0  0  0  0  0  0  0  0  0
    5.4232   -5.8803   25.5651 H   0  0  0  0  0  0  0  0  0  0  0  0
    5.1637   -3.4039   22.3190 C   0  0  0  0  0  0  0  0  0  0  0  0
    4.4641   -4.1502   21.9519 H   0  0  0  0  0  0  0  0  0  0  0  0
    5.8261   -2.5706   21.4279 C   0  0  0  0  0  0  0  0  0  0  0  0
    5.6180   -2.6381   20.3642 H   0  0  0  0  0  0  0  0  0  0  0  0
    5.4588    0.5453   20.1343 C   0  0  0  0  0  0  0  0  0  0  0  0
    4.9981    0.4850   21.1235 H   0  0  0  0  0  0  0  0  0  0  0  0
    4.8442    1.2427   19.0915 C   0  0  0  0  0  0  0  0  0  0  0  0
    3.9086    1.7728   19.2296 H   0  0  0  0  0  0  0  0  0  0  0  0
  1  2  1  0
  2  3  2  0
  3  4  1  0
  4  5  1  0
  4  6  2  0
  6  7  1  0
  7  8  2  0
  7  9  1  0
  9 10  2  0
 10 11  1  0
 10 12  1  0
 12 13  1  0
 12 14  2  0
 14 15  1  0
 15 16  2  0
 15 17  2  0
 15 18  1  0
 18 19  1  0
 18 20  1  0
 14 21  1  0
 21 22  1  0
 21 23  2  0
 23 24  1  0
  6 25  1  0
 25 26  1  0
 25 27  2  0
 27 28  1  0
 27  2  1  0
 23  9  1  0
M  END
>  <plip>  (1) 
-0.0

>  <filename>  (1) 
[H][c]1[n][c]([H])[c]([C](=[S])[c]2[c]([H])[c]([H])[c]([S](=[O])(=[O])[N]([H])[H])[c]([H])[c]2[H])[c]([H])[c]1[H]

$$$$
