
     RDKit          3D

 40 41  0  0  0  0  0  0  0  0999 V2000
    9.8021   -0.6136   27.6376 C   0  0  0  0  0  0  0  0  0  0  0  0
    9.1758   -0.0538   26.3948 C   0  0  0  0  0  0  0  0  0  0  0  0
    7.8862   -0.4201   25.9735 C   0  0  0  0  0  0  0  0  0  0  0  0
    7.3220    0.1782   24.8389 C   0  0  0  0  0  0  0  0  0  0  0  0
    8.0161    1.1586   24.1179 C   0  0  0  0  0  0  0  0  0  0  0  0
    7.4553    1.8715   22.9086 C   0  0  0  0  0  0  0  0  0  0  0  0
    7.2588    3.3669   23.1285 C   0  0  0  0  0  0  0  0  0  0  0  0
    6.7821    3.8247   22.2537 H   0  0  0  0  0  0  0  0  0  0  0  0
    8.2193    3.8587   23.2933 H   0  0  0  0  0  0  0  0  0  0  0  0
    6.6490    3.5580   24.0181 H   0  0  0  0  0  0  0  0  0  0  0  0
    8.4747    1.6843   21.7936 N   0  0  0  0  0  4  0  0  0  0  0  0
    8.6527    0.2355   21.3761 C   0  0  0  0  0  0  0  0  0  0  0  0
    7.4327   -0.6322   20.9189 C   0  0  0  0  0  0  0  0  0  0  0  0
    6.6521   -1.0121   21.9814 F   0  0  0  0  0  0  0  0  0  0  0  0
    8.0271   -1.7842   20.4755 F   0  0  0  0  0  0  0  0  0  0  0  0
    6.5834   -0.0392   19.8321 C   0  0  0  0  0  0  0  0  0  0  0  0
    5.3743    0.6262   20.0733 C   0  0  0  0  0  0  0  0  0  0  0  0
    4.7869    1.3235   19.0158 C   0  0  0  0  0  0  0  0  0  0  0  0
    5.4215    1.3200   17.7693 C   0  0  0  0  0  0  0  0  0  0  0  0
    6.5616    0.6582   17.5260 N   0  0  0  0  0  0  0  0  0  0  0  0
    7.1178   -0.0116   18.5390 C   0  0  0  0  0  0  0  0  0  0  0  0
    8.0364   -0.5528   18.3158 H   0  0  0  0  0  0  0  0  0  0  0  0
    4.9919    1.8600   16.9264 H   0  0  0  0  0  0  0  0  0  0  0  0
    3.8724    1.8882   19.1503 H   0  0  0  0  0  0  0  0  0  0  0  0
    4.9095    0.6100   21.0614 H   0  0  0  0  0  0  0  0  0  0  0  0
    9.0606   -0.3457   22.2103 H   0  0  0  0  0  0  0  0  0  0  0  0
    9.3553    0.1335   20.5441 H   0  0  0  0  0  0  0  0  0  0  0  0
    8.2288    2.3182   21.0012 H   0  0  0  0  0  0  0  0  0  0  0  0
    9.3497    2.0711   22.2444 H   0  0  0  0  0  0  0  0  0  0  0  0
    6.5142    1.3970   22.6115 H   0  0  0  0  0  0  0  0  0  0  0  0
    9.3157    1.4772   24.5284 C   0  0  0  0  0  0  0  0  0  0  0  0
   10.0351    2.3651   23.7563 O   0  0  0  0  0  0  0  0  0  0  0  0
   10.8973    2.4597   24.1844 H   0  0  0  0  0  0  0  0  0  0  0  0
    9.8810    0.9034   25.6555 C   0  0  0  0  0  0  0  0  0  0  0  0
   10.8739    1.2209   25.9671 H   0  0  0  0  0  0  0  0  0  0  0  0
    6.3299   -0.1215   24.4956 H   0  0  0  0  0  0  0  0  0  0  0  0
    7.3304   -1.1675   26.5379 H   0  0  0  0  0  0  0  0  0  0  0  0
    9.8866   -1.7041   27.6237 H   0  0  0  0  0  0  0  0  0  0  0  0
    9.2231   -0.3293   28.5199 H   0  0  0  0  0  0  0  0  0  0  0  0
   10.7950   -0.1826   27.7630 H   0  0  0  0  0  0  0  0  0  0  0  0
  1  2  1  0
  2  3  2  0
  3  4  1  0
  4  5  2  0
  5  6  1  0
  6  7  1  0
  7  8  1  0
  7  9  1  0
  7 10  1  0
  6 11  1  0
 11 12  1  0
 12 13  1  0
 13 14  1  0
 13 15  1  0
 13 16  1  0
 16 17  2  0
 17 18  1  0
 18 19  2  0
 19 20  1  0
 20 21  2  0
 21 22  1  0
 19 23  1  0
 18 24  1  0
 17 25  1  0
 12 26  1  0
 12 27  1  0
 11 28  1  0
 11 29  1  0
  6 30  1  0
  5 31  1  0
 31 32  1  0
 32 33  1  0
 31 34  2  0
 34 35  1  0
  4 36  1  0
  3 37  1  0
  1 38  1  0
  1 39  1  0
  1 40  1  0
 34  2  1  0
 21 16  1  0
M  CHG  1  11   1
M  END
>  <plip>  (1) 
-0.13333333333333333

>  <filename>  (1) 
[H][O][c]1[c]([H])[c]([C]([H])([H])[H])[c]([H])[c]([H])[c]1[C]([H])([C]([H])([H])[H])[N+]([H])([H])[C]([H])([H])[C]([F])([F])[c]1[c]([H])[n][c]([H])[c]([H])[c]1[H]

$$$$
