
     RDKit          3D

 28 28  0  0  0  0  0  0  0  0999 V2000
    7.3505   -6.0380   25.4967 H   0  0  0  0  0  0  0  0  0  0  0  0
    7.4719   -5.0736   25.5361 O   0  0  0  0  0  0  0  0  0  0  0  0
    8.4634   -4.9951   24.6396 C   0  0  0  0  0  0  0  0  0  0  0  0
    8.8560   -6.0179   24.1252 O   0  0  0  0  0  0  0  0  0  0  0  0
    8.9433   -3.5988   24.3812 C   0  0  0  0  0  0  0  0  0  0  0  0
    9.0207   -3.1173   25.3602 H   0  0  0  0  0  0  0  0  0  0  0  0
    9.9433   -3.6770   23.9407 H   0  0  0  0  0  0  0  0  0  0  0  0
    7.9897   -2.7938   23.4746 C   0  0  0  0  0  0  0  0  0  0  0  0
    6.9592   -2.8095   23.8621 H   0  0  0  0  0  0  0  0  0  0  0  0
    8.3232   -1.7488   23.4974 H   0  0  0  0  0  0  0  0  0  0  0  0
    7.9877   -3.3148   22.0379 C   0  0  0  0  0  0  0  0  0  0  0  0
    8.9750   -3.2597   21.5649 H   0  0  0  0  0  0  0  0  0  0  0  0
    7.6603   -4.3632   21.9999 H   0  0  0  0  0  0  0  0  0  0  0  0
    6.7902   -2.5058   20.9320 S   0  0  0  0  0  4  0  0  0  0  0  0
    5.4783   -2.5398   21.6592 O   0  0  0  0  0  0  0  0  0  0  0  0
    7.3885   -0.7637   20.9807 C   0  0  0  0  0  0  0  0  0  0  0  0
    7.1545   -0.3742   21.9756 H   0  0  0  0  0  0  0  0  0  0  0  0
    8.4729   -0.7659   20.8346 H   0  0  0  0  0  0  0  0  0  0  0  0
    6.6793    0.0223   19.9036 C   0  0  0  0  0  0  0  0  0  0  0  0
    7.1789    0.0750   18.5870 C   0  0  0  0  0  0  0  0  0  0  0  0
    8.1220   -0.4154   18.3408 H   0  0  0  0  0  0  0  0  0  0  0  0
    6.5606    0.6861   17.5692 N   0  0  0  0  0  0  0  0  0  0  0  0
    5.3965    1.2969   17.8338 C   0  0  0  0  0  0  0  0  0  0  0  0
    4.9189    1.7939   16.9904 H   0  0  0  0  0  0  0  0  0  0  0  0
    4.8060    1.3106   19.1016 C   0  0  0  0  0  0  0  0  0  0  0  0
    3.8710    1.8373   19.2498 H   0  0  0  0  0  0  0  0  0  0  0  0
    5.4557    0.6543   20.1495 C   0  0  0  0  0  0  0  0  0  0  0  0
    5.0117    0.6181   21.1464 H   0  0  0  0  0  0  0  0  0  0  0  0
  1  2  1  0
  2  3  1  0
  3  4  2  0
  3  5  1  0
  5  6  1  0
  5  7  1  0
  5  8  1  0
  8  9  1  0
  8 10  1  0
  8 11  1  0
 11 12  1  0
 11 13  1  0
 14 11  1  6
 14 15  2  0
 14 16  1  0
 16 17  1  0
 16 18  1  0
 16 19  1  0
 19 20  2  0
 20 21  1  0
 20 22  1  0
 22 23  2  0
 23 24  1  0
 23 25  1  0
 25 26  1  0
 25 27  2  0
 27 28  1  0
 27 19  1  0
M  END
>  <plip>  (1) 
-0.10714285714285714

>  <filename>  (1) 
[H][O][C](=[O])[C]([H])([H])[C]([H])([H])[C]([H])([H])[S@](=[O])[C]([H])([H])[c]1[c]([H])[n][c]([H])[c]([H])[c]1[H]

$$$$
