
     RDKit          3D

 31 31  0  0  0  0  0  0  0  0999 V2000
    4.9214    1.7921   16.9864 H   0  0  0  0  0  0  0  0  0  0  0  0
    5.3999    1.2975   17.8278 C   0  0  0  0  0  0  0  0  0  0  0  0
    6.5599    0.6759   17.5704 N   0  0  0  0  0  0  0  0  0  0  0  0
    7.1547    0.0415   18.5885 C   0  0  0  0  0  0  0  0  0  0  0  0
    8.1116   -0.4283   18.3643 H   0  0  0  0  0  0  0  0  0  0  0  0
    6.6326   -0.0293   19.8963 C   0  0  0  0  0  0  0  0  0  0  0  0
    7.4806   -0.8477   21.2293 S   0  0  0  0  0  0  0  0  0  0  0  0
    8.4555    0.5946   21.8550 C   0  0  1  0  0  0  0  0  0  0  0  0
    7.7989    1.4665   21.7310 H   0  0  0  0  0  0  0  0  0  0  0  0
    8.7757    0.3598   23.1912 O   0  0  0  0  0  0  0  0  0  0  0  0
    8.1101    1.1480   24.1934 C   0  0  0  0  0  0  0  0  0  0  0  0
    6.5889    0.9925   24.1052 C   0  0  0  0  0  0  0  0  0  0  0  0
    6.3215   -0.0657   24.0533 H   0  0  0  0  0  0  0  0  0  0  0  0
    6.1149    1.4350   24.9865 H   0  0  0  0  0  0  0  0  0  0  0  0
    6.1745    1.4834   23.2191 H   0  0  0  0  0  0  0  0  0  0  0  0
    8.5451    2.6109   24.0748 C   0  0  0  0  0  0  0  0  0  0  0  0
    8.2063    3.1794   24.9445 H   0  0  0  0  0  0  0  0  0  0  0  0
    8.1420    3.0904   23.1769 H   0  0  0  0  0  0  0  0  0  0  0  0
    9.6360    2.6744   24.0299 H   0  0  0  0  0  0  0  0  0  0  0  0
    8.6087    0.5662   25.5115 C   0  0  0  0  0  0  0  0  0  0  0  0
    8.3263   -0.4865   25.6103 H   0  0  0  0  0  0  0  0  0  0  0  0
    8.1699    1.1152   26.3493 H   0  0  0  0  0  0  0  0  0  0  0  0
    9.6972    0.6416   25.5934 H   0  0  0  0  0  0  0  0  0  0  0  0
    9.7167    0.8044   21.0422 C   0  0  0  0  0  0  0  0  0  0  0  0
   10.2893    1.6567   21.4373 H   0  0  0  0  0  0  0  0  0  0  0  0
    9.4336    0.9983   20.0059 H   0  0  0  0  0  0  0  0  0  0  0  0
   10.3415   -0.0930   21.0462 H   0  0  0  0  0  0  0  0  0  0  0  0
    5.4261    0.6382   20.1524 C   0  0  0  0  0  0  0  0  0  0  0  0
    5.0055    0.6288   21.1590 H   0  0  0  0  0  0  0  0  0  0  0  0
    4.8035    1.3113   19.0966 C   0  0  0  0  0  0  0  0  0  0  0  0
    3.8764    1.8438   19.2539 H   0  0  0  0  0  0  0  0  0  0  0  0
  1  2  1  0
  2  3  2  0
  3  4  1  0
  4  5  1  0
  4  6  2  0
  6  7  1  0
  7  8  1  0
  8  9  1  1
  8 10  1  0
 10 11  1  0
 11 12  1  0
 12 13  1  0
 12 14  1  0
 12 15  1  0
 11 16  1  0
 16 17  1  0
 16 18  1  0
 16 19  1  0
 11 20  1  0
 20 21  1  0
 20 22  1  0
 20 23  1  0
  8 24  1  0
 24 25  1  0
 24 26  1  0
 24 27  1  0
  6 28  1  0
 28 29  1  0
 28 30  2  0
 30 31  1  0
 30  2  1  0
M  END
>  <plip>  (1) 
-0.03571428571428571

>  <filename>  (1) 
[H][c]1[n][c]([H])[c]([S][C@@]([H])([O][C]([C]([H])([H])[H])([C]([H])([H])[H])[C]([H])([H])[H])[C]([H])([H])[H])[c]([H])[c]1[H]

$$$$
