
     RDKit          3D

 26 27  0  0  0  0  0  0  0  0999 V2000
    5.0111    1.9254   16.7789 H   0  0  0  0  0  0  0  0  0  0  0  0
    5.4908    1.4686   17.6399 C   0  0  0  0  0  0  0  0  0  0  0  0
    6.6727    0.8710   17.4098 N   0  0  0  0  0  0  0  0  0  0  0  0
    7.2805    0.2899   18.4512 C   0  0  0  0  0  0  0  0  0  0  0  0
    8.2362   -0.1994   18.2611 H   0  0  0  0  0  0  0  0  0  0  0  0
    6.7380    0.2577   19.7478 C   0  0  0  0  0  0  0  0  0  0  0  0
    7.5098   -0.6820   21.0254 S   0  0  0  0  0  0  0  0  0  0  0  0
    6.4005   -2.1360   20.9617 C   0  0  0  0  0  0  0  0  0  0  0  0
    6.3094   -2.4816   19.9230 H   0  0  0  0  0  0  0  0  0  0  0  0
    5.3955   -1.8390   21.3039 H   0  0  0  0  0  0  0  0  0  0  0  0
    7.0256   -3.1113   21.7996 N   0  0  0  0  0  0  0  0  0  0  0  0
    7.7291   -2.7336   22.4093 H   0  0  0  0  0  0  0  0  0  0  0  0
    6.9892   -4.4610   21.7010 C   0  0  0  0  0  0  0  0  0  0  0  0
    6.0653   -5.1503   20.9121 C   0  0  0  0  0  0  0  0  0  0  0  0
    5.4676   -4.6371   20.1755 H   0  0  0  0  0  0  0  0  0  0  0  0
    5.9812   -6.5218   21.0901 C   0  0  0  0  0  0  0  0  0  0  0  0
    5.2138   -7.0825   20.5647 H   0  0  0  0  0  0  0  0  0  0  0  0
    6.8077   -7.2554   21.8495 N   0  0  0  0  0  0  0  0  0  0  0  0
    7.7708   -6.5832   22.4911 C   0  0  0  0  0  0  0  0  0  0  0  0
    8.4824   -7.1884   23.0542 H   0  0  0  0  0  0  0  0  0  0  0  0
    7.9001   -5.2060   22.4598 C   0  0  0  0  0  0  0  0  0  0  0  0
    8.6913   -4.6942   22.9862 H   0  0  0  0  0  0  0  0  0  0  0  0
    5.5097    0.8929   19.9763 C   0  0  0  0  0  0  0  0  0  0  0  0
    5.0714    0.8840   20.9753 H   0  0  0  0  0  0  0  0  0  0  0  0
    4.8759    1.5086   18.8975 C   0  0  0  0  0  0  0  0  0  0  0  0
    3.9250    2.0135   19.0209 H   0  0  0  0  0  0  0  0  0  0  0  0
  1  2  1  0
  2  3  2  0
  3  4  1  0
  4  5  1  0
  4  6  2  0
  6  7  1  0
  7  8  1  0
  8  9  1  0
  8 10  1  0
  8 11  1  0
 11 12  1  0
 11 13  1  0
 13 14  2  0
 14 15  1  0
 14 16  1  0
 16 17  1  0
 16 18  2  0
 18 19  1  0
 19 20  1  0
 19 21  2  0
 21 22  1  0
  6 23  1  0
 23 24  1  0
 23 25  2  0
 25 26  1  0
 25  2  1  0
 21 13  1  0
M  END
>  <plip>  (1) 
-0.034482758620689655

>  <filename>  (1) 
[H][c]1[n][c]([H])[c]([S][C]([H])([H])[N]([H])[c]2[c]([H])[c]([H])[n][c]([H])[c]2[H])[c]([H])[c]1[H]

$$$$
