
     RDKit          3D

 34 36  0  0  0  0  0  0  0  0999 V2000
    8.0962    0.1711   24.5352 H   0  0  0  0  0  0  0  0  0  0  0  0
    8.4347   -0.7825   24.3858 N   0  0  0  0  0  0  0  0  0  0  0  0
    8.0825   -1.0537   23.1942 C   0  0  0  0  0  0  0  0  0  0  0  0
    8.3384   -2.6067   22.4048 S   0  0  0  0  0  0  0  0  0  0  0  0
    7.5167   -2.0526   20.9820 C   0  0  0  0  0  0  0  0  0  0  0  0
    7.2575   -2.7437   20.1985 H   0  0  0  0  0  0  0  0  0  0  0  0
    7.1687   -0.7574   21.0390 C   0  0  0  0  0  0  0  0  0  0  0  0
    6.5377    0.0261   19.9553 C   0  0  0  0  0  0  0  0  0  0  0  0
    7.1153    0.0640   18.6743 C   0  0  0  0  0  0  0  0  0  0  0  0
    8.0745   -0.4197   18.4856 H   0  0  0  0  0  0  0  0  0  0  0  0
    6.5738    0.6927   17.6241 N   0  0  0  0  0  0  0  0  0  0  0  0
    5.4074    1.3297   17.8171 C   0  0  0  0  0  0  0  0  0  0  0  0
    4.9674    1.8110   16.9456 H   0  0  0  0  0  0  0  0  0  0  0  0
    4.7599    1.3737   19.0575 C   0  0  0  0  0  0  0  0  0  0  0  0
    3.8206    1.9075   19.1528 H   0  0  0  0  0  0  0  0  0  0  0  0
    5.3432    0.7363   20.1484 C   0  0  0  0  0  0  0  0  0  0  0  0
    4.9092    0.7837   21.1461 H   0  0  0  0  0  0  0  0  0  0  0  0
    7.4564   -0.2015   22.2822 N   0  0  0  0  0  0  0  0  0  0  0  0
    7.2168    1.1194   22.6191 O   0  0  0  0  0  0  0  0  0  0  0  0
    8.1260    2.0354   21.9499 C   0  0  0  0  0  0  0  0  0  0  0  0
    7.8129    2.1516   20.9068 H   0  0  0  0  0  0  0  0  0  0  0  0
    7.9772    2.9848   22.4747 H   0  0  0  0  0  0  0  0  0  0  0  0
    9.5911    1.5905   21.9962 C   0  0  1  0  0  0  0  0  0  0  0  0
    9.6546    0.5684   21.6081 H   0  0  0  0  0  0  0  0  0  0  0  0
   10.3629    2.4065   21.1290 O   0  0  0  0  0  0  0  0  0  0  0  0
   11.2559    3.1874   21.9064 C   0  0  0  0  0  0  0  0  0  0  0  0
   12.0834    3.4961   21.2620 H   0  0  0  0  0  0  0  0  0  0  0  0
   10.7439    4.0871   22.2865 H   0  0  0  0  0  0  0  0  0  0  0  0
   11.6218    2.2895   23.0749 C   0  0  0  0  0  0  0  0  0  0  0  0
   12.3180    1.5084   22.7648 H   0  0  0  0  0  0  0  0  0  0  0  0
   12.0590    2.8312   23.9161 H   0  0  0  0  0  0  0  0  0  0  0  0
   10.2620    1.6639   23.3860 C   0  0  0  0  0  0  0  0  0  0  0  0
    9.7062    2.3155   24.0706 H   0  0  0  0  0  0  0  0  0  0  0  0
   10.3147    0.6769   23.8479 H   0  0  0  0  0  0  0  0  0  0  0  0
  1  2  1  0
  2  3  2  3
  3  4  1  0
  4  5  1  0
  5  6  1  0
  5  7  2  0
  7  8  1  0
  8  9  2  0
  9 10  1  0
  9 11  1  0
 11 12  2  0
 12 13  1  0
 12 14  1  0
 14 15  1  0
 14 16  2  0
 16 17  1  0
  7 18  1  0
 18 19  1  0
 19 20  1  0
 20 21  1  0
 20 22  1  0
 20 23  1  0
 23 24  1  6
 23 25  1  0
 25 26  1  0
 26 27  1  0
 26 28  1  0
 26 29  1  0
 29 30  1  0
 29 31  1  0
 29 32  1  0
 32 33  1  0
 32 34  1  0
 18  3  1  0
 32 23  1  0
 16  8  1  0
M  END
>  <plip>  (1) 
-0.07142857142857142

>  <filename>  (1) 
[H][N]=[c]1[s][c]([H])[c](-[c]2[c]([H])[n][c]([H])[c]([H])[c]2[H])[n]1[O][C]([H])([H])[C@@]1([H])[O][C]([H])([H])[C]([H])([H])[C]1([H])[H]

$$$$
