
     RDKit          3D

 34 36  0  0  0  0  0  0  0  0999 V2000
    4.9134    1.8174   16.9683 H   0  0  0  0  0  0  0  0  0  0  0  0
    5.3847    1.3271   17.8176 C   0  0  0  0  0  0  0  0  0  0  0  0
    6.5498    0.7095   17.5697 N   0  0  0  0  0  0  0  0  0  0  0  0
    7.1528    0.1046   18.6022 C   0  0  0  0  0  0  0  0  0  0  0  0
    8.1003   -0.3778   18.3673 H   0  0  0  0  0  0  0  0  0  0  0  0
    6.6507    0.0696   19.9280 C   0  0  0  0  0  0  0  0  0  0  0  0
    7.3546   -0.6913   20.9974 C   0  0  0  0  0  0  0  0  0  0  0  0
    7.7123   -2.0191   21.0575 C   0  0  0  0  0  0  0  0  0  0  0  0
    7.4803   -2.7948   20.3445 H   0  0  0  0  0  0  0  0  0  0  0  0
    8.3699   -2.3121   22.2210 N   0  0  0  0  0  0  0  0  0  0  0  0
    8.4019   -1.1823   22.8838 C   0  0  0  0  0  0  0  0  0  0  0  0
    8.8133   -1.0461   23.8798 H   0  0  0  0  0  0  0  0  0  0  0  0
    7.7921   -0.1608   22.2065 N   0  0  0  0  0  0  0  0  0  0  0  0
    7.4886    1.1412   22.7868 C   0  0  0  0  0  0  0  0  0  0  0  0
    7.1425    1.8051   21.9924 H   0  0  0  0  0  0  0  0  0  0  0  0
    8.3976    1.5872   23.2027 H   0  0  0  0  0  0  0  0  0  0  0  0
    6.4086    1.0489   23.8782 C   0  0  0  0  0  0  0  0  0  0  0  0
    6.7334    0.4374   24.7262 H   0  0  0  0  0  0  0  0  0  0  0  0
    5.5138    0.5785   23.4661 H   0  0  0  0  0  0  0  0  0  0  0  0
    6.0398    2.3501   24.3777 N   0  0  0  0  0  0  0  0  0  0  0  0
    6.7431    2.9676   25.4058 N   0  0  0  0  0  0  0  0  0  0  0  0
    6.2148    4.1401   25.4152 C   0  0  0  0  0  0  0  0  0  0  0  0
    6.4749    5.1590   26.2104 O   0  0  0  0  0  0  0  0  0  0  0  0
    7.4926    4.9549   27.2075 C   0  0  0  0  0  0  0  0  0  0  0  0
    7.2301    4.1361   27.8846 H   0  0  0  0  0  0  0  0  0  0  0  0
    8.4617    4.7382   26.7477 H   0  0  0  0  0  0  0  0  0  0  0  0
    7.5527    5.8892   27.7672 H   0  0  0  0  0  0  0  0  0  0  0  0
    5.2662    4.3832   24.5034 O   0  0  0  0  0  0  0  0  0  0  0  0
    5.1470    3.1963   23.8015 C   0  0  0  0  0  0  0  0  0  0  0  0
    4.3822    3.0028   22.8951 O   0  0  0  0  0  0  0  0  0  0  0  0
    5.4233    0.7226   20.1465 C   0  0  0  0  0  0  0  0  0  0  0  0
    4.9732    0.7300   21.1414 H   0  0  0  0  0  0  0  0  0  0  0  0
    4.7808    1.3541   19.0786 C   0  0  0  0  0  0  0  0  0  0  0  0
    3.8367    1.8698   19.2154 H   0  0  0  0  0  0  0  0  0  0  0  0
  1  2  1  0
  2  3  2  0
  3  4  1  0
  4  5  1  0
  4  6  2  0
  6  7  1  0
  7  8  2  0
  8  9  1  0
  8 10  1  0
 10 11  2  0
 11 12  1  0
 11 13  1  0
 13 14  1  0
 14 15  1  0
 14 16  1  0
 14 17  1  0
 17 18  1  0
 17 19  1  0
 17 20  1  0
 20 21  1  0
 21 22  2  0
 22 23  1  0
 23 24  1  0
 24 25  1  0
 24 26  1  0
 24 27  1  0
 22 28  1  0
 28 29  1  0
 29 30  2  0
  6 31  1  0
 31 32  1  0
 31 33  2  0
 33 34  1  0
 33  2  1  0
 13  7  1  0
 29 20  1  0
M  END
>  <plip>  (1) 
-0.06896551724137931

>  <filename>  (1) 
[H][c]1[n][c]([H])[c](-[c]2[c]([H])[n][c]([H])[n]2[C]([H])([H])[C]([H])([H])[n]2[n][c]([O][C]([H])([H])[H])[o][c]2=[O])[c]([H])[c]1[H]

$$$$
