
     RDKit          3D

 31 32  0  0  0  0  0  0  0  0999 V2000
    4.9417    1.8088   16.9801 H   0  0  0  0  0  0  0  0  0  0  0  0
    5.4006    1.3002   17.8288 C   0  0  0  0  0  0  0  0  0  0  0  0
    6.5625    0.6733   17.5815 N   0  0  0  0  0  0  0  0  0  0  0  0
    7.1680    0.0577   18.6033 C   0  0  0  0  0  0  0  0  0  0  0  0
    8.1153   -0.4225   18.3613 H   0  0  0  0  0  0  0  0  0  0  0  0
    6.6687    0.0260   19.9260 C   0  0  0  0  0  0  0  0  0  0  0  0
    7.3897   -0.6542   21.0391 C   0  0  0  0  0  0  0  0  0  0  0  0
    7.8790   -2.3054   20.8054 S   0  0  0  0  0  0  0  0  0  0  0  0
    8.5659   -2.5846   22.7103 S   0  0  0  0  0  0  0  0  0  0  0  0
    8.1363   -1.0276   23.3331 C   0  0  0  0  0  0  0  0  0  0  0  0
    8.3927   -0.7611   24.9442 S   0  0  0  0  0  0  0  0  0  0  0  0
    7.5664   -0.1409   22.3087 C   0  0  0  0  0  0  0  0  0  0  0  0
    7.1231    1.1353   22.6557 N   0  0  0  0  0  0  0  0  0  0  0  0
    7.0679    1.2543   23.6617 H   0  0  0  0  0  0  0  0  0  0  0  0
    7.6439    2.3043   21.9393 C   0  0  0  0  0  0  0  0  0  0  0  0
    6.8297    3.0364   21.8579 H   0  0  0  0  0  0  0  0  0  0  0  0
    7.8959    2.0378   20.9026 H   0  0  0  0  0  0  0  0  0  0  0  0
    8.8549    2.9609   22.6216 C   0  0  0  0  0  0  0  0  0  0  0  0
    9.0489    3.9153   22.1092 H   0  0  0  0  0  0  0  0  0  0  0  0
    8.5768    3.2337   23.6514 H   0  0  0  0  0  0  0  0  0  0  0  0
   10.1554    2.1357   22.6467 C   0  0  0  0  0  0  0  0  0  0  0  0
    9.9982    1.2093   23.2177 H   0  0  0  0  0  0  0  0  0  0  0  0
   10.9100    2.6991   23.2144 H   0  0  0  0  0  0  0  0  0  0  0  0
   10.7074    1.7970   21.2565 C   0  0  0  0  0  0  0  0  0  0  0  0
   10.0426    1.1101   20.7170 H   0  0  0  0  0  0  0  0  0  0  0  0
   10.8354    2.6957   20.6397 H   0  0  0  0  0  0  0  0  0  0  0  0
   11.6874    1.3117   21.3278 H   0  0  0  0  0  0  0  0  0  0  0  0
    5.4357    0.6795   20.1526 C   0  0  0  0  0  0  0  0  0  0  0  0
    4.9919    0.6759   21.1457 H   0  0  0  0  0  0  0  0  0  0  0  0
    4.7968    1.3202   19.0862 C   0  0  0  0  0  0  0  0  0  0  0  0
    3.8545    1.8466   19.2169 H   0  0  0  0  0  0  0  0  0  0  0  0
  1  2  1  0
  2  3  2  0
  3  4  1  0
  4  5  1  0
  4  6  2  0
  6  7  1  0
  7  8  1  0
  8  9  1  0
  9 10  1  0
 10 11  2  0
 10 12  1  0
 12 13  1  0
 13 14  1  0
 13 15  1  0
 15 16  1  0
 15 17  1  0
 15 18  1  0
 18 19  1  0
 18 20  1  0
 18 21  1  0
 21 22  1  0
 21 23  1  0
 21 24  1  0
 24 25  1  0
 24 26  1  0
 24 27  1  0
  6 28  1  0
 28 29  1  0
 28 30  2  0
 30 31  1  0
 30  2  1  0
 12  7  2  0
M  END
>  <plip>  (1) 
-0.07142857142857142

>  <filename>  (1) 
[H][c]1[n][c]([H])[c](-[c]2[s][s][c](=[S])[c]2[N]([H])[C]([H])([H])[C]([H])([H])[C]([H])([H])[C]([H])([H])[H])[c]([H])[c]1[H]

$$$$
