
     RDKit          3D

 37 39  0  0  0  0  0  0  0  0999 V2000
    8.8356   -5.6659   27.4096 O   0  0  0  0  0  0  0  0  0  0  0  0
    8.2231   -5.5888   26.1187 C   0  0  0  0  0  0  0  0  0  0  0  0
    8.6748   -4.4554   25.1837 C   0  0  0  0  0  0  0  0  0  0  0  0
    9.8448   -4.6125   24.4271 C   0  0  0  0  0  0  0  0  0  0  0  0
   10.2497   -3.5885   23.5752 C   0  0  0  0  0  0  0  0  0  0  0  0
    9.4506   -2.4612   23.4423 C   0  0  0  0  0  0  0  0  0  0  0  0
    8.3137   -2.3831   24.2496 C   0  0  0  0  0  0  0  0  0  0  0  0
    7.4460   -1.3142   24.3189 N   0  0  0  0  0  0  0  0  0  0  0  0
    6.8578   -0.7112   23.1378 C   0  0  1  0  0  0  0  0  0  0  0  0
    7.7484    0.1770   22.2398 C   0  0  0  0  0  0  0  0  0  0  0  0
    7.4020   -0.6942   21.0141 C   0  0  2  0  0  0  0  0  0  0  0  0
    8.5677   -1.3472   20.5615 O   0  0  0  0  0  0  0  0  0  0  0  0
    8.2535   -2.0923   20.0322 H   0  0  0  0  0  0  0  0  0  0  0  0
    6.6605   -0.0041   19.9000 C   0  0  0  0  0  0  0  0  0  0  0  0
    5.4412    0.6539   20.1298 C   0  0  0  0  0  0  0  0  0  0  0  0
    4.8182    1.3076   19.0703 C   0  0  0  0  0  0  0  0  0  0  0  0
    5.4272    1.2905   17.8098 C   0  0  0  0  0  0  0  0  0  0  0  0
    6.5884    0.6647   17.5678 N   0  0  0  0  0  0  0  0  0  0  0  0
    7.1787    0.0435   18.5956 C   0  0  0  0  0  0  0  0  0  0  0  0
    8.1287   -0.4347   18.3731 H   0  0  0  0  0  0  0  0  0  0  0  0
    4.9662    1.7982   16.9645 H   0  0  0  0  0  0  0  0  0  0  0  0
    3.8834    1.8365   19.2035 H   0  0  0  0  0  0  0  0  0  0  0  0
    4.9911    0.6588   21.1263 H   0  0  0  0  0  0  0  0  0  0  0  0
    6.5464   -1.6183   21.9162 C   0  0  0  0  0  0  0  0  0  0  0  0
    6.9775   -2.6170   22.0283 H   0  0  0  0  0  0  0  0  0  0  0  0
    5.4962   -1.7169   21.6450 H   0  0  0  0  0  0  0  0  0  0  0  0
    8.8066    0.1644   22.5011 H   0  0  0  0  0  0  0  0  0  0  0  0
    7.4282    1.2211   22.1775 H   0  0  0  0  0  0  0  0  0  0  0  0
    5.9865   -0.1481   23.5009 H   0  0  0  0  0  0  0  0  0  0  0  0
    6.7704   -1.7139   24.9670 H   0  0  0  0  0  0  0  0  0  0  0  0
    7.9211   -3.3511   25.0834 N   0  0  0  0  0  0  0  0  0  0  0  0
    9.6246   -1.7095   22.6892 H   0  0  0  0  0  0  0  0  0  0  0  0
   11.1855   -3.6657   23.0231 H   0  0  0  0  0  0  0  0  0  0  0  0
   10.4292   -5.5164   24.5277 H   0  0  0  0  0  0  0  0  0  0  0  0
    7.1527   -5.4587   26.3026 H   0  0  0  0  0  0  0  0  0  0  0  0
    8.3550   -6.5356   25.5738 H   0  0  0  0  0  0  0  0  0  0  0  0
    9.7302   -6.0362   27.3412 H   0  0  0  0  0  0  0  0  0  0  0  0
  1  2  1  0
  2  3  1  0
  3  4  2  0
  4  5  1  0
  5  6  2  0
  6  7  1  0
  7  8  1  0
  8  9  1  0
  9 10  1  0
 10 11  1  0
 11 12  1  6
 12 13  1  0
 11 14  1  0
 14 15  2  0
 15 16  1  0
 16 17  2  0
 17 18  1  0
 18 19  2  0
 19 20  1  0
 17 21  1  0
 16 22  1  0
 15 23  1  0
 11 24  1  0
 24 25  1  0
 24 26  1  0
 10 27  1  0
 10 28  1  0
  9 29  1  1
  8 30  1  0
  7 31  2  0
  6 32  1  0
  5 33  1  0
  4 34  1  0
  2 35  1  0
  2 36  1  0
  1 37  1  0
 31  3  1  0
 24  9  1  0
 19 14  1  0
M  END
>  <plip>  (1) 
-0.14285714285714285

>  <filename>  (1) 
[H][O][C]([H])([H])[c]1[n][c]([N]([H])[C@]2([H])[C]([H])([H])[C@@]([O][H])([c]3[c]([H])[n][c]([H])[c]([H])[c]3[H])[C]2([H])[H])[c]([H])[c]([H])[c]1[H]

$$$$
