
     RDKit          3D

 29 31  0  0  0  0  0  0  0  0999 V2000
    5.2815    3.2642   25.9674 H   0  0  0  0  0  0  0  0  0  0  0  0
    5.3588    2.2469   25.5968 C   0  0  0  0  0  0  0  0  0  0  0  0
    6.0927    2.0767   24.4920 N   0  0  0  0  0  0  0  0  0  0  0  0
    6.1947    0.8311   24.0246 C   0  0  0  0  0  0  0  0  0  0  0  0
    6.8618    0.8431   22.8117 N   0  0  0  0  0  0  0  0  0  0  0  0
    7.2992    1.7616   22.7913 H   0  0  0  0  0  0  0  0  0  0  0  0
    7.5096   -0.2625   22.2582 N   0  0  0  0  0  0  0  0  0  0  0  0
    7.4125   -0.6727   20.9249 C   0  0  0  0  0  0  0  0  0  0  0  0
    6.6243    0.0237   19.8990 C   0  0  0  0  0  0  0  0  0  0  0  0
    7.1376    0.0322   18.5932 C   0  0  0  0  0  0  0  0  0  0  0  0
    8.0699   -0.4866   18.3819 H   0  0  0  0  0  0  0  0  0  0  0  0
    6.5534    0.6608   17.5687 N   0  0  0  0  0  0  0  0  0  0  0  0
    5.4020    1.3008   17.8182 C   0  0  0  0  0  0  0  0  0  0  0  0
    4.9503    1.8165   16.9725 H   0  0  0  0  0  0  0  0  0  0  0  0
    4.7883    1.3291   19.0771 C   0  0  0  0  0  0  0  0  0  0  0  0
    3.8526    1.8639   19.2018 H   0  0  0  0  0  0  0  0  0  0  0  0
    5.4126    0.6910   20.1479 C   0  0  0  0  0  0  0  0  0  0  0  0
    4.9824    0.7172   21.1523 H   0  0  0  0  0  0  0  0  0  0  0  0
    8.1358   -1.7346   20.7116 N   0  0  0  0  0  0  0  0  0  0  0  0
    8.6577   -2.0263   21.9323 N   0  0  0  0  0  0  0  0  0  0  0  0
    9.2741   -2.8063   22.1170 H   0  0  0  0  0  0  0  0  0  0  0  0
    8.3320   -1.1812   22.9184 C   0  0  0  0  0  0  0  0  0  0  0  0
    8.8215   -1.3298   24.5021 S   0  0  0  0  0  0  0  0  0  0  0  0
    5.6695   -0.2965   24.6681 C   0  0  0  0  0  0  0  0  0  0  0  0
    5.9020   -1.2784   24.2828 H   0  0  0  0  0  0  0  0  0  0  0  0
    4.8569   -0.0898   25.7716 C   0  0  0  0  0  0  0  0  0  0  0  0
    4.3511   -0.9353   26.2335 H   0  0  0  0  0  0  0  0  0  0  0  0
    4.6972    1.2125   26.2538 C   0  0  0  0  0  0  0  0  0  0  0  0
    4.0639    1.4163   27.1066 H   0  0  0  0  0  0  0  0  0  0  0  0
  1  2  1  0
  2  3  2  0
  3  4  1  0
  4  5  1  0
  5  6  1  0
  5  7  1  0
  7  8  1  0
  8  9  1  0
  9 10  2  0
 10 11  1  0
 10 12  1  0
 12 13  2  0
 13 14  1  0
 13 15  1  0
 15 16  1  0
 15 17  2  0
 17 18  1  0
  8 19  2  0
 19 20  1  0
 20 21  1  0
 20 22  1  0
 22 23  2  0
  4 24  2  0
 24 25  1  0
 24 26  1  0
 26 27  1  0
 26 28  2  0
 28 29  1  0
 28  2  1  0
 22  7  1  0
 17  9  1  0
M  END
>  <plip>  (1) 
-0.034482758620689655

>  <filename>  (1) 
[H][c]1[n][c]([N]([H])[n]2[c](-[c]3[c]([H])[n][c]([H])[c]([H])[c]3[H])[n][n]([H])[c]2=[S])[c]([H])[c]([H])[c]1[H]

$$$$
