
     RDKit          3D

 47 49  0  0  0  0  0  0  0  0999 V2000
    6.0129   -5.9005   19.5922 C   0  0  0  0  0  0  0  0  0  0  0  0
    7.1776   -5.8314   20.9791 S   0  0  0  0  0  0  0  0  0  0  0  0
    6.6064   -4.3142   21.7917 C   0  0  0  0  0  0  0  0  0  0  0  0
    7.0123   -3.0658   21.0083 C   0  0  0  0  0  0  0  0  0  0  0  0
    6.6143   -1.7301   21.6411 C   0  0  0  0  0  0  0  0  0  0  0  0
    7.2906   -0.5958   20.9643 N   0  0  0  0  0  0  0  0  0  0  0  0
    8.6451   -0.4135   21.2624 C   0  0  0  0  0  0  0  0  0  0  0  0
    9.3120   -1.2744   21.8085 O   0  0  0  0  0  0  0  0  0  0  0  0
    9.2987    0.9466   20.9557 C   0  0  0  0  0  0  0  0  0  0  0  0
    9.4875    1.7659   22.1950 C   0  0  0  0  0  0  0  0  0  0  0  0
   10.5698    1.9760   23.0156 C   0  0  0  0  0  0  0  0  0  0  0  0
   10.2167    2.5657   24.1899 N   0  0  0  0  0  0  0  0  0  0  0  0
    8.9016    2.7305   24.1048 C   0  0  0  0  0  0  0  0  0  0  0  0
    7.9698    3.2417   25.0686 C   0  0  0  0  0  0  0  0  0  0  0  0
    8.5210    3.6375   26.3959 C   0  0  0  0  0  0  0  0  0  0  0  0
    9.1446    2.8180   26.7625 H   0  0  0  0  0  0  0  0  0  0  0  0
    9.1805    4.5047   26.2935 H   0  0  0  0  0  0  0  0  0  0  0  0
    7.7329    3.8642   27.1189 H   0  0  0  0  0  0  0  0  0  0  0  0
    6.6380    3.2902   24.7175 C   0  0  0  0  0  0  0  0  0  0  0  0
    6.1706    2.8043   23.4481 C   0  0  0  0  0  0  0  0  0  0  0  0
    7.0666    2.3016   22.5499 C   0  0  0  0  0  0  0  0  0  0  0  0
    8.4110    2.2771   22.8847 N   0  0  0  0  0  0  0  0  0  0  0  0
    6.8525    1.9011   21.5660 H   0  0  0  0  0  0  0  0  0  0  0  0
    5.1104    2.8326   23.2156 H   0  0  0  0  0  0  0  0  0  0  0  0
    5.9197    3.7057   25.4209 H   0  0  0  0  0  0  0  0  0  0  0  0
   11.5939    1.6771   22.8234 H   0  0  0  0  0  0  0  0  0  0  0  0
    8.7241    1.4981   20.2113 H   0  0  0  0  0  0  0  0  0  0  0  0
   10.2846    0.7129   20.5724 H   0  0  0  0  0  0  0  0  0  0  0  0
    6.5950    0.0294   19.8714 C   0  0  0  0  0  0  0  0  0  0  0  0
    5.3564    0.6523   20.0848 C   0  0  0  0  0  0  0  0  0  0  0  0
    4.7366    1.3246   19.0193 C   0  0  0  0  0  0  0  0  0  0  0  0
    5.3425    1.2910   17.7600 C   0  0  0  0  0  0  0  0  0  0  0  0
    6.4758    0.6209   17.5111 N   0  0  0  0  0  0  0  0  0  0  0  0
    7.0777    0.0057   18.5390 C   0  0  0  0  0  0  0  0  0  0  0  0
    7.9949   -0.5335   18.3075 H   0  0  0  0  0  0  0  0  0  0  0  0
    4.9089    1.8222   16.9156 H   0  0  0  0  0  0  0  0  0  0  0  0
    3.8170    1.8824   19.1511 H   0  0  0  0  0  0  0  0  0  0  0  0
    4.9045    0.6127   21.0771 H   0  0  0  0  0  0  0  0  0  0  0  0
    6.8893   -1.6949   22.7037 H   0  0  0  0  0  0  0  0  0  0  0  0
    5.5332   -1.5656   21.5618 H   0  0  0  0  0  0  0  0  0  0  0  0
    6.5840   -3.1040   19.9991 H   0  0  0  0  0  0  0  0  0  0  0  0
    8.1019   -3.0755   20.9099 H   0  0  0  0  0  0  0  0  0  0  0  0
    7.0793   -4.3307   22.7812 H   0  0  0  0  0  0  0  0  0  0  0  0
    5.5251   -4.3815   21.9664 H   0  0  0  0  0  0  0  0  0  0  0  0
    6.3628   -6.6697   18.8988 H   0  0  0  0  0  0  0  0  0  0  0  0
    5.9598   -4.9579   19.0384 H   0  0  0  0  0  0  0  0  0  0  0  0
    5.0151   -6.1648   19.9414 H   0  0  0  0  0  0  0  0  0  0  0  0
  1  2  1  0
  2  3  1  0
  3  4  1  0
  4  5  1  0
  5  6  1  0
  6  7  1  0
  7  8  2  0
  7  9  1  0
  9 10  1  0
 10 11  2  0
 11 12  1  0
 12 13  2  0
 13 14  1  0
 14 15  1  0
 15 16  1  0
 15 17  1  0
 15 18  1  0
 14 19  2  0
 19 20  1  0
 20 21  2  0
 21 22  1  0
 21 23  1  0
 20 24  1  0
 19 25  1  0
 11 26  1  0
  9 27  1  0
  9 28  1  0
  6 29  1  0
 29 30  2  0
 30 31  1  0
 31 32  2  0
 32 33  1  0
 33 34  2  0
 34 35  1  0
 32 36  1  0
 31 37  1  0
 30 38  1  0
  5 39  1  0
  5 40  1  0
  4 41  1  0
  4 42  1  0
  3 43  1  0
  3 44  1  0
  1 45  1  0
  1 46  1  0
  1 47  1  0
 22 10  1  0
 34 29  1  0
 22 13  1  0
M  END
>  <plip>  (1) 
-0.07142857142857142

>  <filename>  (1) 
[H][c]1[n][c]([H])[c]([N]([C](=[O])[C]([H])([H])[c]2[c]([H])[n][c]3[c]([C]([H])([H])[H])[c]([H])[c]([H])[c]([H])[n]23)[C]([H])([H])[C]([H])([H])[C]([H])([H])[S][C]([H])([H])[H])[c]([H])[c]1[H]

$$$$
