
     RDKit          3D

 26 28  0  0  0  0  0  0  0  0999 V2000
    6.4400    3.2322   25.3332 H   0  0  0  0  0  0  0  0  0  0  0  0
    6.8176    2.8057   24.4110 C   0  0  0  0  0  0  0  0  0  0  0  0
    7.2746    3.3707   23.3056 C   0  0  0  0  0  0  0  0  0  0  0  0
    7.3782    4.4160   23.0428 H   0  0  0  0  0  0  0  0  0  0  0  0
    7.6557    2.3045   22.3337 C   0  0  0  0  0  0  0  0  0  0  0  0
    8.1177    2.4451   21.2328 O   0  0  0  0  0  0  0  0  0  0  0  0
    7.3944    1.0756   22.9696 N   0  0  0  0  0  0  0  0  0  0  0  0
    7.6150   -0.2068   22.4296 C   0  0  0  0  0  0  0  0  0  0  0  0
    8.1758   -1.3335   22.9864 C   0  0  0  0  0  0  0  0  0  0  0  0
    8.5739   -1.4244   23.9842 H   0  0  0  0  0  0  0  0  0  0  0  0
    8.1556   -2.3873   22.1130 N   0  0  0  0  0  0  0  0  0  0  0  0
    7.5729   -1.9140   21.0439 C   0  0  0  0  0  0  0  0  0  0  0  0
    7.3076   -2.4840   20.1675 H   0  0  0  0  0  0  0  0  0  0  0  0
    7.2345   -0.5863   21.1421 N   0  0  0  0  0  0  0  0  0  0  0  0
    6.5990    0.1261   20.0625 C   0  0  0  0  0  0  0  0  0  0  0  0
    7.2136    0.1841   18.7958 C   0  0  0  0  0  0  0  0  0  0  0  0
    8.1963   -0.2745   18.6642 H   0  0  0  0  0  0  0  0  0  0  0  0
    6.6626    0.7612   17.7204 N   0  0  0  0  0  0  0  0  0  0  0  0
    5.4490    1.3148   17.8758 C   0  0  0  0  0  0  0  0  0  0  0  0
    5.0078    1.7594   16.9876 H   0  0  0  0  0  0  0  0  0  0  0  0
    4.7535    1.3161   19.0874 C   0  0  0  0  0  0  0  0  0  0  0  0
    3.7748    1.7786   19.1403 H   0  0  0  0  0  0  0  0  0  0  0  0
    5.3375    0.7131   20.2080 C   0  0  0  0  0  0  0  0  0  0  0  0
    4.8321    0.6720   21.1718 H   0  0  0  0  0  0  0  0  0  0  0  0
    6.8370    1.3273   24.2324 C   0  0  0  0  0  0  0  0  0  0  0  0
    6.4368    0.5051   25.0132 O   0  0  0  0  0  0  0  0  0  0  0  0
  1  2  1  0
  2  3  2  0
  3  4  1  0
  3  5  1  0
  5  6  2  0
  5  7  1  0
  7  8  1  0
  8  9  2  0
  9 10  1  0
  9 11  1  0
 11 12  2  0
 12 13  1  0
 12 14  1  0
 14 15  1  0
 15 16  2  0
 16 17  1  0
 16 18  1  0
 18 19  2  0
 19 20  1  0
 19 21  1  0
 21 22  1  0
 21 23  2  0
 23 24  1  0
  7 25  1  0
 25 26  2  0
 25  2  1  0
 14  8  1  0
 23 15  1  0
M  END
>  <plip>  (1) 
-0.034482758620689655

>  <filename>  (1) 
[H][C]1=[C]([H])[C](=[O])[N]([c]2[c]([H])[n][c]([H])[n]2-[c]2[c]([H])[n][c]([H])[c]([H])[c]2[H])[C]1=[O]

$$$$
