
     RDKit          3D

 34 36  0  0  0  0  0  0  0  0999 V2000
    5.3659   -2.6644   28.1905 F   0  0  0  0  0  0  0  0  0  0  0  0
    5.6644   -3.9818   28.2637 C   0  0  0  0  0  0  0  0  0  0  0  0
    4.6299   -4.6335   27.6903 F   0  0  0  0  0  0  0  0  0  0  0  0
    5.6890   -4.3158   29.5542 F   0  0  0  0  0  0  0  0  0  0  0  0
    6.9635   -4.2741   27.4839 C   0  0  0  0  0  0  0  0  0  0  0  0
    7.0053   -3.8391   26.1472 C   0  0  0  0  0  0  0  0  0  0  0  0
    8.0971   -4.2026   25.3479 C   0  0  0  0  0  0  0  0  0  0  0  0
    8.1065   -3.8293   23.9060 C   0  0  0  0  0  0  0  0  0  0  0  0
    9.0738   -4.1131   23.0768 N   0  0  0  0  0  0  0  0  0  0  0  0
    8.6601   -3.5239   21.8925 O   0  0  0  0  0  0  0  0  0  0  0  0
    7.4735   -2.9589   22.1262 C   0  0  0  0  0  0  0  0  0  0  0  0
    6.8295   -2.1505   21.0605 C   0  0  0  0  0  0  0  0  0  0  0  0
    7.3630   -0.6993   20.9767 C   0  0  0  0  0  0  0  0  0  0  0  0
    6.6698    0.0659   19.8726 C   0  0  0  0  0  0  0  0  0  0  0  0
    5.4430    0.7089   20.1026 C   0  0  0  0  0  0  0  0  0  0  0  0
    4.7864    1.3435   19.0485 C   0  0  0  0  0  0  0  0  0  0  0  0
    5.3876    1.3177   17.7885 C   0  0  0  0  0  0  0  0  0  0  0  0
    6.5483    0.6963   17.5306 N   0  0  0  0  0  0  0  0  0  0  0  0
    7.1671    0.0951   18.5566 C   0  0  0  0  0  0  0  0  0  0  0  0
    8.1169   -0.3883   18.3062 H   0  0  0  0  0  0  0  0  0  0  0  0
    4.9129    1.8189   16.9495 H   0  0  0  0  0  0  0  0  0  0  0  0
    3.8395    1.8578   19.1907 H   0  0  0  0  0  0  0  0  0  0  0  0
    5.0032    0.7106   21.1018 H   0  0  0  0  0  0  0  0  0  0  0  0
    7.2013   -0.1953   21.9406 H   0  0  0  0  0  0  0  0  0  0  0  0
    8.4485   -0.7030   20.8160 H   0  0  0  0  0  0  0  0  0  0  0  0
    5.7572   -2.1110   21.2678 H   0  0  0  0  0  0  0  0  0  0  0  0
    6.9654   -2.6456   20.0998 H   0  0  0  0  0  0  0  0  0  0  0  0
    7.0673   -3.1155   23.3440 N   0  0  0  0  0  0  0  0  0  0  0  0
    9.1494   -4.9021   25.9664 C   0  0  0  0  0  0  0  0  0  0  0  0
    9.0606   -5.2027   27.3282 C   0  0  0  0  0  0  0  0  0  0  0  0
    7.9803   -4.9245   28.0695 N   0  0  0  0  0  0  0  0  0  0  0  0
    9.8933   -5.6773   27.8394 H   0  0  0  0  0  0  0  0  0  0  0  0
   10.0133   -5.2379   25.4046 H   0  0  0  0  0  0  0  0  0  0  0  0
    6.2271   -3.1956   25.7336 H   0  0  0  0  0  0  0  0  0  0  0  0
  1  2  1  0
  2  3  1  0
  2  4  1  0
  2  5  1  0
  5  6  2  0
  6  7  1  0
  7  8  1  0
  8  9  2  0
  9 10  1  0
 10 11  1  0
 11 12  1  0
 12 13  1  0
 13 14  1  0
 14 15  2  0
 15 16  1  0
 16 17  2  0
 17 18  1  0
 18 19  2  0
 19 20  1  0
 17 21  1  0
 16 22  1  0
 15 23  1  0
 13 24  1  0
 13 25  1  0
 12 26  1  0
 12 27  1  0
 11 28  2  0
  7 29  2  0
 29 30  1  0
 30 31  2  0
 30 32  1  0
 29 33  1  0
  6 34  1  0
 31  5  1  0
 28  8  1  0
 19 14  1  0
M  END
>  <plip>  (1) 
-0.03571428571428571

>  <filename>  (1) 
[H][c]1[n][c]([H])[c]([C]([H])([H])[C]([H])([H])[c]2[n][c](-[c]3[c]([H])[c]([H])[n][c]([C]([F])([F])[F])[c]3[H])[n][o]2)[c]([H])[c]1[H]

$$$$
