
     RDKit          3D

 38 40  0  0  0  0  0  0  0  0999 V2000
    8.3729    7.0166   26.1471 H   0  0  0  0  0  0  0  0  0  0  0  0
    8.2151    6.2626   26.7317 O   0  0  0  0  0  0  0  0  0  0  0  0
    7.5530    5.2516   25.9821 C   0  0  0  0  0  0  0  0  0  0  0  0
    7.1407    4.5465   26.7141 H   0  0  0  0  0  0  0  0  0  0  0  0
    6.7085    5.6560   25.4052 H   0  0  0  0  0  0  0  0  0  0  0  0
    8.5016    4.5060   25.0309 C   0  0  0  0  0  0  0  0  0  0  0  0
    9.3384    4.0819   25.6172 H   0  0  0  0  0  0  0  0  0  0  0  0
    8.9506    5.2506   24.3564 H   0  0  0  0  0  0  0  0  0  0  0  0
    7.7909    3.5009   24.2370 N   0  0  0  0  0  0  0  0  0  0  0  0
    8.4030    3.2417   22.9252 C   0  0  0  0  0  0  0  0  0  0  0  0
    9.4102    2.7925   23.0228 H   0  0  0  0  0  0  0  0  0  0  0  0
    8.5231    4.1910   22.3893 H   0  0  0  0  0  0  0  0  0  0  0  0
    7.5241    2.3136   22.0716 C   0  0  0  0  0  0  0  0  0  0  0  0
    8.0310    2.0806   21.1297 H   0  0  0  0  0  0  0  0  0  0  0  0
    6.5812    2.8294   21.8347 H   0  0  0  0  0  0  0  0  0  0  0  0
    7.2414    1.0767   22.8025 N   0  0  0  0  0  0  0  0  0  0  0  0
    7.5459   -0.1560   22.3114 C   0  0  0  0  0  0  0  0  0  0  0  0
    8.3506   -1.3408   23.2727 S   0  0  0  0  0  0  0  0  0  0  0  0
    8.2758   -2.5448   22.1214 N   0  0  0  0  0  0  0  0  0  0  0  0
    7.6981   -2.0585   21.0610 C   0  0  0  0  0  0  0  0  0  0  0  0
    7.4778   -2.7601   20.2647 H   0  0  0  0  0  0  0  0  0  0  0  0
    7.2997   -0.6738   21.0511 C   0  0  0  0  0  0  0  0  0  0  0  0
    6.6310    0.0574   19.9281 C   0  0  0  0  0  0  0  0  0  0  0  0
    7.1614    0.1196   18.6166 C   0  0  0  0  0  0  0  0  0  0  0  0
    8.1168   -0.3555   18.4023 H   0  0  0  0  0  0  0  0  0  0  0  0
    6.5787    0.7378   17.5781 N   0  0  0  0  0  0  0  0  0  0  0  0
    5.4025    1.3490   17.7984 C   0  0  0  0  0  0  0  0  0  0  0  0
    4.9244    1.8255   16.9385 H   0  0  0  0  0  0  0  0  0  0  0  0
    4.7829    1.3609   19.0484 C   0  0  0  0  0  0  0  0  0  0  0  0
    3.8286    1.8591   19.1663 H   0  0  0  0  0  0  0  0  0  0  0  0
    5.4080    0.7221   20.1237 C   0  0  0  0  0  0  0  0  0  0  0  0
    4.9534    0.7292   21.1119 H   0  0  0  0  0  0  0  0  0  0  0  0
    6.6756    1.2937   24.1361 C   0  0  0  0  0  0  0  0  0  0  0  0
    6.5547    0.3344   24.6524 H   0  0  0  0  0  0  0  0  0  0  0  0
    5.6819    1.7584   24.0296 H   0  0  0  0  0  0  0  0  0  0  0  0
    7.5646    2.2369   24.9593 C   0  0  0  0  0  0  0  0  0  0  0  0
    8.5150    1.7254   25.2123 H   0  0  0  0  0  0  0  0  0  0  0  0
    7.0632    2.4469   25.9130 H   0  0  0  0  0  0  0  0  0  0  0  0
  1  2  1  0
  2  3  1  0
  3  4  1  0
  3  5  1  0
  3  6  1  0
  6  7  1  0
  6  8  1  0
  6  9  1  0
  9 10  1  0
 10 11  1  0
 10 12  1  0
 10 13  1  0
 13 14  1  0
 13 15  1  0
 13 16  1  0
 16 17  1  0
 17 18  1  0
 18 19  1  0
 19 20  2  0
 20 21  1  0
 20 22  1  0
 22 23  1  0
 23 24  2  0
 24 25  1  0
 24 26  1  0
 26 27  2  0
 27 28  1  0
 27 29  1  0
 29 30  1  0
 29 31  2  0
 31 32  1  0
 16 33  1  0
 33 34  1  0
 33 35  1  0
 33 36  1  0
 36 37  1  0
 36 38  1  0
 36  9  1  0
 22 17  2  0
 31 23  1  0
M  END
>  <plip>  (1) 
-0.06896551724137931

>  <filename>  (1) 
[H][O][C]([H])([H])[C]([H])([H])[N]1[C]([H])([H])[C]([H])([H])[N]([c]2[s][n][c]([H])[c]2-[c]2[c]([H])[n][c]([H])[c]([H])[c]2[H])[C]([H])([H])[C]1([H])[H]

$$$$
