
     RDKit          3D

 31 32  0  0  0  0  0  0  0  0999 V2000
    8.7149   -1.9829   21.4187 H   0  0  0  0  0  0  0  0  0  0  0  0
    8.3079   -1.5938   20.5778 N   0  0  0  0  0  0  0  0  0  0  0  0
    7.4034   -0.7755   20.9115 C   0  0  0  0  0  0  0  0  0  0  0  0
    7.0877   -0.3978   22.6510 S   0  0  0  0  0  0  0  0  0  0  0  0
    8.2136    1.0004   22.8051 C   0  0  0  0  0  0  0  0  0  0  0  0
    9.5508    0.7587   23.1385 C   0  0  0  0  0  0  0  0  0  0  0  0
    9.8740   -0.2565   23.3550 H   0  0  0  0  0  0  0  0  0  0  0  0
   10.4605    1.8180   23.1497 C   0  0  0  0  0  0  0  0  0  0  0  0
   11.5034    1.6254   23.4056 H   0  0  0  0  0  0  0  0  0  0  0  0
   10.0705    3.1294   22.8399 C   0  0  0  0  0  0  0  0  0  0  0  0
   11.0909    4.2419   22.9129 C   0  0  0  0  0  0  0  0  0  0  0  0
   12.0494    3.8717   23.2889 H   0  0  0  0  0  0  0  0  0  0  0  0
   10.7536    5.0521   23.5693 H   0  0  0  0  0  0  0  0  0  0  0  0
   11.3020    4.6980   21.9420 H   0  0  0  0  0  0  0  0  0  0  0  0
    8.7131    3.3806   22.4960 C   0  0  0  0  0  0  0  0  0  0  0  0
    8.1948    4.7756   22.1994 C   0  0  0  0  0  0  0  0  0  0  0  0
    8.2709    5.4238   23.0816 H   0  0  0  0  0  0  0  0  0  0  0  0
    7.1442    4.7374   21.8929 H   0  0  0  0  0  0  0  0  0  0  0  0
    8.7200    5.3141   21.4053 H   0  0  0  0  0  0  0  0  0  0  0  0
    7.8115    2.3030   22.4875 C   0  0  0  0  0  0  0  0  0  0  0  0
    6.7815    2.4996   22.1916 H   0  0  0  0  0  0  0  0  0  0  0  0
    6.6355   -0.0216   19.9024 C   0  0  0  0  0  0  0  0  0  0  0  0
    7.1691    0.0381   18.6061 C   0  0  0  0  0  0  0  0  0  0  0  0
    8.1208   -0.4380   18.3847 H   0  0  0  0  0  0  0  0  0  0  0  0
    6.5754    0.6698   17.5933 N   0  0  0  0  0  0  0  0  0  0  0  0
    5.4138    1.2866   17.8484 C   0  0  0  0  0  0  0  0  0  0  0  0
    4.9470    1.7814   17.0001 H   0  0  0  0  0  0  0  0  0  0  0  0
    4.8113    1.3070   19.1101 C   0  0  0  0  0  0  0  0  0  0  0  0
    3.8798    1.8375   19.2531 H   0  0  0  0  0  0  0  0  0  0  0  0
    5.4325    0.6427   20.1631 C   0  0  0  0  0  0  0  0  0  0  0  0
    4.9809    0.6418   21.1590 H   0  0  0  0  0  0  0  0  0  0  0  0
  1  2  1  0
  2  3  2  3
  3  4  1  0
  4  5  1  0
  5  6  2  0
  6  7  1  0
  6  8  1  0
  8  9  1  0
  8 10  2  0
 10 11  1  0
 11 12  1  0
 11 13  1  0
 11 14  1  0
 10 15  1  0
 15 16  1  0
 16 17  1  0
 16 18  1  0
 16 19  1  0
 15 20  2  0
 20 21  1  0
  3 22  1  0
 22 23  2  0
 23 24  1  0
 23 25  1  0
 25 26  2  0
 26 27  1  0
 26 28  1  0
 28 29  1  0
 28 30  2  0
 30 31  1  0
 20  5  1  0
 30 22  1  0
M  END
>  <plip>  (1) 
-0.03333333333333333

>  <filename>  (1) 
[H][N]=[C]([S][c]1[c]([H])[c]([H])[c]([C]([H])([H])[H])[c]([C]([H])([H])[H])[c]1[H])[c]1[c]([H])[n][c]([H])[c]([H])[c]1[H]

$$$$
