
     RDKit          3D

 40 42  0  0  0  0  0  0  0  0999 V2000
    8.8292    1.3205   21.4442 C   0  0  0  0  0  0  0  0  0  0  0  0
    7.9451    0.2462   22.0958 C   0  0  0  0  0  0  0  0  0  0  0  0
    8.7382   -0.4820   23.1940 C   0  0  0  0  0  0  0  0  0  0  0  0
    9.6012   -1.0194   22.7812 H   0  0  0  0  0  0  0  0  0  0  0  0
    9.1227    0.2395   23.9244 H   0  0  0  0  0  0  0  0  0  0  0  0
    8.1288   -1.2085   23.7398 H   0  0  0  0  0  0  0  0  0  0  0  0
    7.3451   -0.7163   21.0335 C   0  0  0  0  0  0  0  0  0  0  0  0
    6.5031   -1.7293   21.6654 N   0  0  0  0  0  0  0  0  0  0  0  0
    5.9684   -2.7605   20.9464 C   0  0  0  0  0  0  0  0  0  0  0  0
    6.0982   -2.8820   19.7375 O   0  0  0  0  0  0  0  0  0  0  0  0
    5.2741   -3.8356   21.7194 C   0  0  0  0  0  0  0  0  0  0  0  0
    5.0601   -5.1002   21.2655 C   0  0  0  0  0  0  0  0  0  0  0  0
    4.2230   -5.7668   22.1839 C   0  0  0  0  0  0  0  0  0  0  0  0
    3.6320   -6.9326   22.0975 N   0  0  0  0  0  0  0  0  0  0  0  0
    2.8450   -7.3667   23.1615 C   0  0  0  0  0  0  0  0  0  0  0  0
    2.2470   -8.4282   23.1277 O   0  0  0  0  0  0  0  0  0  0  0  0
    2.7513   -6.4780   24.3620 C   0  0  0  0  0  0  0  0  0  0  0  0
    3.3626   -5.2734   24.3685 C   0  0  0  0  0  0  0  0  0  0  0  0
    4.0815   -4.9024   23.2583 N   0  0  0  0  0  0  0  0  0  0  0  0
    4.6097   -3.6479   22.9639 N   0  0  0  0  0  0  0  0  0  0  0  0
    5.1509   -3.2845   23.7431 H   0  0  0  0  0  0  0  0  0  0  0  0
    3.3395   -4.5688   25.2020 H   0  0  0  0  0  0  0  0  0  0  0  0
    2.1661   -6.8513   25.1888 H   0  0  0  0  0  0  0  0  0  0  0  0
    5.3899   -5.5693   20.3525 H   0  0  0  0  0  0  0  0  0  0  0  0
    6.0100   -1.4693   22.5031 H   0  0  0  0  0  0  0  0  0  0  0  0
    6.5913   -0.0023   19.9208 C   0  0  0  0  0  0  0  0  0  0  0  0
    5.3880    0.6830   20.1285 C   0  0  0  0  0  0  0  0  0  0  0  0
    4.7950    1.3454   19.0503 C   0  0  0  0  0  0  0  0  0  0  0  0
    5.4267    1.3009   17.8026 C   0  0  0  0  0  0  0  0  0  0  0  0
    6.5704    0.6381   17.5758 N   0  0  0  0  0  0  0  0  0  0  0  0
    7.1170    0.0028   18.6226 C   0  0  0  0  0  0  0  0  0  0  0  0
    8.0410   -0.5406   18.4170 H   0  0  0  0  0  0  0  0  0  0  0  0
    4.9917    1.8119   16.9459 H   0  0  0  0  0  0  0  0  0  0  0  0
    3.8609    1.8835   19.1637 H   0  0  0  0  0  0  0  0  0  0  0  0
    4.9158    0.6889   21.1137 H   0  0  0  0  0  0  0  0  0  0  0  0
    8.1848   -1.2388   20.5529 H   0  0  0  0  0  0  0  0  0  0  0  0
    7.0939    0.7487   22.5803 H   0  0  0  0  0  0  0  0  0  0  0  0
    9.6996    0.8695   20.9510 H   0  0  0  0  0  0  0  0  0  0  0  0
    9.2101    2.0240   22.1909 H   0  0  0  0  0  0  0  0  0  0  0  0
    8.2873    1.9021   20.6929 H   0  0  0  0  0  0  0  0  0  0  0  0
  1  2  1  0
  2  3  1  0
  3  4  1  0
  3  5  1  0
  3  6  1  0
  2  7  1  0
  7  8  1  0
  8  9  1  0
  9 10  2  0
  9 11  1  0
 11 12  2  0
 12 13  1  0
 13 14  2  0
 14 15  1  0
 15 16  2  0
 15 17  1  0
 17 18  2  0
 18 19  1  0
 19 20  1  0
 20 21  1  0
 18 22  1  0
 17 23  1  0
 12 24  1  0
  8 25  1  0
  7 26  1  0
 26 27  2  0
 27 28  1  0
 28 29  2  0
 29 30  1  0
 30 31  2  0
 31 32  1  0
 29 33  1  0
 28 34  1  0
 27 35  1  0
  7 36  1  0
  2 37  1  0
  1 38  1  0
  1 39  1  0
  1 40  1  0
 20 11  1  0
 31 26  1  0
 19 13  1  0
M  END
>  <plip>  (1) 
-0.13793103448275862

>  <filename>  (1) 
[H][c]1[n][c]([H])[c]([C]([H])([N]([H])[C](=[O])[c]2[c]([H])[c]3[n][c](=[O])[c]([H])[c]([H])[n]3[n]2[H])[C]([H])([C]([H])([H])[H])[C]([H])([H])[H])[c]([H])[c]1[H]

$$$$
