
     RDKit          3D

 42 43  0  0  0  0  0  0  0  0999 V2000
    6.0324   -2.7538   20.5685 C   0  0  0  0  0  0  0  0  0  0  0  0
    7.3590   -2.0698   20.9188 C   0  0  0  0  0  0  0  0  0  0  0  0
    8.0940   -2.8602   22.0174 C   0  0  0  0  0  0  0  0  0  0  0  0
    8.1190   -3.9243   21.7524 H   0  0  0  0  0  0  0  0  0  0  0  0
    7.6025   -2.7857   22.9964 H   0  0  0  0  0  0  0  0  0  0  0  0
    9.1398   -2.5549   22.1289 H   0  0  0  0  0  0  0  0  0  0  0  0
    7.2457   -0.5306   21.1543 C   0  0  0  0  0  0  0  0  0  0  0  0
    8.6643    0.0618   21.3326 C   0  0  0  0  0  0  0  0  0  0  0  0
    9.1478    0.0979   22.7600 N   0  0  0  0  0  4  0  0  0  0  0  0
   10.6306    0.3049   22.8866 C   0  0  0  0  0  0  0  0  0  0  0  0
   11.0623    1.7122   22.5102 C   0  0  0  0  0  0  0  0  0  0  0  0
   11.8285    2.0376   21.4299 C   0  0  0  0  0  0  0  0  0  0  0  0
   12.2800    3.6887   21.3684 S   0  0  0  0  0  0  0  0  0  0  0  0
   11.3767    4.0070   22.7917 C   0  0  0  0  0  0  0  0  0  0  0  0
   10.7761    2.8871   23.3033 C   0  0  0  0  0  0  0  0  0  0  0  0
    9.8816    2.8323   24.5207 C   0  0  0  0  0  0  0  0  0  0  0  0
    9.7030    4.0249   25.0988 F   0  0  0  0  0  0  0  0  0  0  0  0
   10.3526    1.9797   25.4546 F   0  0  0  0  0  0  0  0  0  0  0  0
    8.6292    2.3820   24.2047 F   0  0  0  0  0  0  0  0  0  0  0  0
   11.3647    5.0230   23.1633 H   0  0  0  0  0  0  0  0  0  0  0  0
   12.1084    1.4027   20.6112 H   0  0  0  0  0  0  0  0  0  0  0  0
   11.1659   -0.4136   22.2550 H   0  0  0  0  0  0  0  0  0  0  0  0
   10.9389    0.1032   23.9127 H   0  0  0  0  0  0  0  0  0  0  0  0
    8.6873    0.9290   23.1801 H   0  0  0  0  0  0  0  0  0  0  0  0
    8.8210   -0.7405   23.2782 H   0  0  0  0  0  0  0  0  0  0  0  0
    8.7144    1.0758   20.9256 H   0  0  0  0  0  0  0  0  0  0  0  0
    9.3646   -0.5222   20.7180 H   0  0  0  0  0  0  0  0  0  0  0  0
    6.5373    0.1551   19.9749 C   0  0  0  0  0  0  0  0  0  0  0  0
    5.3003    0.8065   20.1138 C   0  0  0  0  0  0  0  0  0  0  0  0
    4.7157    1.4164   18.9981 C   0  0  0  0  0  0  0  0  0  0  0  0
    5.3794    1.3463   17.7705 C   0  0  0  0  0  0  0  0  0  0  0  0
    6.5456    0.7099   17.5967 N   0  0  0  0  0  0  0  0  0  0  0  0
    7.0891    0.1307   18.6757 C   0  0  0  0  0  0  0  0  0  0  0  0
    8.0385   -0.3780   18.4940 H   0  0  0  0  0  0  0  0  0  0  0  0
    4.9602    1.8222   16.8843 H   0  0  0  0  0  0  0  0  0  0  0  0
    3.7710    1.9494   19.0696 H   0  0  0  0  0  0  0  0  0  0  0  0
    4.8024    0.8353   21.0878 H   0  0  0  0  0  0  0  0  0  0  0  0
    6.6548   -0.3404   22.0650 H   0  0  0  0  0  0  0  0  0  0  0  0
    8.0083   -2.0913   20.0414 H   0  0  0  0  0  0  0  0  0  0  0  0
    5.3334   -2.7388   21.4164 H   0  0  0  0  0  0  0  0  0  0  0  0
    6.2067   -3.8016   20.2964 H   0  0  0  0  0  0  0  0  0  0  0  0
    5.5439   -2.2747   19.7138 H   0  0  0  0  0  0  0  0  0  0  0  0
  1  2  1  0
  2  3  1  0
  3  4  1  0
  3  5  1  0
  3  6  1  0
  2  7  1  0
  7  8  1  0
  8  9  1  0
  9 10  1  0
 10 11  1  0
 11 12  2  0
 12 13  1  0
 13 14  1  0
 14 15  2  0
 15 16  1  0
 16 17  1  0
 16 18  1  0
 16 19  1  0
 14 20  1  0
 12 21  1  0
 10 22  1  0
 10 23  1  0
  9 24  1  0
  9 25  1  0
  8 26  1  0
  8 27  1  0
  7 28  1  0
 28 29  2  0
 29 30  1  0
 30 31  2  0
 31 32  1  0
 32 33  2  0
 33 34  1  0
 31 35  1  0
 30 36  1  0
 29 37  1  0
  7 38  1  0
  2 39  1  0
  1 40  1  0
  1 41  1  0
  1 42  1  0
 15 11  1  0
 33 28  1  0
M  CHG  1   9   1
M  END
>  <plip>  (1) 
-0.03571428571428571

>  <filename>  (1) 
[H][c]1[n][c]([H])[c]([C]([H])([C]([H])([C]([H])([H])[H])[C]([H])([H])[H])[C]([H])([H])[N+]([H])([H])[C]([H])([H])[c]2[c]([H])[s][c]([H])[c]2[C]([F])([F])[F])[c]([H])[c]1[H]

$$$$
