
     RDKit          3D

 30 32  0  0  0  0  0  0  0  0999 V2000
    9.2698   -2.5358   23.6876 H   0  0  0  0  0  0  0  0  0  0  0  0
    8.7002   -2.0146   22.9256 C   0  0  0  0  0  0  0  0  0  0  0  0
    9.2390   -1.9373   21.7198 N   0  0  0  0  0  0  0  0  0  0  0  0
    8.5655   -1.2836   20.7506 N   0  0  0  0  0  0  0  0  0  0  0  0
    7.3833   -0.7193   21.0314 C   0  0  0  0  0  0  0  0  0  0  0  0
    6.6624   -0.0059   19.9491 C   0  0  0  0  0  0  0  0  0  0  0  0
    7.1855    0.0399   18.6463 C   0  0  0  0  0  0  0  0  0  0  0  0
    8.1292   -0.4365   18.3949 H   0  0  0  0  0  0  0  0  0  0  0  0
    6.5782    0.6559   17.6239 N   0  0  0  0  0  0  0  0  0  0  0  0
    5.4157    1.2771   17.8611 C   0  0  0  0  0  0  0  0  0  0  0  0
    4.9384    1.7673   17.0113 H   0  0  0  0  0  0  0  0  0  0  0  0
    4.8157    1.3005   19.1217 C   0  0  0  0  0  0  0  0  0  0  0  0
    3.8857    1.8343   19.2615 H   0  0  0  0  0  0  0  0  0  0  0  0
    5.4389    0.6468   20.1792 C   0  0  0  0  0  0  0  0  0  0  0  0
    4.9921    0.6334   21.1741 H   0  0  0  0  0  0  0  0  0  0  0  0
    6.7941   -0.7399   22.2398 N   0  0  0  0  0  0  0  0  0  0  0  0
    7.4354   -1.3935   23.1946 C   0  0  0  0  0  0  0  0  0  0  0  0
    6.8647   -1.4596   24.4372 N   0  0  0  0  0  0  0  0  0  0  0  0
    7.2227   -2.1514   25.0654 H   0  0  0  0  0  0  0  0  0  0  0  0
    5.7603   -0.7295   24.9305 C   0  0  0  0  0  0  0  0  0  0  0  0
    5.5677    0.6055   24.5549 C   0  0  0  0  0  0  0  0  0  0  0  0
    6.2975    1.0513   23.8902 H   0  0  0  0  0  0  0  0  0  0  0  0
    4.4513    1.3183   24.9938 C   0  0  0  0  0  0  0  0  0  0  0  0
    4.2863    2.3414   24.6786 H   0  0  0  0  0  0  0  0  0  0  0  0
    3.5381    0.6936   25.8359 C   0  0  0  0  0  0  0  0  0  0  0  0
    2.4655    1.3865   26.2528 F   0  0  0  0  0  0  0  0  0  0  0  0
    3.7212   -0.6197   26.2628 C   0  0  0  0  0  0  0  0  0  0  0  0
    2.9888   -1.0579   26.9341 H   0  0  0  0  0  0  0  0  0  0  0  0
    4.8483   -1.3278   25.8194 C   0  0  0  0  0  0  0  0  0  0  0  0
    4.9938   -2.3554   26.1430 H   0  0  0  0  0  0  0  0  0  0  0  0
  1  2  1  0
  2  3  2  0
  3  4  1  0
  4  5  2  0
  5  6  1  0
  6  7  2  0
  7  8  1  0
  7  9  1  0
  9 10  2  0
 10 11  1  0
 10 12  1  0
 12 13  1  0
 12 14  2  0
 14 15  1  0
  5 16  1  0
 16 17  2  0
 17 18  1  0
 18 19  1  0
 18 20  1  0
 20 21  2  0
 21 22  1  0
 21 23  1  0
 23 24  1  0
 23 25  2  0
 25 26  1  0
 25 27  1  0
 27 28  1  0
 27 29  2  0
 29 30  1  0
 17  2  1  0
 29 20  1  0
 14  6  1  0
M  END
>  <plip>  (1) 
-0.03571428571428571

>  <filename>  (1) 
[H][c]1[n][n][c](-[c]2[c]([H])[n][c]([H])[c]([H])[c]2[H])[n][c]1[N]([H])[c]1[c]([H])[c]([H])[c]([F])[c]([H])[c]1[H]

$$$$
