
     RDKit          3D

 35 38  0  0  0  0  0  0  0  0999 V2000
    4.9224    1.7911   16.9922 H   0  0  0  0  0  0  0  0  0  0  0  0
    5.4014    1.2923   17.8323 C   0  0  0  0  0  0  0  0  0  0  0  0
    6.5646    0.6761   17.5723 N   0  0  0  0  0  0  0  0  0  0  0  0
    7.1748    0.0592   18.5918 C   0  0  0  0  0  0  0  0  0  0  0  0
    8.1232   -0.4209   18.3456 H   0  0  0  0  0  0  0  0  0  0  0  0
    6.6705    0.0044   19.9043 C   0  0  0  0  0  0  0  0  0  0  0  0
    7.3973   -0.7158   21.0129 C   0  0  0  0  0  0  0  0  0  0  0  0
    8.3278   -1.1564   20.6416 H   0  0  0  0  0  0  0  0  0  0  0  0
    6.5643   -1.7475   21.8302 C   0  0  0  0  0  0  0  0  0  0  0  0
    6.9723   -2.7578   21.9187 H   0  0  0  0  0  0  0  0  0  0  0  0
    5.5109   -1.8452   21.5442 H   0  0  0  0  0  0  0  0  0  0  0  0
    6.7994   -0.9267   23.0221 N   0  0  0  0  0  0  0  0  0  0  0  0
    6.4177   -0.9623   24.3273 C   0  0  0  0  0  0  0  0  0  0  0  0
    6.7664   -0.0881   25.1131 O   0  0  0  0  0  0  0  0  0  0  0  0
    5.5334   -2.1503   24.7639 C   0  0  0  0  0  0  0  0  0  0  0  0
    5.0949   -3.1395   24.0085 N   0  0  0  0  0  0  0  0  0  0  0  0
    4.3207   -3.9250   24.8261 C   0  0  0  0  0  0  0  0  0  0  0  0
    3.6084   -5.1012   24.5228 C   0  0  0  0  0  0  0  0  0  0  0  0
    3.6325   -5.4715   23.5036 H   0  0  0  0  0  0  0  0  0  0  0  0
    2.9126   -5.7343   25.5456 C   0  0  0  0  0  0  0  0  0  0  0  0
    2.3678   -6.6482   25.3264 H   0  0  0  0  0  0  0  0  0  0  0  0
    2.9126   -5.2096   26.8618 C   0  0  0  0  0  0  0  0  0  0  0  0
    2.3634   -5.7353   27.6382 H   0  0  0  0  0  0  0  0  0  0  0  0
    3.6036   -4.0388   27.1757 C   0  0  0  0  0  0  0  0  0  0  0  0
    3.6059   -3.6395   28.1853 H   0  0  0  0  0  0  0  0  0  0  0  0
    4.3023   -3.4043   26.1343 C   0  0  0  0  0  0  0  0  0  0  0  0
    5.0775   -2.2695   26.0636 N   0  0  0  0  0  0  0  0  0  0  0  0
    5.2871   -1.6430   26.8257 H   0  0  0  0  0  0  0  0  0  0  0  0
    7.6142    0.0722   22.3461 C   0  0  0  0  0  0  0  0  0  0  0  0
    8.6415    0.1143   22.7222 H   0  0  0  0  0  0  0  0  0  0  0  0
    7.2128    1.0923   22.3720 H   0  0  0  0  0  0  0  0  0  0  0  0
    5.4492    0.6504   20.1470 C   0  0  0  0  0  0  0  0  0  0  0  0
    5.0146    0.6324   21.1486 H   0  0  0  0  0  0  0  0  0  0  0  0
    4.8096    1.3087   19.0983 C   0  0  0  0  0  0  0  0  0  0  0  0
    3.8785    1.8378   19.2538 H   0  0  0  0  0  0  0  0  0  0  0  0
  1  2  1  0
  2  3  2  0
  3  4  1  0
  4  5  1  0
  4  6  2  0
  6  7  1  0
  7  8  1  0
  7  9  1  0
  9 10  1  0
  9 11  1  0
  9 12  1  0
 12 13  1  0
 13 14  2  0
 13 15  1  0
 15 16  2  0
 16 17  1  0
 17 18  2  0
 18 19  1  0
 18 20  1  0
 20 21  1  0
 20 22  2  0
 22 23  1  0
 22 24  1  0
 24 25  1  0
 24 26  2  0
 26 27  1  0
 27 28  1  0
 12 29  1  0
 29 30  1  0
 29 31  1  0
  6 32  1  0
 32 33  1  0
 32 34  2  0
 34 35  1  0
 34  2  1  0
 29  7  1  0
 27 15  1  0
 26 17  1  0
M  END
>  <plip>  (1) 
-0.03571428571428571

>  <filename>  (1) 
[H][c]1[n][c]([H])[c]([C]2([H])[C]([H])([H])[N]([C](=[O])[c]3[n][c]4[c]([H])[c]([H])[c]([H])[c]([H])[c]4[n]3[H])[C]2([H])[H])[c]([H])[c]1[H]

$$$$
