
     RDKit          3D

 35 37  0  0  0  0  0  0  0  0999 V2000
    4.9431    1.7996   16.9805 H   0  0  0  0  0  0  0  0  0  0  0  0
    5.3925    1.3225   17.8485 C   0  0  0  0  0  0  0  0  0  0  0  0
    6.5639    0.6998   17.6381 N   0  0  0  0  0  0  0  0  0  0  0  0
    7.1346    0.0996   18.6913 C   0  0  0  0  0  0  0  0  0  0  0  0
    8.0830   -0.3992   18.4957 H   0  0  0  0  0  0  0  0  0  0  0  0
    6.5970    0.1009   19.9965 C   0  0  0  0  0  0  0  0  0  0  0  0
    7.2840   -0.6153   21.0884 C   0  0  0  0  0  0  0  0  0  0  0  0
    7.5956   -1.9509   21.1585 C   0  0  0  0  0  0  0  0  0  0  0  0
    7.2733   -2.6868   20.4364 H   0  0  0  0  0  0  0  0  0  0  0  0
    8.3291   -2.1745   22.3577 C   0  0  0  0  0  0  0  0  0  0  0  0
    8.7420   -3.1223   22.6942 H   0  0  0  0  0  0  0  0  0  0  0  0
    8.4237   -0.9620   22.9833 C   0  0  0  0  0  0  0  0  0  0  0  0
    8.8836   -0.6798   23.9210 H   0  0  0  0  0  0  0  0  0  0  0  0
    7.7873   -0.0043   22.2289 N   0  0  0  0  0  0  0  0  0  0  0  0
    7.6429    1.3416   22.6963 C   0  0  0  0  0  0  0  0  0  0  0  0
    8.6132    1.7365   22.9968 H   0  0  0  0  0  0  0  0  0  0  0  0
    7.1687    1.9752   21.9539 H   0  0  0  0  0  0  0  0  0  0  0  0
    6.6593    1.4128   24.2316 S   0  0  0  0  0  0  0  0  0  0  0  0
    7.6623    1.3447   25.2900 O   0  0  0  0  0  0  0  0  0  0  0  0
    5.5673    0.4557   24.1390 O   0  0  0  0  0  0  0  0  0  0  0  0
    5.8917    3.0342   24.2674 C   0  0  0  0  0  0  0  0  0  0  0  0
    4.7478    3.2368   23.4785 C   0  0  0  0  0  0  0  0  0  0  0  0
    4.3663    2.4688   22.8092 H   0  0  0  0  0  0  0  0  0  0  0  0
    4.0569    4.4449   23.5480 C   0  0  0  0  0  0  0  0  0  0  0  0
    3.1638    4.6142   22.9555 H   0  0  0  0  0  0  0  0  0  0  0  0
    4.5146    5.4466   24.4054 C   0  0  0  0  0  0  0  0  0  0  0  0
    3.6341    6.9457   24.5143 Cl  0  0  0  0  0  0  0  0  0  0  0  0
    5.6515    5.2524   25.1952 C   0  0  0  0  0  0  0  0  0  0  0  0
    5.9725    6.0449   25.8636 H   0  0  0  0  0  0  0  0  0  0  0  0
    6.3498    4.0436   25.1254 C   0  0  0  0  0  0  0  0  0  0  0  0
    7.2343    3.9135   25.7480 H   0  0  0  0  0  0  0  0  0  0  0  0
    5.3759    0.7659   20.1886 C   0  0  0  0  0  0  0  0  0  0  0  0
    4.9391    0.7793   21.1906 H   0  0  0  0  0  0  0  0  0  0  0  0
    4.7576    1.3741   19.0954 C   0  0  0  0  0  0  0  0  0  0  0  0
    3.8120    1.8935   19.1993 H   0  0  0  0  0  0  0  0  0  0  0  0
  1  2  1  0
  2  3  2  0
  3  4  1  0
  4  5  1  0
  4  6  2  0
  6  7  1  0
  7  8  2  0
  8  9  1  0
  8 10  1  0
 10 11  1  0
 10 12  2  0
 12 13  1  0
 12 14  1  0
 14 15  1  0
 15 16  1  0
 15 17  1  0
 15 18  1  0
 18 19  2  0
 18 20  2  0
 18 21  1  0
 21 22  2  0
 22 23  1  0
 22 24  1  0
 24 25  1  0
 24 26  2  0
 26 27  1  0
 26 28  1  0
 28 29  1  0
 28 30  2  0
 30 31  1  0
  6 32  1  0
 32 33  1  0
 32 34  2  0
 34 35  1  0
 34  2  1  0
 14  7  1  0
 30 21  1  0
M  END
>  <plip>  (1) 
-0.03571428571428571

>  <filename>  (1) 
[H][c]1[n][c]([H])[c](-[c]2[c]([H])[c]([H])[c]([H])[n]2[C]([H])([H])[S](=[O])(=[O])[c]2[c]([H])[c]([H])[c]([Cl])[c]([H])[c]2[H])[c]([H])[c]1[H]

$$$$
