
     RDKit          3D

 29 30  0  0  0  0  0  0  0  0999 V2000
    8.0952   -1.8393   20.8781 C   0  0  0  0  0  0  0  0  0  0  0  0
    7.2650   -0.6034   21.2256 C   0  0  0  0  0  0  0  0  0  0  0  0
    6.5895    0.0702   20.0528 C   0  0  0  0  0  0  0  0  0  0  0  0
    5.3670    0.7388   20.2129 C   0  0  0  0  0  0  0  0  0  0  0  0
    4.7740    1.3375   19.0984 C   0  0  0  0  0  0  0  0  0  0  0  0
    5.4338    1.2615   17.8650 C   0  0  0  0  0  0  0  0  0  0  0  0
    6.6143    0.6510   17.6967 N   0  0  0  0  0  0  0  0  0  0  0  0
    7.1707    0.0849   18.7765 C   0  0  0  0  0  0  0  0  0  0  0  0
    8.1439   -0.3727   18.6216 H   0  0  0  0  0  0  0  0  0  0  0  0
    5.0080    1.7266   16.9783 H   0  0  0  0  0  0  0  0  0  0  0  0
    3.8327    1.8749   19.1701 H   0  0  0  0  0  0  0  0  0  0  0  0
    4.8973    0.8035   21.1996 H   0  0  0  0  0  0  0  0  0  0  0  0
    8.0997    0.3711   21.9311 N   0  0  0  0  0  0  0  0  0  0  0  0
    8.1981    0.3775   23.3080 C   0  0  0  0  0  0  0  0  0  0  0  0
    7.5655   -0.3243   24.0591 O   0  0  0  0  0  0  0  0  0  0  0  0
    9.1584    1.2934   23.6636 N   0  0  0  0  0  0  0  0  0  0  0  0
    9.9584    1.6794   22.5043 C   0  0  1  0  0  0  0  0  0  0  0  0
   11.4487    1.3616   22.6064 C   0  0  0  0  0  0  0  0  0  0  0  0
   11.9060    1.8653   23.4657 H   0  0  0  0  0  0  0  0  0  0  0  0
   11.6290    0.2850   22.6933 H   0  0  0  0  0  0  0  0  0  0  0  0
   11.9527    1.7272   21.7077 H   0  0  0  0  0  0  0  0  0  0  0  0
    9.2213    0.9397   21.3811 C   0  0  0  0  0  0  0  0  0  0  0  0
    9.5601    0.8206   20.2288 O   0  0  0  0  0  0  0  0  0  0  0  0
    9.8401    2.7550   22.3050 H   0  0  0  0  0  0  0  0  0  0  0  0
    9.5627    1.0561   24.5577 H   0  0  0  0  0  0  0  0  0  0  0  0
    6.4814   -0.9069   21.9347 H   0  0  0  0  0  0  0  0  0  0  0  0
    7.4504   -2.6223   20.4659 H   0  0  0  0  0  0  0  0  0  0  0  0
    8.8827   -1.5860   20.1628 H   0  0  0  0  0  0  0  0  0  0  0  0
    8.5894   -2.2021   21.7858 H   0  0  0  0  0  0  0  0  0  0  0  0
  1  2  1  0
  2  3  1  0
  3  4  2  0
  4  5  1  0
  5  6  2  0
  6  7  1  0
  7  8  2  0
  8  9  1  0
  6 10  1  0
  5 11  1  0
  4 12  1  0
  2 13  1  0
 13 14  1  0
 14 15  2  0
 14 16  1  0
 16 17  1  0
 17 18  1  0
 18 19  1  0
 18 20  1  0
 18 21  1  0
 17 22  1  0
 22 23  2  0
 17 24  1  6
 16 25  1  0
  2 26  1  0
  1 27  1  0
  1 28  1  0
  1 29  1  0
  8  3  1  0
 22 13  1  0
M  END
>  <plip>  (1) 
-0.03571428571428571

>  <filename>  (1) 
[H][c]1[n][c]([H])[c]([C]([H])([N]2[C](=[O])[N]([H])[C@@]([H])([C]([H])([H])[H])[C]2=[O])[C]([H])([H])[H])[c]([H])[c]1[H]

$$$$
