
     RDKit          3D

 31 33  0  0  0  0  0  0  0  0999 V2000
    4.9296    1.7844   16.9902 H   0  0  0  0  0  0  0  0  0  0  0  0
    5.4012    1.2932   17.8350 C   0  0  0  0  0  0  0  0  0  0  0  0
    6.5629    0.6739   17.5809 N   0  0  0  0  0  0  0  0  0  0  0  0
    7.1648    0.0580   18.5985 C   0  0  0  0  0  0  0  0  0  0  0  0
    8.1101   -0.4305   18.3772 H   0  0  0  0  0  0  0  0  0  0  0  0
    6.6470    0.0211   19.9041 C   0  0  0  0  0  0  0  0  0  0  0  0
    7.4034   -0.7095   20.9129 C   0  0  0  0  0  0  0  0  0  0  0  0
    8.3665   -1.5698   20.6791 N   0  0  0  0  0  0  0  0  0  0  0  0
    8.7788   -2.0019   21.9019 C   0  0  0  0  0  0  0  0  0  0  0  0
    9.5552   -2.7450   22.0036 H   0  0  0  0  0  0  0  0  0  0  0  0
    8.0818   -1.3893   22.9116 C   0  0  0  0  0  0  0  0  0  0  0  0
    8.0923   -1.5971   24.3885 C   0  0  0  0  0  0  0  0  0  0  0  0
    9.1045   -1.9057   24.6696 H   0  0  0  0  0  0  0  0  0  0  0  0
    7.9017   -0.6519   24.9177 H   0  0  0  0  0  0  0  0  0  0  0  0
    7.0889   -2.6594   24.7950 C   0  0  0  0  0  0  0  0  0  0  0  0
    7.4342   -4.0148   24.7716 C   0  0  0  0  0  0  0  0  0  0  0  0
    8.4454   -4.3093   24.5080 H   0  0  0  0  0  0  0  0  0  0  0  0
    6.4969   -4.9950   25.0853 C   0  0  0  0  0  0  0  0  0  0  0  0
    6.7645   -6.0457   25.0988 H   0  0  0  0  0  0  0  0  0  0  0  0
    5.1873   -4.6269   25.4106 C   0  0  0  0  0  0  0  0  0  0  0  0
    4.0580   -5.8732   25.8185 Cl  0  0  0  0  0  0  0  0  0  0  0  0
    4.8194   -3.2721   25.3997 C   0  0  0  0  0  0  0  0  0  0  0  0
    3.2120   -2.7532   25.7798 Cl  0  0  0  0  0  0  0  0  0  0  0  0
    5.7718   -2.3011   25.0846 C   0  0  0  0  0  0  0  0  0  0  0  0
    5.4602   -1.2604   25.0615 H   0  0  0  0  0  0  0  0  0  0  0  0
    7.1912   -0.5733   22.2511 N   0  0  0  0  0  0  0  0  0  0  0  0
    6.5097    0.0428   22.6526 H   0  0  0  0  0  0  0  0  0  0  0  0
    5.4239    0.6672   20.1597 C   0  0  0  0  0  0  0  0  0  0  0  0
    4.9695    0.6501   21.1563 H   0  0  0  0  0  0  0  0  0  0  0  0
    4.7995    1.3156   19.0981 C   0  0  0  0  0  0  0  0  0  0  0  0
    3.8685    1.8460   19.2492 H   0  0  0  0  0  0  0  0  0  0  0  0
  1  2  1  0
  2  3  2  0
  3  4  1  0
  4  5  1  0
  4  6  2  0
  6  7  1  0
  7  8  2  0
  8  9  1  0
  9 10  1  0
  9 11  2  0
 11 12  1  0
 12 13  1  0
 12 14  1  0
 12 15  1  0
 15 16  2  0
 16 17  1  0
 16 18  1  0
 18 19  1  0
 18 20  2  0
 20 21  1  0
 20 22  1  0
 22 23  1  0
 22 24  2  0
 24 25  1  0
 11 26  1  0
 26 27  1  0
  6 28  1  0
 28 29  1  0
 28 30  2  0
 30 31  1  0
 30  2  1  0
 26  7  1  0
 24 15  1  0
M  END
>  <plip>  (1) 
-0.10344827586206896

>  <filename>  (1) 
[H][c]1[n][c]([H])[c](-[c]2[n][c]([H])[c]([C]([H])([H])[c]3[c]([H])[c]([H])[c]([Cl])[c]([Cl])[c]3[H])[n]2[H])[c]([H])[c]1[H]

$$$$
