
     RDKit          3D

 47 49  0  0  0  0  0  0  0  0999 V2000
    8.7405   -1.2023   20.8472 C   0  0  0  0  0  0  0  0  0  0  0  0
    7.3844   -0.5676   21.2200 C   0  0  0  0  0  0  0  0  0  0  0  0
    7.6981    0.5482   22.2527 C   0  0  0  0  0  0  0  0  0  0  0  0
    8.2935    1.3299   21.7655 H   0  0  0  0  0  0  0  0  0  0  0  0
    8.3164    0.1684   23.0720 H   0  0  0  0  0  0  0  0  0  0  0  0
    6.8060    1.0300   22.6693 H   0  0  0  0  0  0  0  0  0  0  0  0
    6.5034   -1.7622   21.7804 C   0  0  0  0  0  0  0  0  0  0  0  0
    5.7729   -2.4214   21.0583 O   0  0  0  0  0  0  0  0  0  0  0  0
    6.6439   -2.1001   23.0958 N   0  0  0  0  0  0  0  0  0  0  0  0
    5.7655   -3.0770   23.7434 C   0  0  0  0  0  0  0  0  0  0  0  0
    5.6520   -2.6848   25.2232 C   0  0  0  0  0  0  0  0  0  0  0  0
    4.6319   -3.4750   26.0561 C   0  0  0  0  0  0  0  0  0  0  0  0
    4.8872   -4.9968   26.1353 C   0  0  0  0  0  0  0  0  0  0  0  0
    4.4733   -5.7670   24.8897 C   0  0  0  0  0  0  0  0  0  0  0  0
    3.4070   -6.6794   24.9599 C   0  0  0  0  0  0  0  0  0  0  0  0
    2.8592   -7.2459   23.8040 C   0  0  0  0  0  0  0  0  0  0  0  0
    3.4101   -6.9408   22.5577 C   0  0  0  0  0  0  0  0  0  0  0  0
    4.5287   -6.1081   22.4815 C   0  0  0  0  0  0  0  0  0  0  0  0
    5.0801   -5.5224   23.6319 C   0  0  0  0  0  0  0  0  0  0  0  0
    6.2292   -4.5370   23.4904 C   0  0  0  0  0  0  0  0  0  0  0  0
    7.0533   -4.8031   24.1678 H   0  0  0  0  0  0  0  0  0  0  0  0
    6.6278   -4.5935   22.4714 H   0  0  0  0  0  0  0  0  0  0  0  0
    4.9863   -5.8928   21.5142 H   0  0  0  0  0  0  0  0  0  0  0  0
    2.9820   -7.3622   21.6491 H   0  0  0  0  0  0  0  0  0  0  0  0
    1.9979   -7.9075   23.8735 H   0  0  0  0  0  0  0  0  0  0  0  0
    3.0041   -6.9424   25.9395 H   0  0  0  0  0  0  0  0  0  0  0  0
    4.3323   -5.3935   26.9945 H   0  0  0  0  0  0  0  0  0  0  0  0
    5.9515   -5.1772   26.3461 H   0  0  0  0  0  0  0  0  0  0  0  0
    4.6370   -3.0610   27.0747 H   0  0  0  0  0  0  0  0  0  0  0  0
    3.6215   -3.2989   25.6510 H   0  0  0  0  0  0  0  0  0  0  0  0
    6.6455   -2.7502   25.7003 H   0  0  0  0  0  0  0  0  0  0  0  0
    5.3582   -1.6277   25.2601 H   0  0  0  0  0  0  0  0  0  0  0  0
    4.7691   -3.0020   23.2820 H   0  0  0  0  0  0  0  0  0  0  0  0
    7.2246   -1.5304   23.6863 H   0  0  0  0  0  0  0  0  0  0  0  0
    6.6829    0.0852   20.0007 C   0  0  0  0  0  0  0  0  0  0  0  0
    5.4289    0.6934   20.1653 C   0  0  0  0  0  0  0  0  0  0  0  0
    4.8225    1.3206   19.0690 C   0  0  0  0  0  0  0  0  0  0  0  0
    5.4826    1.3106   17.8341 C   0  0  0  0  0  0  0  0  0  0  0  0
    6.6590    0.7049   17.6384 N   0  0  0  0  0  0  0  0  0  0  0  0
    7.2264    0.1116   18.7006 C   0  0  0  0  0  0  0  0  0  0  0  0
    8.1648   -0.3981   18.5023 H   0  0  0  0  0  0  0  0  0  0  0  0
    5.0428    1.8033   16.9653 H   0  0  0  0  0  0  0  0  0  0  0  0
    3.8683    1.8244   19.1579 H   0  0  0  0  0  0  0  0  0  0  0  0
    4.9225    0.6554   21.1322 H   0  0  0  0  0  0  0  0  0  0  0  0
    9.4346   -0.4662   20.4290 H   0  0  0  0  0  0  0  0  0  0  0  0
    8.6085   -2.0058   20.1270 H   0  0  0  0  0  0  0  0  0  0  0  0
    9.2121   -1.6209   21.7412 H   0  0  0  0  0  0  0  0  0  0  0  0
  1  2  1  0
  2  3  1  0
  3  4  1  0
  3  5  1  0
  3  6  1  0
  2  7  1  0
  7  8  2  0
  7  9  1  0
  9 10  1  0
 10 11  1  0
 11 12  1  0
 12 13  1  0
 13 14  1  0
 14 15  2  0
 15 16  1  0
 16 17  2  0
 17 18  1  0
 18 19  2  0
 19 20  1  0
 20 21  1  0
 20 22  1  0
 18 23  1  0
 17 24  1  0
 16 25  1  0
 15 26  1  0
 13 27  1  0
 13 28  1  0
 12 29  1  0
 12 30  1  0
 11 31  1  0
 11 32  1  0
 10 33  1  0
  9 34  1  0
  2 35  1  0
 35 36  2  0
 36 37  1  0
 37 38  2  0
 38 39  1  0
 39 40  2  0
 40 41  1  0
 38 42  1  0
 37 43  1  0
 36 44  1  0
  1 45  1  0
  1 46  1  0
  1 47  1  0
 20 10  1  0
 40 35  1  0
 19 14  1  0
M  END
>  <plip>  (1) 
-0.07142857142857142

>  <filename>  (1) 
[H][c]1[n][c]([H])[c]([C]([C](=[O])[N]([H])[C]2([H])[C]([H])([H])[c]3[c]([H])[c]([H])[c]([H])[c]([H])[c]3[C]([H])([H])[C]([H])([H])[C]2([H])[H])([C]([H])([H])[H])[C]([H])([H])[H])[c]([H])[c]1[H]

$$$$
