
     RDKit          3D

 44 44  0  0  0  0  0  0  0  0999 V2000
    9.2198    4.3877   25.2126 C   0  0  0  0  0  0  0  0  0  0  0  0
    9.4389    3.1917   24.3775 N   0  0  0  0  0  4  0  0  0  0  0  0
   10.2265    3.3972   23.1388 C   0  0  0  0  0  0  0  0  0  0  0  0
   10.3641    2.0292   22.4643 C   0  0  0  0  0  0  0  0  0  0  0  0
   11.2370    2.0907   21.2022 C   0  0  0  0  0  0  0  0  0  0  0  0
   12.1735    2.6206   21.4184 H   0  0  0  0  0  0  0  0  0  0  0  0
   11.5228    1.0982   20.8444 H   0  0  0  0  0  0  0  0  0  0  0  0
   10.7609    2.6307   20.3866 H   0  0  0  0  0  0  0  0  0  0  0  0
    8.6543    1.4018   22.3248 S   0  0  0  0  0  0  0  0  0  0  0  0
    8.2394    1.0139   23.6781 O   0  0  0  0  0  0  0  0  0  0  0  0
    7.8601    2.3812   21.6146 O   0  0  0  0  0  0  0  0  0  0  0  0
    8.7320   -0.0187   21.4164 N   0  0  0  0  0  0  0  0  0  0  0  0
    9.7019   -1.0291   21.9006 C   0  0  0  0  0  0  0  0  0  0  0  0
    9.3925   -1.7105   23.2388 C   0  0  0  0  0  0  0  0  0  0  0  0
   10.3631   -2.7188   23.4164 O   0  0  0  0  0  0  0  0  0  0  0  0
   10.1198   -3.5733   24.5072 C   0  0  0  0  0  0  0  0  0  0  0  0
   11.0085   -4.1997   24.6223 H   0  0  0  0  0  0  0  0  0  0  0  0
    9.2461   -4.2243   24.3351 H   0  0  0  0  0  0  0  0  0  0  0  0
    9.9583   -3.0163   25.4440 H   0  0  0  0  0  0  0  0  0  0  0  0
    8.3690   -2.1224   23.2108 H   0  0  0  0  0  0  0  0  0  0  0  0
    9.4179   -0.9759   24.0554 H   0  0  0  0  0  0  0  0  0  0  0  0
   10.7080   -0.6002   21.9485 H   0  0  0  0  0  0  0  0  0  0  0  0
    9.7721   -1.8101   21.1327 H   0  0  0  0  0  0  0  0  0  0  0  0
    7.3537   -0.5205   21.1491 C   0  0  0  0  0  0  0  0  0  0  0  0
    6.6842    0.2410   20.0388 C   0  0  0  0  0  0  0  0  0  0  0  0
    5.4130    0.8228   20.1439 C   0  0  0  0  0  0  0  0  0  0  0  0
    4.8299    1.3847   19.0028 C   0  0  0  0  0  0  0  0  0  0  0  0
    5.5405    1.3451   17.8002 C   0  0  0  0  0  0  0  0  0  0  0  0
    6.7658    0.8134   17.6877 N   0  0  0  0  0  0  0  0  0  0  0  0
    7.3241    0.3088   18.7952 C   0  0  0  0  0  0  0  0  0  0  0  0
    8.3325   -0.0882   18.6779 H   0  0  0  0  0  0  0  0  0  0  0  0
    5.1067    1.7609   16.8909 H   0  0  0  0  0  0  0  0  0  0  0  0
    3.8604    1.8629   19.0322 H   0  0  0  0  0  0  0  0  0  0  0  0
    4.8953    0.8717   21.1037 H   0  0  0  0  0  0  0  0  0  0  0  0
    7.4484   -1.5741   20.8370 H   0  0  0  0  0  0  0  0  0  0  0  0
    6.7250   -0.5319   22.0551 H   0  0  0  0  0  0  0  0  0  0  0  0
   10.8142    1.3189   23.1681 H   0  0  0  0  0  0  0  0  0  0  0  0
    9.7524    4.1147   22.4475 H   0  0  0  0  0  0  0  0  0  0  0  0
   11.2284    3.8175   23.3612 H   0  0  0  0  0  0  0  0  0  0  0  0
    9.9333    2.4759   24.9426 H   0  0  0  0  0  0  0  0  0  0  0  0
    8.5356    2.7267   24.1474 H   0  0  0  0  0  0  0  0  0  0  0  0
    8.8589    4.1105   26.2101 H   0  0  0  0  0  0  0  0  0  0  0  0
   10.1472    4.9683   25.3322 H   0  0  0  0  0  0  0  0  0  0  0  0
    8.4717    5.0561   24.7672 H   0  0  0  0  0  0  0  0  0  0  0  0
  1  2  1  0
  2  3  1  0
  3  4  1  0
  4  5  1  0
  5  6  1  0
  5  7  1  0
  5  8  1  0
  4  9  1  0
  9 10  2  0
  9 11  2  0
  9 12  1  0
 12 13  1  0
 13 14  1  0
 14 15  1  0
 15 16  1  0
 16 17  1  0
 16 18  1  0
 16 19  1  0
 14 20  1  0
 14 21  1  0
 13 22  1  0
 13 23  1  0
 12 24  1  0
 24 25  1  0
 25 26  2  0
 26 27  1  0
 27 28  2  0
 28 29  1  0
 29 30  2  0
 30 31  1  0
 28 32  1  0
 27 33  1  0
 26 34  1  0
 24 35  1  0
 24 36  1  0
  4 37  1  0
  3 38  1  0
  3 39  1  0
  2 40  1  0
  2 41  1  0
  1 42  1  0
  1 43  1  0
  1 44  1  0
 30 25  1  0
M  CHG  1   2   1
M  END
>  <plip>  (1) 
-0.10714285714285714

>  <filename>  (1) 
[H][c]1[n][c]([H])[c]([C]([H])([H])[N]([C]([H])([H])[C]([H])([H])[O][C]([H])([H])[H])[S](=[O])(=[O])[C]([H])([C]([H])([H])[H])[C]([H])([H])[N+]([H])([H])[C]([H])([H])[H])[c]([H])[c]1[H]

$$$$
