
     RDKit          3D

 44 46  0  0  0  0  0  0  0  0999 V2000
   12.0399   -1.3787   22.0267 C   0  0  0  0  0  0  0  0  0  0  0  0
   10.6777   -0.8103   22.4251 C   0  0  0  0  0  0  0  0  0  0  0  0
    9.8955   -0.5108   21.1489 C   0  0  0  0  0  0  0  0  0  0  0  0
    8.5756    0.0538   21.3959 N   0  0  0  0  0  0  0  0  0  0  0  0
    7.3730   -0.6930   21.0258 C   0  0  0  0  0  0  0  0  0  0  0  0
    6.6061   -0.0186   19.9044 C   0  0  0  0  0  0  0  0  0  0  0  0
    5.3979    0.6497   20.1380 C   0  0  0  0  0  0  0  0  0  0  0  0
    4.7722    1.3191   19.0808 C   0  0  0  0  0  0  0  0  0  0  0  0
    5.3870    1.3005   17.8246 C   0  0  0  0  0  0  0  0  0  0  0  0
    6.5488    0.6774   17.5810 N   0  0  0  0  0  0  0  0  0  0  0  0
    7.1410    0.0517   18.6060 C   0  0  0  0  0  0  0  0  0  0  0  0
    8.0998   -0.4118   18.3667 H   0  0  0  0  0  0  0  0  0  0  0  0
    4.9336    1.8116   16.9758 H   0  0  0  0  0  0  0  0  0  0  0  0
    3.8446    1.8683   19.2126 H   0  0  0  0  0  0  0  0  0  0  0  0
    4.9794    0.6621   21.1470 H   0  0  0  0  0  0  0  0  0  0  0  0
    6.7338   -0.8089   21.9083 H   0  0  0  0  0  0  0  0  0  0  0  0
    7.6928   -1.6993   20.7187 H   0  0  0  0  0  0  0  0  0  0  0  0
    8.5506    1.3843   21.7765 C   0  0  0  0  0  0  0  0  0  0  0  0
    9.4770    2.1426   21.5064 O   0  0  0  0  0  0  0  0  0  0  0  0
    7.3591    1.9301   22.5650 C   0  0  0  0  0  0  0  0  0  0  0  0
    6.9938    3.2626   22.4571 C   0  0  0  0  0  0  0  0  0  0  0  0
    5.9281    3.7370   23.2563 C   0  0  0  0  0  0  0  0  0  0  0  0
    5.4358    5.0712   23.2187 C   0  0  0  0  0  0  0  0  0  0  0  0
    4.3828    5.4267   24.0329 C   0  0  0  0  0  0  0  0  0  0  0  0
    3.7894    4.4786   24.9127 C   0  0  0  0  0  0  0  0  0  0  0  0
    4.2265    3.1731   25.0061 C   0  0  0  0  0  0  0  0  0  0  0  0
    3.5733    2.1861   25.9435 C   0  0  0  0  0  0  0  0  0  0  0  0
    2.7554    2.6502   26.5066 H   0  0  0  0  0  0  0  0  0  0  0  0
    4.2921    1.7805   26.6655 H   0  0  0  0  0  0  0  0  0  0  0  0
    3.1624    1.3262   25.4001 H   0  0  0  0  0  0  0  0  0  0  0  0
    5.3260    2.7872   24.1591 C   0  0  0  0  0  0  0  0  0  0  0  0
    5.7753    1.4929   24.2141 N   0  0  0  0  0  0  0  0  0  0  0  0
    6.7274    1.0769   23.4329 N   0  0  0  0  0  0  0  0  0  0  0  0
    2.9541    4.7949   25.5344 H   0  0  0  0  0  0  0  0  0  0  0  0
    3.9923    6.4404   24.0042 H   0  0  0  0  0  0  0  0  0  0  0  0
    5.8953    5.7864   22.5392 H   0  0  0  0  0  0  0  0  0  0  0  0
    7.5312    3.9251   21.7854 H   0  0  0  0  0  0  0  0  0  0  0  0
    9.7855   -1.4148   20.5327 H   0  0  0  0  0  0  0  0  0  0  0  0
   10.4581    0.2427   20.5969 H   0  0  0  0  0  0  0  0  0  0  0  0
   10.7966    0.1276   22.9838 H   0  0  0  0  0  0  0  0  0  0  0  0
   10.1156   -1.4993   23.0692 H   0  0  0  0  0  0  0  0  0  0  0  0
   12.5069   -0.7500   21.2668 H   0  0  0  0  0  0  0  0  0  0  0  0
   12.7612   -1.4588   22.8378 H   0  0  0  0  0  0  0  0  0  0  0  0
   11.9320   -2.3638   21.5685 H   0  0  0  0  0  0  0  0  0  0  0  0
  1  2  1  0
  2  3  1  0
  3  4  1  0
  4  5  1  0
  5  6  1  0
  6  7  2  0
  7  8  1  0
  8  9  2  0
  9 10  1  0
 10 11  2  0
 11 12  1  0
  9 13  1  0
  8 14  1  0
  7 15  1  0
  5 16  1  0
  5 17  1  0
  4 18  1  0
 18 19  2  0
 18 20  1  0
 20 21  2  0
 21 22  1  0
 22 23  2  0
 23 24  1  0
 24 25  2  0
 25 26  1  0
 26 27  1  0
 27 28  1  0
 27 29  1  0
 27 30  1  0
 26 31  2  0
 31 32  1  0
 32 33  2  0
 25 34  1  0
 24 35  1  0
 23 36  1  0
 21 37  1  0
  3 38  1  0
  3 39  1  0
  2 40  1  0
  2 41  1  0
  1 42  1  0
  1 43  1  0
  1 44  1  0
 11  6  1  0
 33 20  1  0
 31 22  1  0
M  END
>  <plip>  (1) 
-0.10714285714285714

>  <filename>  (1) 
[H][c]1[n][c]([H])[c]([C]([H])([H])[N]([C](=[O])[c]2[n][n][c]3[c]([C]([H])([H])[H])[c]([H])[c]([H])[c]([H])[c]3[c]2[H])[C]([H])([H])[C]([H])([H])[C]([H])([H])[H])[c]([H])[c]1[H]

$$$$
