
     RDKit          3D

 36 39  0  0  0  0  0  0  0  0999 V2000
    5.0259    1.7861   16.9851 H   0  0  0  0  0  0  0  0  0  0  0  0
    5.4419    1.2643   17.8471 C   0  0  0  0  0  0  0  0  0  0  0  0
    6.5920    0.6065   17.6417 N   0  0  0  0  0  0  0  0  0  0  0  0
    7.1265   -0.0242   18.6967 C   0  0  0  0  0  0  0  0  0  0  0  0
    8.0661   -0.5424   18.5179 H   0  0  0  0  0  0  0  0  0  0  0  0
    6.5669   -0.0537   19.9901 C   0  0  0  0  0  0  0  0  0  0  0  0
    7.2819   -0.7596   21.1238 C   0  0  0  0  0  0  0  0  0  0  0  0
    6.9952   -2.2147   21.3639 C   0  0  0  0  0  0  0  0  0  0  0  0
    7.7735   -3.2131   21.1270 N   0  0  0  0  0  0  0  0  0  0  0  0
    7.1252   -4.3659   21.5512 N   0  0  0  0  0  0  0  0  0  0  0  0
    6.0183   -3.9526   22.0640 C   0  0  0  0  0  0  0  0  0  0  0  0
    5.0846   -4.7047   22.6252 O   0  0  0  0  0  0  0  0  0  0  0  0
    4.3451   -4.2092   23.7596 C   0  0  0  0  0  0  0  0  0  0  0  0
    3.7022   -3.3779   23.4602 H   0  0  0  0  0  0  0  0  0  0  0  0
    3.7204   -5.0664   24.0114 H   0  0  0  0  0  0  0  0  0  0  0  0
    5.1779   -3.8022   24.9591 C   0  0  0  0  0  0  0  0  0  0  0  0
    5.2163   -2.4652   25.3695 C   0  0  0  0  0  0  0  0  0  0  0  0
    4.5564   -1.7317   24.9220 H   0  0  0  0  0  0  0  0  0  0  0  0
    6.0693   -2.0867   26.4094 C   0  0  0  0  0  0  0  0  0  0  0  0
    6.1564   -1.0340   26.6858 H   0  0  0  0  0  0  0  0  0  0  0  0
    6.7987   -2.9639   27.1093 N   0  0  0  0  0  0  0  0  0  0  0  0
    6.7001   -4.2593   26.7796 C   0  0  0  0  0  0  0  0  0  0  0  0
    7.2634   -4.9611   27.3985 H   0  0  0  0  0  0  0  0  0  0  0  0
    5.9194   -4.7240   25.7141 C   0  0  0  0  0  0  0  0  0  0  0  0
    5.8941   -5.7857   25.4966 H   0  0  0  0  0  0  0  0  0  0  0  0
    5.8291   -2.6180   21.9665 O   0  0  0  0  0  0  0  0  0  0  0  0
    8.7284   -0.3713   21.3301 C   0  0  0  0  0  0  0  0  0  0  0  0
    9.3869   -1.1820   21.6215 H   0  0  0  0  0  0  0  0  0  0  0  0
    9.1575    0.3600   20.6498 H   0  0  0  0  0  0  0  0  0  0  0  0
    7.7158    0.0847   22.3194 C   0  0  0  0  0  0  0  0  0  0  0  0
    7.7167   -0.3830   23.2985 H   0  0  0  0  0  0  0  0  0  0  0  0
    7.4504    1.1392   22.3263 H   0  0  0  0  0  0  0  0  0  0  0  0
    5.3640    0.6369   20.1746 C   0  0  0  0  0  0  0  0  0  0  0  0
    4.9014    0.6624   21.1641 H   0  0  0  0  0  0  0  0  0  0  0  0
    4.7880    1.2996   19.0846 C   0  0  0  0  0  0  0  0  0  0  0  0
    3.8588    1.8486   19.1820 H   0  0  0  0  0  0  0  0  0  0  0  0
  1  2  1  0
  2  3  2  0
  3  4  1  0
  4  5  1  0
  4  6  2  0
  6  7  1  0
  7  8  1  0
  8  9  2  0
  9 10  1  0
 10 11  2  0
 11 12  1  0
 12 13  1  0
 13 14  1  0
 13 15  1  0
 13 16  1  0
 16 17  2  0
 17 18  1  0
 17 19  1  0
 19 20  1  0
 19 21  2  0
 21 22  1  0
 22 23  1  0
 22 24  2  0
 24 25  1  0
 11 26  1  0
  7 27  1  0
 27 28  1  0
 27 29  1  0
 27 30  1  0
 30 31  1  0
 30 32  1  0
  6 33  1  0
 33 34  1  0
 33 35  2  0
 35 36  1  0
 35  2  1  0
 30  7  1  0
 26  8  1  0
 24 16  1  0
M  END
>  <plip>  (1) 
-0.034482758620689655

>  <filename>  (1) 
[H][c]1[n][c]([H])[c]([C]2([c]3[n][n][c]([O][C]([H])([H])[c]4[c]([H])[c]([H])[n][c]([H])[c]4[H])[o]3)[C]([H])([H])[C]2([H])[H])[c]([H])[c]1[H]

$$$$
