
     RDKit          3D

 37 39  0  0  0  0  0  0  0  0999 V2000
    4.9135    1.8120   16.9495 H   0  0  0  0  0  0  0  0  0  0  0  0
    5.3790    1.2916   17.7851 C   0  0  0  0  0  0  0  0  0  0  0  0
    6.5114    0.6279   17.5041 N   0  0  0  0  0  0  0  0  0  0  0  0
    7.1231   -0.0081   18.5064 C   0  0  0  0  0  0  0  0  0  0  0  0
    8.0376   -0.5520   18.2636 H   0  0  0  0  0  0  0  0  0  0  0  0
    6.6498   -0.0004   19.8336 C   0  0  0  0  0  0  0  0  0  0  0  0
    7.6232   -0.7888   21.1159 S   0  0  0  0  0  0  0  0  0  0  0  0
    8.5100    0.6291   21.7235 C   0  0  0  0  0  0  0  0  0  0  0  0
    9.7268    1.0110   21.3760 N   0  0  0  0  0  0  0  0  0  0  0  0
    9.9524    2.1754   22.0171 N   0  0  0  0  0  0  0  0  0  0  0  0
    8.9409    2.5211   22.7338 N   0  0  0  0  0  0  0  0  0  0  0  0
    8.0288    1.5565   22.5686 N   0  0  0  0  0  0  0  0  0  0  0  0
    6.8227    1.5173   23.1933 O   0  0  0  0  0  0  0  0  0  0  0  0
    6.5718    2.6217   24.1010 C   0  0  0  0  0  0  0  0  0  0  0  0
    6.8981    3.5606   23.6455 H   0  0  0  0  0  0  0  0  0  0  0  0
    5.4873    2.6184   24.2031 H   0  0  0  0  0  0  0  0  0  0  0  0
    7.2659    2.4271   25.4441 C   0  0  0  0  0  0  0  0  0  0  0  0
    8.3465    2.4540   25.2521 H   0  0  0  0  0  0  0  0  0  0  0  0
    7.0506    1.4211   25.8525 H   0  0  0  0  0  0  0  0  0  0  0  0
    6.8927    3.5117   26.3522 N   0  0  0  0  0  0  0  0  0  0  0  0
    7.9142    3.8024   27.3568 C   0  0  0  0  0  0  0  0  0  0  0  0
    8.8632    3.9717   26.8414 H   0  0  0  0  0  0  0  0  0  0  0  0
    8.0499    2.9716   28.0746 H   0  0  0  0  0  0  0  0  0  0  0  0
    7.5402    5.0623   28.1319 C   0  0  0  0  0  0  0  0  0  0  0  0
    7.4978    5.9073   27.4313 H   0  0  0  0  0  0  0  0  0  0  0  0
    8.2764    5.2976   28.9028 H   0  0  0  0  0  0  0  0  0  0  0  0
    6.2914    4.8996   28.7952 O   0  0  0  0  0  0  0  0  0  0  0  0
    5.2512    4.5530   27.8854 C   0  0  0  0  0  0  0  0  0  0  0  0
    4.3732    4.3258   28.5029 H   0  0  0  0  0  0  0  0  0  0  0  0
    5.0188    5.4144   27.2346 H   0  0  0  0  0  0  0  0  0  0  0  0
    5.5950    3.3302   27.0185 C   0  0  0  0  0  0  0  0  0  0  0  0
    5.5621    2.4122   27.6365 H   0  0  0  0  0  0  0  0  0  0  0  0
    4.7993    3.2072   26.2782 H   0  0  0  0  0  0  0  0  0  0  0  0
    5.4484    0.6650   20.1114 C   0  0  0  0  0  0  0  0  0  0  0  0
    5.0355    0.6671   21.1234 H   0  0  0  0  0  0  0  0  0  0  0  0
    4.8031    1.3215   19.0594 C   0  0  0  0  0  0  0  0  0  0  0  0
    3.8714    1.8565   19.2092 H   0  0  0  0  0  0  0  0  0  0  0  0
  1  2  1  0
  2  3  2  0
  3  4  1  0
  4  5  1  0
  4  6  2  0
  6  7  1  0
  7  8  1  0
  8  9  2  0
  9 10  1  0
 10 11  2  0
 11 12  1  0
 12 13  1  0
 13 14  1  0
 14 15  1  0
 14 16  1  0
 14 17  1  0
 17 18  1  0
 17 19  1  0
 17 20  1  0
 20 21  1  0
 21 22  1  0
 21 23  1  0
 21 24  1  0
 24 25  1  0
 24 26  1  0
 24 27  1  0
 27 28  1  0
 28 29  1  0
 28 30  1  0
 28 31  1  0
 31 32  1  0
 31 33  1  0
  6 34  1  0
 34 35  1  0
 34 36  2  0
 36 37  1  0
 36  2  1  0
 12  8  1  0
 31 20  1  0
M  END
>  <plip>  (1) 
-0.14285714285714285

>  <filename>  (1) 
[H][c]1[n][c]([H])[c]([S][c]2[n][n][n][n]2[O][C]([H])([H])[C]([H])([H])[N]2[C]([H])([H])[C]([H])([H])[O][C]([H])([H])[C]2([H])[H])[c]([H])[c]1[H]

$$$$
