
     RDKit          3D

 35 38  0  0  0  0  0  0  0  0999 V2000
    4.9230    1.7783   16.9958 H   0  0  0  0  0  0  0  0  0  0  0  0
    5.4030    1.2898   17.8420 C   0  0  0  0  0  0  0  0  0  0  0  0
    6.5670    0.6758   17.5882 N   0  0  0  0  0  0  0  0  0  0  0  0
    7.1809    0.0806   18.6178 C   0  0  0  0  0  0  0  0  0  0  0  0
    8.1143   -0.4209   18.3756 H   0  0  0  0  0  0  0  0  0  0  0  0
    6.6751    0.0311   19.9237 C   0  0  0  0  0  0  0  0  0  0  0  0
    7.4425   -0.7079   20.9766 C   0  0  0  0  0  0  0  0  0  0  0  0
    8.6637   -0.1236   21.4308 N   0  0  0  0  0  0  0  0  0  0  0  0
    9.4554   -0.2223   20.8251 H   0  0  0  0  0  0  0  0  0  0  0  0
    8.8308    0.7234   22.5216 C   0  0  0  0  0  0  0  0  0  0  0  0
    7.7944    1.5123   22.9703 C   0  0  0  0  0  0  0  0  0  0  0  0
    6.8497    1.4694   22.4339 H   0  0  0  0  0  0  0  0  0  0  0  0
    7.9543    2.3714   24.0887 C   0  0  0  0  0  0  0  0  0  0  0  0
    7.1128    2.9822   24.4043 H   0  0  0  0  0  0  0  0  0  0  0  0
    9.1546    2.4342   24.7568 C   0  0  0  0  0  0  0  0  0  0  0  0
    9.3175    3.0830   25.6111 H   0  0  0  0  0  0  0  0  0  0  0  0
   10.2483    1.6232   24.3307 C   0  0  0  0  0  0  0  0  0  0  0  0
   11.4162    1.7310   25.0425 N   0  0  0  0  0  0  0  0  0  0  0  0
   12.4185    0.9677   24.6781 C   0  0  0  0  0  0  0  0  0  0  0  0
   13.3369    1.0471   25.2574 H   0  0  0  0  0  0  0  0  0  0  0  0
   12.3750    0.0487   23.5931 C   0  0  0  0  0  0  0  0  0  0  0  0
   13.2530   -0.5436   23.3545 H   0  0  0  0  0  0  0  0  0  0  0  0
   11.2192   -0.0761   22.8680 C   0  0  0  0  0  0  0  0  0  0  0  0
   11.1344   -0.7980   22.0507 H   0  0  0  0  0  0  0  0  0  0  0  0
   10.0995    0.7444   23.2082 C   0  0  0  0  0  0  0  0  0  0  0  0
    6.7164   -1.5680   21.9693 C   0  0  0  0  0  0  0  0  0  0  0  0
    5.6379   -1.6133   21.9119 H   0  0  0  0  0  0  0  0  0  0  0  0
    7.1402   -1.6315   22.9641 H   0  0  0  0  0  0  0  0  0  0  0  0
    7.4755   -2.2119   20.8537 C   0  0  0  0  0  0  0  0  0  0  0  0
    6.8774   -2.6485   20.0624 H   0  0  0  0  0  0  0  0  0  0  0  0
    8.4076   -2.7189   21.0786 H   0  0  0  0  0  0  0  0  0  0  0  0
    5.4450    0.6606   20.1644 C   0  0  0  0  0  0  0  0  0  0  0  0
    5.0064    0.6275   21.1659 H   0  0  0  0  0  0  0  0  0  0  0  0
    4.8052    1.3093   19.1082 C   0  0  0  0  0  0  0  0  0  0  0  0
    3.8735    1.8409   19.2561 H   0  0  0  0  0  0  0  0  0  0  0  0
  1  2  1  0
  2  3  2  0
  3  4  1  0
  4  5  1  0
  4  6  2  0
  6  7  1  0
  7  8  1  0
  8  9  1  0
  8 10  1  0
 10 11  2  0
 11 12  1  0
 11 13  1  0
 13 14  1  0
 13 15  2  0
 15 16  1  0
 15 17  1  0
 17 18  2  0
 18 19  1  0
 19 20  1  0
 19 21  2  0
 21 22  1  0
 21 23  1  0
 23 24  1  0
 23 25  2  0
  7 26  1  0
 26 27  1  0
 26 28  1  0
 26 29  1  0
 29 30  1  0
 29 31  1  0
  6 32  1  0
 32 33  1  0
 32 34  2  0
 34 35  1  0
 34  2  1  0
 29  7  1  0
 25 10  1  0
 25 17  1  0
M  END
>  <plip>  (1) 
-0.10344827586206896

>  <filename>  (1) 
[H][c]1[n][c]([H])[c]([C]2([N]([H])[c]3[c]([H])[c]([H])[c]([H])[c]4[n][c]([H])[c]([H])[c]([H])[c]34)[C]([H])([H])[C]2([H])[H])[c]([H])[c]1[H]

$$$$
