
     RDKit          3D

 37 39  0  0  0  0  0  0  0  0999 V2000
    4.9179    1.7766   16.9169 H   0  0  0  0  0  0  0  0  0  0  0  0
    5.3957    1.2959   17.7680 C   0  0  0  0  0  0  0  0  0  0  0  0
    6.5375    0.6452   17.4982 N   0  0  0  0  0  0  0  0  0  0  0  0
    7.1451    0.0308   18.5195 C   0  0  0  0  0  0  0  0  0  0  0  0
    8.0580   -0.5145   18.2785 H   0  0  0  0  0  0  0  0  0  0  0  0
    6.6654    0.0305   19.8440 C   0  0  0  0  0  0  0  0  0  0  0  0
    7.4418   -0.6871   20.9453 C   0  0  0  0  0  0  0  0  0  0  0  0
    6.8408   -0.7557   21.8594 H   0  0  0  0  0  0  0  0  0  0  0  0
    7.6803   -1.7088   20.6291 H   0  0  0  0  0  0  0  0  0  0  0  0
    8.7295    0.0081   21.2936 C   0  0  0  0  0  0  0  0  0  0  0  0
    9.9383   -0.4168   21.0564 N   0  0  0  0  0  0  0  0  0  0  0  0
   10.8256    0.5529   21.4726 N   0  0  0  0  0  0  0  0  0  0  0  0
   10.1342    1.5408   21.9505 C   0  0  0  0  0  0  0  0  0  0  0  0
   10.5522    2.4307   22.4155 H   0  0  0  0  0  0  0  0  0  0  0  0
    8.7887    1.2662   21.8517 N   0  0  0  0  0  0  0  0  0  0  0  0
    7.6979    1.9319   22.4364 C   0  0  0  0  0  0  0  0  0  0  0  0
    6.7125    1.3477   22.8437 O   0  0  0  0  0  0  0  0  0  0  0  0
    7.8769    3.2662   22.4957 N   0  0  0  0  0  0  0  0  0  0  0  0
    8.6625    3.6589   22.0099 H   0  0  0  0  0  0  0  0  0  0  0  0
    6.9443    4.1120   23.2336 C   0  0  0  0  0  0  0  0  0  0  0  0
    5.9229    3.8518   22.9313 H   0  0  0  0  0  0  0  0  0  0  0  0
    7.1196    5.1510   22.9310 H   0  0  0  0  0  0  0  0  0  0  0  0
    7.0844    3.9526   24.7390 C   0  0  0  0  0  0  0  0  0  0  0  0
    8.1526    4.5563   25.4147 C   0  0  0  0  0  0  0  0  0  0  0  0
    8.8991    5.1109   24.8452 H   0  0  0  0  0  0  0  0  0  0  0  0
    8.2752    4.4259   26.8009 C   0  0  0  0  0  0  0  0  0  0  0  0
    9.1172    4.8928   27.2960 H   0  0  0  0  0  0  0  0  0  0  0  0
    7.3455    3.6713   27.5259 C   0  0  0  0  0  0  0  0  0  0  0  0
    7.4402    3.5670   28.6045 H   0  0  0  0  0  0  0  0  0  0  0  0
    6.3054    3.0305   26.8498 C   0  0  0  0  0  0  0  0  0  0  0  0
    5.6050    2.4063   27.3939 H   0  0  0  0  0  0  0  0  0  0  0  0
    6.1730    3.1699   25.4658 C   0  0  0  0  0  0  0  0  0  0  0  0
    5.3790    2.6490   24.9355 H   0  0  0  0  0  0  0  0  0  0  0  0
    5.4771    0.7231   20.1044 C   0  0  0  0  0  0  0  0  0  0  0  0
    5.1094    0.7711   21.1309 H   0  0  0  0  0  0  0  0  0  0  0  0
    4.8199    1.3561   19.0419 C   0  0  0  0  0  0  0  0  0  0  0  0
    3.8844    1.8884   19.1850 H   0  0  0  0  0  0  0  0  0  0  0  0
  1  2  1  0
  2  3  2  0
  3  4  1  0
  4  5  1  0
  4  6  2  0
  6  7  1  0
  7  8  1  0
  7  9  1  0
  7 10  1  0
 10 11  2  0
 11 12  1  0
 12 13  2  0
 13 14  1  0
 13 15  1  0
 15 16  1  0
 16 17  2  0
 16 18  1  0
 18 19  1  0
 18 20  1  0
 20 21  1  0
 20 22  1  0
 20 23  1  0
 23 24  2  0
 24 25  1  0
 24 26  1  0
 26 27  1  0
 26 28  2  0
 28 29  1  0
 28 30  1  0
 30 31  1  0
 30 32  2  0
 32 33  1  0
  6 34  1  0
 34 35  1  0
 34 36  2  0
 36 37  1  0
 36  2  1  0
 15 10  1  0
 32 23  1  0
M  END
>  <plip>  (1) 
-0.17857142857142858

>  <filename>  (1) 
[H][c]1[n][c]([H])[c]([C]([H])([H])[c]2[n][n][c]([H])[n]2[C](=[O])[N]([H])[C]([H])([H])[c]2[c]([H])[c]([H])[c]([H])[c]([H])[c]2[H])[c]([H])[c]1[H]

$$$$
