
     RDKit          3D

 35 37  0  0  0  0  0  0  0  0999 V2000
    4.9968    1.8078   16.9873 H   0  0  0  0  0  0  0  0  0  0  0  0
    5.4246    1.2558   17.8222 C   0  0  0  0  0  0  0  0  0  0  0  0
    6.5636    0.5939   17.5762 N   0  0  0  0  0  0  0  0  0  0  0  0
    7.1308   -0.0494   18.6069 C   0  0  0  0  0  0  0  0  0  0  0  0
    8.0846   -0.5271   18.3846 H   0  0  0  0  0  0  0  0  0  0  0  0
    6.6158   -0.0872   19.9128 C   0  0  0  0  0  0  0  0  0  0  0  0
    7.3495   -0.8378   21.0042 C   0  0  0  0  0  0  0  0  0  0  0  0
    6.8419   -2.1882   21.0792 N   0  0  0  0  0  0  0  0  0  0  0  0
    6.6224   -2.6181   20.1948 H   0  0  0  0  0  0  0  0  0  0  0  0
    7.3336   -3.1474   22.0424 C   0  0  1  0  0  0  0  0  0  0  0  0
    7.8599   -2.6058   22.8372 H   0  0  0  0  0  0  0  0  0  0  0  0
    6.1517   -3.8173   22.5378 N   0  0  0  0  0  0  0  0  0  0  0  0
    5.4300   -3.1231   22.3759 H   0  0  0  0  0  0  0  0  0  0  0  0
    5.9227   -5.0575   21.7835 C   0  0  0  0  0  0  0  0  0  0  0  0
    5.0179   -4.9731   21.1642 H   0  0  0  0  0  0  0  0  0  0  0  0
    5.7892   -5.8942   22.4881 H   0  0  0  0  0  0  0  0  0  0  0  0
    7.1774   -5.2669   20.9021 C   0  0  0  0  0  0  0  0  0  0  0  0
    7.5241   -6.3040   20.9058 H   0  0  0  0  0  0  0  0  0  0  0  0
    6.9642   -4.9919   19.8649 H   0  0  0  0  0  0  0  0  0  0  0  0
    8.1912   -4.2948   21.5015 C   0  0  0  0  0  0  0  0  0  0  0  0
    8.7102   -4.7576   22.3515 H   0  0  0  0  0  0  0  0  0  0  0  0
    8.9036   -3.9196   20.7642 H   0  0  0  0  0  0  0  0  0  0  0  0
    7.3426   -0.1306   22.3957 C   0  0  0  0  0  0  0  0  0  0  0  0
    6.8705   -0.7229   23.1867 H   0  0  0  0  0  0  0  0  0  0  0  0
    6.8865    0.8598   22.3813 H   0  0  0  0  0  0  0  0  0  0  0  0
    8.8894   -0.0909   22.4082 C   0  0  0  0  0  0  0  0  0  0  0  0
    9.3540   -0.7137   23.1809 H   0  0  0  0  0  0  0  0  0  0  0  0
    9.3159    0.9138   22.4841 H   0  0  0  0  0  0  0  0  0  0  0  0
    8.9098   -0.6986   20.9848 C   0  0  0  0  0  0  0  0  0  0  0  0
    9.2725   -0.0003   20.2288 H   0  0  0  0  0  0  0  0  0  0  0  0
    9.4520   -1.6445   20.8776 H   0  0  0  0  0  0  0  0  0  0  0  0
    5.4056    0.5918   20.1350 C   0  0  0  0  0  0  0  0  0  0  0  0
    4.9560    0.6074   21.1312 H   0  0  0  0  0  0  0  0  0  0  0  0
    4.8038    1.2745   19.0764 C   0  0  0  0  0  0  0  0  0  0  0  0
    3.8931    1.8432   19.2171 H   0  0  0  0  0  0  0  0  0  0  0  0
  1  2  1  0
  2  3  2  0
  3  4  1  0
  4  5  1  0
  4  6  2  0
  6  7  1  0
  7  8  1  0
  8  9  1  0
  8 10  1  0
 10 11  1  1
 10 12  1  0
 12 13  1  0
 12 14  1  0
 14 15  1  0
 14 16  1  0
 14 17  1  0
 17 18  1  0
 17 19  1  0
 17 20  1  0
 20 21  1  0
 20 22  1  0
  7 23  1  0
 23 24  1  0
 23 25  1  0
 23 26  1  0
 26 27  1  0
 26 28  1  0
 26 29  1  0
 29 30  1  0
 29 31  1  0
  6 32  1  0
 32 33  1  0
 32 34  2  0
 34 35  1  0
 34  2  1  0
 29  7  1  0
 20 10  1  0
M  END
>  <plip>  (1) 
-0.10344827586206896

>  <filename>  (1) 
[H][c]1[n][c]([H])[c]([C]2([N]([H])[C@@]3([H])[N]([H])[C]([H])([H])[C]([H])([H])[C]3([H])[H])[C]([H])([H])[C]([H])([H])[C]2([H])[H])[c]([H])[c]1[H]

$$$$
