
     RDKit          3D

 34 35  0  0  0  0  0  0  0  0999 V2000
    8.7138   -3.8441   23.7663 H   0  0  0  0  0  0  0  0  0  0  0  0
    9.6737   -3.9705   23.7532 O   0  0  0  0  0  0  0  0  0  0  0  0
   10.2039   -3.0006   22.9571 C   0  0  0  0  0  0  0  0  0  0  0  0
   11.5884   -2.9155   22.8639 C   0  0  0  0  0  0  0  0  0  0  0  0
   12.1794   -3.6056   23.4505 H   0  0  0  0  0  0  0  0  0  0  0  0
   12.1891   -1.9759   22.0201 C   0  0  0  0  0  0  0  0  0  0  0  0
   13.9087   -1.9488   21.7732 Cl  0  0  0  0  0  0  0  0  0  0  0  0
   11.4088   -1.0672   21.3152 C   0  0  0  0  0  0  0  0  0  0  0  0
   11.8633   -0.3761   20.6255 H   0  0  0  0  0  0  0  0  0  0  0  0
   10.0196   -1.0982   21.4501 C   0  0  0  0  0  0  0  0  0  0  0  0
    9.4281   -0.3327   20.9609 H   0  0  0  0  0  0  0  0  0  0  0  0
    9.4044   -2.1096   22.1964 C   0  0  0  0  0  0  0  0  0  0  0  0
    8.0485   -2.3458   22.2398 O   0  0  0  0  0  0  0  0  0  0  0  0
    7.2762   -1.9020   21.1455 C   0  0  2  0  0  0  0  0  0  0  0  0
    7.8126   -2.1224   20.2109 H   0  0  0  0  0  0  0  0  0  0  0  0
    7.0699   -0.4638   21.1948 N   0  0  0  0  0  0  0  0  0  0  0  0
    6.4982    0.1542   20.0594 C   0  0  0  0  0  0  0  0  0  0  0  0
    7.0927    0.0868   18.7721 C   0  0  0  0  0  0  0  0  0  0  0  0
    8.0416   -0.4377   18.6572 H   0  0  0  0  0  0  0  0  0  0  0  0
    6.5769    0.6389   17.6636 N   0  0  0  0  0  0  0  0  0  0  0  0
    5.4166    1.3019   17.7870 C   0  0  0  0  0  0  0  0  0  0  0  0
    5.0162    1.7419   16.8759 H   0  0  0  0  0  0  0  0  0  0  0  0
    4.7411    1.4369   19.0046 C   0  0  0  0  0  0  0  0  0  0  0  0
    3.8136    1.9940   19.0487 H   0  0  0  0  0  0  0  0  0  0  0  0
    5.2933    0.8704   20.1592 C   0  0  0  0  0  0  0  0  0  0  0  0
    4.8306    0.9758   21.1384 H   0  0  0  0  0  0  0  0  0  0  0  0
    7.0581    0.2367   22.4749 C   0  0  0  0  0  0  0  0  0  0  0  0
    6.9873    1.3114   22.2791 H   0  0  0  0  0  0  0  0  0  0  0  0
    7.9939    0.0626   23.0217 H   0  0  0  0  0  0  0  0  0  0  0  0
    6.2210   -0.0439   23.1341 H   0  0  0  0  0  0  0  0  0  0  0  0
    5.9899   -2.7016   21.0960 C   0  0  0  0  0  0  0  0  0  0  0  0
    5.3955   -2.3596   20.2461 H   0  0  0  0  0  0  0  0  0  0  0  0
    5.4197   -2.5837   22.0206 H   0  0  0  0  0  0  0  0  0  0  0  0
    6.2236   -3.7571   20.9386 H   0  0  0  0  0  0  0  0  0  0  0  0
  1  2  1  0
  2  3  1  0
  3  4  2  0
  4  5  1  0
  4  6  1  0
  6  7  1  0
  6  8  2  0
  8  9  1  0
  8 10  1  0
 10 11  1  0
 10 12  2  0
 12 13  1  0
 13 14  1  0
 14 15  1  6
 14 16  1  0
 16 17  1  0
 17 18  2  0
 18 19  1  0
 18 20  1  0
 20 21  2  0
 21 22  1  0
 21 23  1  0
 23 24  1  0
 23 25  2  0
 25 26  1  0
 16 27  1  0
 27 28  1  0
 27 29  1  0
 27 30  1  0
 14 31  1  0
 31 32  1  0
 31 33  1  0
 31 34  1  0
 12  3  1  0
 25 17  1  0
M  END
>  <plip>  (1) 
-0.06666666666666667

>  <filename>  (1) 
[H][O][c]1[c]([H])[c]([Cl])[c]([H])[c]([H])[c]1[O][C@]([H])([N]([c]1[c]([H])[n][c]([H])[c]([H])[c]1[H])[C]([H])([H])[H])[C]([H])([H])[H]

$$$$
