
     RDKit          3D

 29 32  0  0  0  0  0  0  0  0999 V2000
    4.8008    1.2796   19.0995 C   0  0  0  0  0  0  0  0  0  0  0  0
    5.4098    1.2863   17.8420 C   0  0  0  0  0  0  0  0  0  0  0  0
    6.5778    0.6660   17.6006 N   0  0  0  0  0  0  0  0  0  0  0  0
    7.1745    0.0329   18.6134 C   0  0  0  0  0  0  0  0  0  0  0  0
    6.6385   -0.0179   19.9123 C   0  0  0  0  0  0  0  0  0  0  0  0
    7.3530   -0.6769   20.9417 N   0  0  0  0  0  0  0  0  0  0  0  0
    7.7145   -1.9512   20.7606 N   0  0  0  0  0  0  0  0  0  0  0  0
    8.2490   -2.3304   21.9120 C   0  0  0  0  0  0  0  0  0  0  0  0
    8.2625   -1.2997   22.8561 C   0  0  0  0  0  0  0  0  0  0  0  0
    7.6928   -0.2237   22.2024 C   0  0  0  0  0  0  0  0  0  0  0  0
    7.5402    1.1652   22.6219 C   0  0  0  0  0  0  0  0  0  0  0  0
    7.3535    2.1785   21.8425 N   0  0  0  0  0  0  0  0  0  0  0  0
    7.2952    3.3438   22.5793 C   0  0  0  0  0  0  0  0  0  0  0  0
    7.0613    4.6349   22.0714 C   0  0  0  0  0  0  0  0  0  0  0  0
    7.0509    5.6896   22.9745 C   0  0  0  0  0  0  0  0  0  0  0  0
    7.2541    5.4270   24.3449 C   0  0  0  0  0  0  0  0  0  0  0  0
    7.4597    4.2154   24.8623 N   0  0  0  0  0  0  0  0  0  0  0  0
    7.4720    3.2099   23.9779 C   0  0  0  0  0  0  0  0  0  0  0  0
    7.6972    1.5229   24.3447 S   0  0  0  0  0  0  0  0  0  0  0  0
    7.2470    6.2424   25.0636 H   0  0  0  0  0  0  0  0  0  0  0  0
    6.8864    6.7068   22.6340 H   0  0  0  0  0  0  0  0  0  0  0  0
    6.8822    4.7799   21.0091 H   0  0  0  0  0  0  0  0  0  0  0  0
    8.6664   -1.3312   23.8632 H   0  0  0  0  0  0  0  0  0  0  0  0
    8.6108   -3.3447   22.0084 H   0  0  0  0  0  0  0  0  0  0  0  0
    5.4057    0.5935   20.1556 C   0  0  0  0  0  0  0  0  0  0  0  0
    4.9920    0.6332   21.1646 H   0  0  0  0  0  0  0  0  0  0  0  0
    8.1234   -0.4408   18.3768 H   0  0  0  0  0  0  0  0  0  0  0  0
    4.9388    1.7842   16.9960 H   0  0  0  0  0  0  0  0  0  0  0  0
    3.8845    1.8330   19.2590 H   0  0  0  0  0  0  0  0  0  0  0  0
  1  2  2  0
  2  3  1  0
  3  4  2  0
  4  5  1  0
  5  6  1  0
  6  7  1  0
  7  8  2  0
  8  9  1  0
  9 10  2  0
 10 11  1  0
 11 12  2  0
 12 13  1  0
 13 14  2  0
 14 15  1  0
 15 16  2  0
 16 17  1  0
 17 18  2  0
 18 19  1  0
 16 20  1  0
 15 21  1  0
 14 22  1  0
  9 23  1  0
  8 24  1  0
  5 25  2  0
 25 26  1  0
  4 27  1  0
  2 28  1  0
  1 29  1  0
 25  1  1  0
 10  6  1  0
 19 11  1  0
 18 13  1  0
M  END
>  <plip>  (1) 
-0.07142857142857142

>  <filename>  (1) 
[H][c]1[n][c]([H])[c](-[n]2[n][c]([H])[c]([H])[c]2-[c]2[n][c]3[c]([H])[c]([H])[c]([H])[n][c]3[s]2)[c]([H])[c]1[H]

$$$$
