
     RDKit          3D

 38 38  0  0  0  0  0  0  0  0999 V2000
   12.8916    6.7526   23.6796 C   0  0  0  0  0  0  0  0  0  0  0  0
   13.0850    5.3584   22.5759 P   0  0  0  0  0  0  0  0  0  0  0  0
   13.5249    5.9176   21.2802 O   0  0  0  0  0  0  0  0  0  0  0  0
   14.2917    4.1683   23.0819 C   0  0  0  0  0  0  0  0  0  0  0  0
   14.4666    3.4895   22.2482 H   0  0  0  0  0  0  0  0  0  0  0  0
   13.9201    3.5869   23.9139 H   0  0  0  0  0  0  0  0  0  0  0  0
   15.2154    4.6672   23.3641 H   0  0  0  0  0  0  0  0  0  0  0  0
   11.5054    4.5031   22.4376 C   0  0  0  0  0  0  0  0  0  0  0  0
   10.9972    3.5916   23.5741 C   0  0  0  0  0  0  0  0  0  0  0  0
    9.5409    3.2150   23.2640 C   0  0  0  0  0  0  0  0  0  0  0  0
    9.5361    1.9783   22.4857 N   0  0  0  0  0  0  0  0  0  0  0  0
    8.3970    1.3008   22.1371 C   0  0  0  0  0  0  0  0  0  0  0  0
    7.2912    1.6291   22.5339 O   0  0  0  0  0  0  0  0  0  0  0  0
    8.5887    0.2113   21.3293 N   0  0  0  0  0  0  0  0  0  0  0  0
    7.5045   -0.6820   20.9551 C   0  0  0  0  0  0  0  0  0  0  0  0
    6.7666    0.0035   19.8473 C   0  0  0  0  0  0  0  0  0  0  0  0
    5.5505    0.6449   20.0862 C   0  0  0  0  0  0  0  0  0  0  0  0
    4.9459    1.2948   19.0135 C   0  0  0  0  0  0  0  0  0  0  0  0
    5.5510    1.2797   17.7530 C   0  0  0  0  0  0  0  0  0  0  0  0
    6.7213    0.6605   17.5208 N   0  0  0  0  0  0  0  0  0  0  0  0
    7.3190    0.0511   18.5592 C   0  0  0  0  0  0  0  0  0  0  0  0
    8.2725   -0.4365   18.3855 H   0  0  0  0  0  0  0  0  0  0  0  0
    5.0597    1.7981   16.9362 H   0  0  0  0  0  0  0  0  0  0  0  0
    4.0140    1.8271   19.1460 H   0  0  0  0  0  0  0  0  0  0  0  0
    5.1042    0.6527   21.0811 H   0  0  0  0  0  0  0  0  0  0  0  0
    7.8984   -1.6517   20.6208 H   0  0  0  0  0  0  0  0  0  0  0  0
    6.8393   -0.8684   21.8113 H   0  0  0  0  0  0  0  0  0  0  0  0
    9.5427   -0.0003   21.0641 H   0  0  0  0  0  0  0  0  0  0  0  0
   10.3593    1.7473   21.9436 H   0  0  0  0  0  0  0  0  0  0  0  0
    8.9816    3.0877   24.1989 H   0  0  0  0  0  0  0  0  0  0  0  0
    9.0707    4.0326   22.6995 H   0  0  0  0  0  0  0  0  0  0  0  0
   11.6119    2.6874   23.6532 H   0  0  0  0  0  0  0  0  0  0  0  0
   11.0325    4.1120   24.5350 H   0  0  0  0  0  0  0  0  0  0  0  0
   10.7653    5.2803   22.2693 H   0  0  0  0  0  0  0  0  0  0  0  0
   11.5863    3.9011   21.5361 H   0  0  0  0  0  0  0  0  0  0  0  0
   13.3379    7.6227   23.1952 H   0  0  0  0  0  0  0  0  0  0  0  0
   11.8247    6.9237   23.8324 H   0  0  0  0  0  0  0  0  0  0  0  0
   13.3864    6.5803   24.6319 H   0  0  0  0  0  0  0  0  0  0  0  0
  1  2  1  0
  2  3  2  0
  2  4  1  0
  4  5  1  0
  4  6  1  0
  4  7  1  0
  2  8  1  0
  8  9  1  0
  9 10  1  0
 10 11  1  0
 11 12  1  0
 12 13  2  0
 12 14  1  0
 14 15  1  0
 15 16  1  0
 16 17  2  0
 17 18  1  0
 18 19  2  0
 19 20  1  0
 20 21  2  0
 21 22  1  0
 19 23  1  0
 18 24  1  0
 17 25  1  0
 15 26  1  0
 15 27  1  0
 14 28  1  0
 11 29  1  0
 10 30  1  0
 10 31  1  0
  9 32  1  0
  9 33  1  0
  8 34  1  0
  8 35  1  0
  1 36  1  0
  1 37  1  0
  1 38  1  0
 21 16  1  0
M  END
>  <plip>  (1) 
-0.10344827586206896

>  <filename>  (1) 
[H][c]1[n][c]([H])[c]([C]([H])([H])[N]([H])[C](=[O])[N]([H])[C]([H])([H])[C]([H])([H])[C]([H])([H])[P](=[O])([C]([H])([H])[H])[C]([H])([H])[H])[c]([H])[c]1[H]

$$$$
