
     RDKit          3D

 28 28  0  0  0  0  0  0  0  0999 V2000
    4.9610    1.8443   16.9530 H   0  0  0  0  0  0  0  0  0  0  0  0
    5.4144    1.3177   17.7887 C   0  0  0  0  0  0  0  0  0  0  0  0
    6.5687    0.6844   17.5339 N   0  0  0  0  0  0  0  0  0  0  0  0
    7.1406    0.0429   18.5602 C   0  0  0  0  0  0  0  0  0  0  0  0
    8.0860   -0.4527   18.3362 H   0  0  0  0  0  0  0  0  0  0  0  0
    6.6210   -0.0120   19.8619 C   0  0  0  0  0  0  0  0  0  0  0  0
    7.3920   -0.7011   20.9668 C   0  0  2  0  0  0  0  0  0  0  0  0
    8.2566   -1.2405   20.5658 H   0  0  0  0  0  0  0  0  0  0  0  0
    6.3830   -1.9864   21.7199 Cl  0  0  0  0  0  0  0  0  0  0  0  0
    7.9063    0.2721   22.0408 C   0  0  0  0  0  0  0  0  0  0  0  0
    8.3597    1.1306   21.5131 H   0  0  0  0  0  0  0  0  0  0  0  0
    7.0726    0.6566   22.6402 H   0  0  0  0  0  0  0  0  0  0  0  0
    8.7928   -0.3660   22.9344 O   0  0  0  0  0  0  0  0  0  0  0  0
   10.1826   -0.2919   22.6575 C   0  0  0  0  0  0  0  0  0  0  0  0
   10.4027   -0.3665   21.5800 H   0  0  0  0  0  0  0  0  0  0  0  0
   10.6447   -1.1615   23.1388 H   0  0  0  0  0  0  0  0  0  0  0  0
   10.7756    0.9959   23.2487 C   0  0  0  0  0  0  0  0  0  0  0  0
   10.2607    1.8620   22.8188 H   0  0  0  0  0  0  0  0  0  0  0  0
   10.5477    1.0017   24.3265 H   0  0  0  0  0  0  0  0  0  0  0  0
   12.1546    1.1318   22.9646 O   0  0  0  0  0  0  0  0  0  0  0  0
   13.0535    0.6798   23.9568 C   0  0  0  0  0  0  0  0  0  0  0  0
   14.0088    0.4881   23.4524 H   0  0  0  0  0  0  0  0  0  0  0  0
   13.2023    1.4271   24.7536 H   0  0  0  0  0  0  0  0  0  0  0  0
   12.7145   -0.2434   24.4528 H   0  0  0  0  0  0  0  0  0  0  0  0
    5.4094    0.6495   20.1064 C   0  0  0  0  0  0  0  0  0  0  0  0
    4.9556    0.6431   21.1026 H   0  0  0  0  0  0  0  0  0  0  0  0
    4.7969    1.3193   19.0463 C   0  0  0  0  0  0  0  0  0  0  0  0
    3.8675    1.8568   19.1842 H   0  0  0  0  0  0  0  0  0  0  0  0
  1  2  1  0
  2  3  2  0
  3  4  1  0
  4  5  1  0
  4  6  2  0
  6  7  1  0
  7  8  1  6
  7  9  1  0
  7 10  1  0
 10 11  1  0
 10 12  1  0
 10 13  1  0
 13 14  1  0
 14 15  1  0
 14 16  1  0
 14 17  1  0
 17 18  1  0
 17 19  1  0
 17 20  1  0
 20 21  1  0
 21 22  1  0
 21 23  1  0
 21 24  1  0
  6 25  1  0
 25 26  1  0
 25 27  2  0
 27 28  1  0
 27  2  1  0
M  END
>  <plip>  (1) 
-0.03571428571428571

>  <filename>  (1) 
[H][c]1[n][c]([H])[c]([C@]([H])([Cl])[C]([H])([H])[O][C]([H])([H])[C]([H])([H])[O][C]([H])([H])[H])[c]([H])[c]1[H]

$$$$
