
     RDKit          3D

 33 35  0  0  0  0  0  0  0  0999 V2000
   12.0566    0.1462   22.8084 O   0  0  0  0  0  0  0  0  0  0  0  0
   11.6181    1.2620   22.7367 C   0  0  0  0  0  0  0  0  0  0  0  0
   12.3915    2.2921   23.2488 O   0  0  0  0  0  0  0  0  0  0  0  0
   11.9510    3.5911   23.2742 C   0  0  0  0  0  0  0  0  0  0  0  0
   12.8330    4.5735   23.7451 C   0  0  0  0  0  0  0  0  0  0  0  0
   12.3909    5.8921   23.8625 C   0  0  0  0  0  0  0  0  0  0  0  0
   11.0668    6.2133   23.5060 C   0  0  0  0  0  0  0  0  0  0  0  0
   10.2024    5.2445   23.0274 C   0  0  0  0  0  0  0  0  0  0  0  0
   10.6417    3.9116   22.8710 C   0  0  0  0  0  0  0  0  0  0  0  0
    9.8452    2.8788   22.2409 C   0  0  0  0  0  0  0  0  0  0  0  0
   10.3112    1.6213   22.1083 C   0  0  0  0  0  0  0  0  0  0  0  0
    9.5575    0.5877   21.3113 C   0  0  0  0  0  0  0  0  0  0  0  0
    8.1174   -0.0109   22.2486 S   0  0  0  0  0  0  0  0  0  0  0  0
    7.2299   -0.9497   20.9550 C   0  0  0  0  0  0  0  0  0  0  0  0
    6.5839   -0.1164   19.8723 C   0  0  0  0  0  0  0  0  0  0  0  0
    5.4070    0.6101   20.1137 C   0  0  0  0  0  0  0  0  0  0  0  0
    4.8302    1.3292   19.0645 C   0  0  0  0  0  0  0  0  0  0  0  0
    5.4538    1.3086   17.8115 C   0  0  0  0  0  0  0  0  0  0  0  0
    6.5861    0.6340   17.5590 N   0  0  0  0  0  0  0  0  0  0  0  0
    7.1232   -0.0531   18.5765 C   0  0  0  0  0  0  0  0  0  0  0  0
    8.0369   -0.6055   18.3452 H   0  0  0  0  0  0  0  0  0  0  0  0
    5.0243    1.8491   16.9702 H   0  0  0  0  0  0  0  0  0  0  0  0
    3.9133    1.8961   19.2035 H   0  0  0  0  0  0  0  0  0  0  0  0
    4.9648    0.6109   21.1132 H   0  0  0  0  0  0  0  0  0  0  0  0
    7.9039   -1.6928   20.5137 H   0  0  0  0  0  0  0  0  0  0  0  0
    6.4646   -1.5061   21.5140 H   0  0  0  0  0  0  0  0  0  0  0  0
   10.2029   -0.2495   21.0371 H   0  0  0  0  0  0  0  0  0  0  0  0
    9.1837    1.0364   20.3830 H   0  0  0  0  0  0  0  0  0  0  0  0
    8.8827    3.1622   21.8013 H   0  0  0  0  0  0  0  0  0  0  0  0
    9.1832    5.5195   22.7618 H   0  0  0  0  0  0  0  0  0  0  0  0
   10.6953    7.2221   23.5808 H   0  0  0  0  0  0  0  0  0  0  0  0
   13.0703    6.6580   24.2381 H   0  0  0  0  0  0  0  0  0  0  0  0
   13.8323    4.2818   24.0419 H   0  0  0  0  0  0  0  0  0  0  0  0
  1  2  2  0
  2  3  1  0
  3  4  1  0
  4  5  2  0
  5  6  1  0
  6  7  2  0
  7  8  1  0
  8  9  2  0
  9 10  1  0
 10 11  2  0
 11 12  1  0
 12 13  1  0
 13 14  1  0
 14 15  1  0
 15 16  2  0
 16 17  1  0
 17 18  2  0
 18 19  1  0
 19 20  2  0
 20 21  1  0
 18 22  1  0
 17 23  1  0
 16 24  1  0
 14 25  1  0
 14 26  1  0
 12 27  1  0
 12 28  1  0
 10 29  1  0
  8 30  1  0
  7 31  1  0
  6 32  1  0
  5 33  1  0
 11  2  1  0
 20 15  1  0
  9  4  1  0
M  END
>  <plip>  (1) 
-0.07142857142857142

>  <filename>  (1) 
[H][c]1[n][c]([H])[c]([C]([H])([H])[S][C]([H])([H])[c]2[c]([H])[c]3[c]([H])[c]([H])[c]([H])[c]([H])[c]3[o][c]2=[O])[c]([H])[c]1[H]

$$$$
