
     RDKit          3D

 33 35  0  0  0  0  0  0  0  0999 V2000
    9.3343   -2.5543   23.6534 H   0  0  0  0  0  0  0  0  0  0  0  0
    8.7497   -2.0250   22.9039 C   0  0  0  0  0  0  0  0  0  0  0  0
    9.2141   -1.9562   21.6620 N   0  0  0  0  0  0  0  0  0  0  0  0
    8.4996   -1.2968   20.7432 N   0  0  0  0  0  0  0  0  0  0  0  0
    7.3381   -0.7094   21.0890 C   0  0  0  0  0  0  0  0  0  0  0  0
    6.6339   -0.0055   19.9947 C   0  0  0  0  0  0  0  0  0  0  0  0
    7.1835    0.0190   18.6977 C   0  0  0  0  0  0  0  0  0  0  0  0
    8.1319   -0.4620   18.4684 H   0  0  0  0  0  0  0  0  0  0  0  0
    6.6016    0.6256   17.6599 N   0  0  0  0  0  0  0  0  0  0  0  0
    5.4412    1.2552   17.8843 C   0  0  0  0  0  0  0  0  0  0  0  0
    4.9949    1.7528   17.0257 H   0  0  0  0  0  0  0  0  0  0  0  0
    4.8105    1.2953   19.1316 C   0  0  0  0  0  0  0  0  0  0  0  0
    3.8751    1.8370   19.2499 H   0  0  0  0  0  0  0  0  0  0  0  0
    5.4139    0.6536   20.2108 C   0  0  0  0  0  0  0  0  0  0  0  0
    4.9569    0.6615   21.2029 H   0  0  0  0  0  0  0  0  0  0  0  0
    6.7963   -0.7304   22.3191 N   0  0  0  0  0  0  0  0  0  0  0  0
    7.5033   -1.4075   23.2282 C   0  0  0  0  0  0  0  0  0  0  0  0
    6.9146   -1.4464   24.4396 N   0  0  0  0  0  0  0  0  0  0  0  0
    6.0753   -0.8783   24.3872 H   0  0  0  0  0  0  0  0  0  0  0  0
    7.4807   -2.0382   25.6439 C   0  0  0  0  0  0  0  0  0  0  0  0
    7.8274   -3.0484   25.3771 H   0  0  0  0  0  0  0  0  0  0  0  0
    8.6573   -1.2326   26.2445 C   0  0  0  0  0  0  0  0  0  0  0  0
    9.3496   -1.9402   26.7238 H   0  0  0  0  0  0  0  0  0  0  0  0
    9.2309   -0.7117   25.4676 H   0  0  0  0  0  0  0  0  0  0  0  0
    8.0500   -0.2688   27.3016 C   0  0  0  0  0  0  0  0  0  0  0  0
    8.6897   -0.2111   28.1923 H   0  0  0  0  0  0  0  0  0  0  0  0
    7.9953    0.7538   26.9079 H   0  0  0  0  0  0  0  0  0  0  0  0
    6.6194   -0.8037   27.6045 C   0  0  0  0  0  0  0  0  0  0  0  0
    5.8661   -0.0713   27.2865 H   0  0  0  0  0  0  0  0  0  0  0  0
    6.4303   -0.9690   28.6724 H   0  0  0  0  0  0  0  0  0  0  0  0
    6.4822   -2.1187   26.8014 C   0  0  0  0  0  0  0  0  0  0  0  0
    6.7756   -2.9768   27.4248 H   0  0  0  0  0  0  0  0  0  0  0  0
    5.4668   -2.3175   26.4382 H   0  0  0  0  0  0  0  0  0  0  0  0
  1  2  1  0
  2  3  2  0
  3  4  1  0
  4  5  2  0
  5  6  1  0
  6  7  2  0
  7  8  1  0
  7  9  1  0
  9 10  2  0
 10 11  1  0
 10 12  1  0
 12 13  1  0
 12 14  2  0
 14 15  1  0
  5 16  1  0
 16 17  2  0
 17 18  1  0
 18 19  1  0
 18 20  1  0
 20 21  1  0
 20 22  1  0
 22 23  1  0
 22 24  1  0
 22 25  1  0
 25 26  1  0
 25 27  1  0
 25 28  1  0
 28 29  1  0
 28 30  1  0
 28 31  1  0
 31 32  1  0
 31 33  1  0
 17  2  1  0
 31 20  1  0
 14  6  1  0
M  END
>  <plip>  (1) 
-0.03571428571428571

>  <filename>  (1) 
[H][c]1[n][n][c](-[c]2[c]([H])[n][c]([H])[c]([H])[c]2[H])[n][c]1[N]([H])[C]1([H])[C]([H])([H])[C]([H])([H])[C]([H])([H])[C]1([H])[H]

$$$$
