
     RDKit          3D

 49 51  0  0  0  0  0  0  0  0999 V2000
    9.3228    1.8716   22.9675 C   0  0  0  0  0  0  0  0  0  0  0  0
    8.9022    0.9152   21.9738 O   0  0  0  0  0  0  0  0  0  0  0  0
    7.7307    0.2901   22.2081 C   0  0  0  0  0  0  0  0  0  0  0  0
    7.0303    0.5054   23.1703 O   0  0  0  0  0  0  0  0  0  0  0  0
    7.4077   -0.7262   21.0428 C   0  0  0  0  0  0  0  0  0  0  0  0
    6.6429   -1.9276   21.4341 N   0  0  0  0  0  0  0  0  0  0  0  0
    7.1868   -2.8741   22.2675 C   0  0  0  0  0  0  0  0  0  0  0  0
    8.3725   -2.8614   22.5461 O   0  0  0  0  0  0  0  0  0  0  0  0
    6.2560   -3.9075   22.8553 C   0  0  0  0  0  0  0  0  0  0  0  0
    5.6223   -3.4387   24.1766 C   0  0  0  0  0  0  0  0  0  0  0  0
    4.8094   -4.4671   24.7980 N   0  0  0  0  0  0  0  0  0  0  0  0
    3.4274   -4.6320   24.3491 C   0  0  0  0  0  0  0  0  0  0  0  0
    2.4699   -4.7596   25.5411 C   0  0  0  0  0  0  0  0  0  0  0  0
    2.8564   -5.9911   26.3686 C   0  0  0  0  0  0  0  0  0  0  0  0
    4.3606   -6.0563   26.6137 C   0  0  0  0  0  0  0  0  0  0  0  0
    4.8570   -6.8777   27.6307 C   0  0  0  0  0  0  0  0  0  0  0  0
    6.2259   -6.9975   27.8738 C   0  0  0  0  0  0  0  0  0  0  0  0
    7.1311   -6.2908   27.0760 C   0  0  0  0  0  0  0  0  0  0  0  0
    6.6633   -5.4610   26.0558 C   0  0  0  0  0  0  0  0  0  0  0  0
    5.2788   -5.3171   25.8079 C   0  0  0  0  0  0  0  0  0  0  0  0
    7.3624   -4.9226   25.4234 H   0  0  0  0  0  0  0  0  0  0  0  0
    8.2023   -6.3933   27.2445 H   0  0  0  0  0  0  0  0  0  0  0  0
    6.5780   -7.6554   28.6631 H   0  0  0  0  0  0  0  0  0  0  0  0
    4.1430   -7.4357   28.2375 H   0  0  0  0  0  0  0  0  0  0  0  0
    2.3205   -6.0016   27.3285 H   0  0  0  0  0  0  0  0  0  0  0  0
    2.5421   -6.9091   25.8433 H   0  0  0  0  0  0  0  0  0  0  0  0
    1.4322   -4.8313   25.1939 H   0  0  0  0  0  0  0  0  0  0  0  0
    2.5462   -3.8541   26.1582 H   0  0  0  0  0  0  0  0  0  0  0  0
    3.1665   -3.7570   23.7485 H   0  0  0  0  0  0  0  0  0  0  0  0
    3.3278   -5.5230   23.7001 H   0  0  0  0  0  0  0  0  0  0  0  0
    6.3861   -3.0903   24.8856 H   0  0  0  0  0  0  0  0  0  0  0  0
    4.9601   -2.5802   24.0070 H   0  0  0  0  0  0  0  0  0  0  0  0
    5.4735   -4.2054   22.1496 H   0  0  0  0  0  0  0  0  0  0  0  0
    6.8777   -4.7825   23.0672 H   0  0  0  0  0  0  0  0  0  0  0  0
    5.6393   -1.8786   21.3688 H   0  0  0  0  0  0  0  0  0  0  0  0
    6.6539   -0.0209   19.9164 C   0  0  0  0  0  0  0  0  0  0  0  0
    5.4374    0.6338   20.1592 C   0  0  0  0  0  0  0  0  0  0  0  0
    4.8034    1.2939   19.1041 C   0  0  0  0  0  0  0  0  0  0  0  0
    5.4020    1.2788   17.8408 C   0  0  0  0  0  0  0  0  0  0  0  0
    6.5581    0.6503   17.5834 N   0  0  0  0  0  0  0  0  0  0  0  0
    7.1593    0.0253   18.6049 C   0  0  0  0  0  0  0  0  0  0  0  0
    8.1164   -0.4391   18.3621 H   0  0  0  0  0  0  0  0  0  0  0  0
    4.9392    1.7922   16.9991 H   0  0  0  0  0  0  0  0  0  0  0  0
    3.8775    1.8386   19.2487 H   0  0  0  0  0  0  0  0  0  0  0  0
    5.0159    0.6543   21.1675 H   0  0  0  0  0  0  0  0  0  0  0  0
    8.3873   -1.0557   20.6819 H   0  0  0  0  0  0  0  0  0  0  0  0
    9.4330    1.3792   23.9391 H   0  0  0  0  0  0  0  0  0  0  0  0
   10.2754    2.2654   22.6117 H   0  0  0  0  0  0  0  0  0  0  0  0
    8.5781    2.6682   23.0710 H   0  0  0  0  0  0  0  0  0  0  0  0
  1  2  1  0
  2  3  1  0
  3  4  2  0
  3  5  1  0
  5  6  1  0
  6  7  1  0
  7  8  2  0
  7  9  1  0
  9 10  1  0
 10 11  1  0
 11 12  1  0
 12 13  1  0
 13 14  1  0
 14 15  1  0
 15 16  2  0
 16 17  1  0
 17 18  2  0
 18 19  1  0
 19 20  2  0
 19 21  1  0
 18 22  1  0
 17 23  1  0
 16 24  1  0
 14 25  1  0
 14 26  1  0
 13 27  1  0
 13 28  1  0
 12 29  1  0
 12 30  1  0
 10 31  1  0
 10 32  1  0
  9 33  1  0
  9 34  1  0
  6 35  1  0
  5 36  1  0
 36 37  2  0
 37 38  1  0
 38 39  2  0
 39 40  1  0
 40 41  2  0
 41 42  1  0
 39 43  1  0
 38 44  1  0
 37 45  1  0
  5 46  1  0
  1 47  1  0
  1 48  1  0
  1 49  1  0
 20 11  1  0
 41 36  1  0
 20 15  1  0
M  END
>  <plip>  (1) 
-0.06896551724137931

>  <filename>  (1) 
[H][c]1[n][c]([H])[c]([C]([H])([C](=[O])[O][C]([H])([H])[H])[N]([H])[C](=[O])[C]([H])([H])[C]([H])([H])[N]2[c]3[c]([H])[c]([H])[c]([H])[c]([H])[c]3[C]([H])([H])[C]([H])([H])[C]2([H])[H])[c]([H])[c]1[H]

$$$$
