
     RDKit          3D

 43 46  0  0  0  0  0  0  0  0999 V2000
    9.2353    3.6875   23.6736 C   0  0  0  0  0  0  0  0  0  0  0  0
    8.3075    2.6008   23.4688 N   0  0  0  0  0  0  0  0  0  0  0  0
    8.4797    1.4762   22.7401 C   0  0  0  0  0  0  0  0  0  0  0  0
    7.3533    0.6977   22.9197 C   0  0  0  0  0  0  0  0  0  0  0  0
    7.0560   -0.6525   22.3206 C   0  0  0  0  0  0  0  0  0  0  0  0
    7.3012   -0.8034   20.8951 N   0  0  0  0  0  0  0  0  0  0  0  0
    6.6698   -0.0482   19.9018 C   0  0  0  0  0  0  0  0  0  0  0  0
    5.4669    0.6381   20.1537 C   0  0  0  0  0  0  0  0  0  0  0  0
    4.8273    1.3057   19.1020 C   0  0  0  0  0  0  0  0  0  0  0  0
    5.4082    1.3045   17.8320 C   0  0  0  0  0  0  0  0  0  0  0  0
    6.5665    0.6739   17.5613 N   0  0  0  0  0  0  0  0  0  0  0  0
    7.1700    0.0272   18.5671 C   0  0  0  0  0  0  0  0  0  0  0  0
    8.1164   -0.4575   18.3110 H   0  0  0  0  0  0  0  0  0  0  0  0
    4.9358    1.8225   17.0020 H   0  0  0  0  0  0  0  0  0  0  0  0
    3.8958    1.8355   19.2745 H   0  0  0  0  0  0  0  0  0  0  0  0
    5.0609    0.6753   21.1643 H   0  0  0  0  0  0  0  0  0  0  0  0
    8.2500   -1.0796   20.6885 H   0  0  0  0  0  0  0  0  0  0  0  0
    7.6564   -1.4347   22.8010 H   0  0  0  0  0  0  0  0  0  0  0  0
    6.0254   -0.9333   22.5418 H   0  0  0  0  0  0  0  0  0  0  0  0
    6.5391    1.4750   23.7888 C   0  0  0  0  0  0  0  0  0  0  0  0
    5.1574    1.1577   24.3247 C   0  0  0  0  0  0  0  0  0  0  0  0
    4.2953    2.2896   24.6602 N   0  0  0  0  0  0  0  0  0  0  0  0
    3.6181    2.9910   23.6698 C   0  0  0  0  0  0  0  0  0  0  0  0
    3.4815    2.5754   22.5378 O   0  0  0  0  0  0  0  0  0  0  0  0
    3.1467    4.2534   24.2909 C   0  0  0  0  0  0  0  0  0  0  0  0
    2.4667    5.3409   23.7453 C   0  0  0  0  0  0  0  0  0  0  0  0
    2.2361    6.4468   24.5691 C   0  0  0  0  0  0  0  0  0  0  0  0
    2.6809    6.4572   25.9079 C   0  0  0  0  0  0  0  0  0  0  0  0
    3.3600    5.3590   26.4462 C   0  0  0  0  0  0  0  0  0  0  0  0
    3.5788    4.2594   25.6157 C   0  0  0  0  0  0  0  0  0  0  0  0
    4.3094    2.9830   25.8695 C   0  0  0  0  0  0  0  0  0  0  0  0
    4.8274    2.5865   26.8853 O   0  0  0  0  0  0  0  0  0  0  0  0
    3.7214    5.3682   27.4714 H   0  0  0  0  0  0  0  0  0  0  0  0
    2.4964    7.3346   26.5204 H   0  0  0  0  0  0  0  0  0  0  0  0
    1.7119    7.3112   24.1711 H   0  0  0  0  0  0  0  0  0  0  0  0
    2.1449    5.3375   22.7081 H   0  0  0  0  0  0  0  0  0  0  0  0
    4.6362    0.6466   23.5277 H   0  0  0  0  0  0  0  0  0  0  0  0
    5.2057    0.5092   25.2014 H   0  0  0  0  0  0  0  0  0  0  0  0
    7.1463    2.6064   24.1176 N   0  0  0  0  0  0  0  0  0  0  0  0
    9.3670    1.3583   22.1314 H   0  0  0  0  0  0  0  0  0  0  0  0
    8.6631    4.5750   23.9451 H   0  0  0  0  0  0  0  0  0  0  0  0
    9.7929    3.8818   22.7573 H   0  0  0  0  0  0  0  0  0  0  0  0
    9.9400    3.4526   24.4742 H   0  0  0  0  0  0  0  0  0  0  0  0
  1  2  1  0
  2  3  1  0
  3  4  2  0
  4  5  1  0
  5  6  1  0
  6  7  1  0
  7  8  2  0
  8  9  1  0
  9 10  2  0
 10 11  1  0
 11 12  2  0
 12 13  1  0
 10 14  1  0
  9 15  1  0
  8 16  1  0
  6 17  1  0
  5 18  1  0
  5 19  1  0
  4 20  1  0
 20 21  1  0
 21 22  1  0
 22 23  1  0
 23 24  2  0
 23 25  1  0
 25 26  2  0
 26 27  1  0
 27 28  2  0
 28 29  1  0
 29 30  2  0
 30 31  1  0
 31 32  2  0
 29 33  1  0
 28 34  1  0
 27 35  1  0
 26 36  1  0
 21 37  1  0
 21 38  1  0
 20 39  2  0
  3 40  1  0
  1 41  1  0
  1 42  1  0
  1 43  1  0
 39  2  1  0
 12  7  1  0
 31 22  1  0
 30 25  1  0
M  END
>  <plip>  (1) 
-0.07142857142857142

>  <filename>  (1) 
[H][c]1[n][c]([H])[c]([N]([H])[C]([H])([H])[c]2[c]([C]([H])([H])[N]3[C](=[O])[c]4[c]([H])[c]([H])[c]([H])[c]([H])[c]4[C]3=[O])[n][n]([C]([H])([H])[H])[c]2[H])[c]([H])[c]1[H]

$$$$
