
     RDKit          3D

 25 27  0  0  0  0  0  0  0  0999 V2000
    4.8765    1.9836   16.8361 H   0  0  0  0  0  0  0  0  0  0  0  0
    5.2747    1.4033   17.6685 C   0  0  0  0  0  0  0  0  0  0  0  0
    6.3998    0.7110   17.4225 N   0  0  0  0  0  0  0  0  0  0  0  0
    6.9407    0.0474   18.4490 C   0  0  0  0  0  0  0  0  0  0  0  0
    7.8480   -0.5138   18.2285 H   0  0  0  0  0  0  0  0  0  0  0  0
    6.4140    0.0040   19.7597 C   0  0  0  0  0  0  0  0  0  0  0  0
    7.1858   -0.6954   20.8398 C   0  0  0  0  0  0  0  0  0  0  0  0
    6.6122   -1.5820   21.7739 C   0  0  0  0  0  0  0  0  0  0  0  0
    5.5460   -1.8059   21.7334 H   0  0  0  0  0  0  0  0  0  0  0  0
    7.3206   -2.2289   22.7160 N   0  0  0  0  0  0  0  0  0  0  0  0
    8.6372   -2.0187   22.7801 C   0  0  0  0  0  0  0  0  0  0  0  0
    9.1701   -2.5200   23.5911 H   0  0  0  0  0  0  0  0  0  0  0  0
    9.3171   -1.1804   21.8873 C   0  0  0  0  0  0  0  0  0  0  0  0
   10.7563   -0.9353   22.0069 C   0  0  0  0  0  0  0  0  0  0  0  0
   11.3705    0.2006   21.7616 N   0  0  0  0  0  0  0  0  0  0  0  0
   12.6776   -0.0052   22.0325 N   0  0  0  0  0  0  0  0  0  0  0  0
   12.8904   -1.2151   22.3985 N   0  0  0  0  0  0  0  0  0  0  0  0
   11.6882   -1.8134   22.4094 N   0  0  0  0  0  0  0  0  0  0  0  0
   11.6051   -2.7939   22.6163 H   0  0  0  0  0  0  0  0  0  0  0  0
    8.5687   -0.5029   20.9205 C   0  0  0  0  0  0  0  0  0  0  0  0
    9.0674    0.2074   20.2610 H   0  0  0  0  0  0  0  0  0  0  0  0
    5.2027    0.6829   19.9698 C   0  0  0  0  0  0  0  0  0  0  0  0
    4.7211    0.6656   20.9468 H   0  0  0  0  0  0  0  0  0  0  0  0
    4.6366    1.4098   18.9131 C   0  0  0  0  0  0  0  0  0  0  0  0
    3.7282    1.9937   19.0382 H   0  0  0  0  0  0  0  0  0  0  0  0
  1  2  1  0
  2  3  2  0
  3  4  1  0
  4  5  1  0
  4  6  2  0
  6  7  1  0
  7  8  2  0
  8  9  1  0
  8 10  1  0
 10 11  2  0
 11 12  1  0
 11 13  1  0
 13 14  1  0
 14 15  2  0
 15 16  1  0
 16 17  2  0
 17 18  1  0
 18 19  1  0
 13 20  2  0
 20 21  1  0
  6 22  1  0
 22 23  1  0
 22 24  2  0
 24 25  1  0
 24  2  1  0
 20  7  1  0
 18 14  1  0
M  END
>  <plip>  (1) 
-0.034482758620689655

>  <filename>  (1) 
[H][c]1[n][c]([H])[c](-[c]2[c]([H])[n][c]([H])[c](-[c]3[n][n][n][n]3[H])[c]2[H])[c]([H])[c]1[H]

$$$$
