
     RDKit          3D

 45 46  0  0  0  0  0  0  0  0999 V2000
    6.3589    4.5805   23.4192 C   0  0  0  0  0  0  0  0  0  0  0  0
    7.5610    3.6707   23.2417 C   0  0  0  0  0  0  0  0  0  0  0  0
    7.2170    2.1612   23.1282 C   0  0  0  0  0  0  0  0  0  0  0  0
    8.4129    1.2707   23.1135 N   0  0  0  0  0  0  0  0  0  0  0  0
    9.1967    1.1480   21.6007 S   0  0  0  0  0  0  0  0  0  0  0  0
   10.6318    1.1892   21.8051 O   0  0  0  0  0  0  0  0  0  0  0  0
    8.5856    2.0773   20.6758 O   0  0  0  0  0  0  0  0  0  0  0  0
    8.7846   -0.3956   21.1348 N   0  0  0  0  0  0  0  0  0  0  0  0
    9.6563   -1.4923   21.6011 C   0  0  0  0  0  0  0  0  0  0  0  0
    9.3637   -2.0326   23.0249 C   0  0  0  0  0  0  0  0  0  0  0  0
   10.1842   -3.1199   23.4234 O   0  0  0  0  0  0  0  0  0  0  0  0
    9.9217   -3.9200   22.9547 H   0  0  0  0  0  0  0  0  0  0  0  0
    9.5592   -1.2430   23.7534 H   0  0  0  0  0  0  0  0  0  0  0  0
    8.2916   -2.2758   23.0984 H   0  0  0  0  0  0  0  0  0  0  0  0
   10.6968   -1.1661   21.5243 H   0  0  0  0  0  0  0  0  0  0  0  0
    9.5376   -2.3101   20.8746 H   0  0  0  0  0  0  0  0  0  0  0  0
    7.3465   -0.6749   21.0421 C   0  0  0  0  0  0  0  0  0  0  0  0
    6.6431    0.0826   19.9514 C   0  0  0  0  0  0  0  0  0  0  0  0
    5.4030    0.7048   20.1431 C   0  0  0  0  0  0  0  0  0  0  0  0
    4.7846    1.3380   19.0618 C   0  0  0  0  0  0  0  0  0  0  0  0
    5.4261    1.3112   17.8215 C   0  0  0  0  0  0  0  0  0  0  0  0
    6.5990    0.6982   17.6147 N   0  0  0  0  0  0  0  0  0  0  0  0
    7.1921    0.1114   18.6621 C   0  0  0  0  0  0  0  0  0  0  0  0
    8.1480   -0.3733   18.4578 H   0  0  0  0  0  0  0  0  0  0  0  0
    4.9734    1.7901   16.9550 H   0  0  0  0  0  0  0  0  0  0  0  0
    3.8349    1.8474   19.1683 H   0  0  0  0  0  0  0  0  0  0  0  0
    4.9242    0.7025   21.1239 H   0  0  0  0  0  0  0  0  0  0  0  0
    7.2542   -1.7482   20.8136 H   0  0  0  0  0  0  0  0  0  0  0  0
    6.8288   -0.5298   22.0066 H   0  0  0  0  0  0  0  0  0  0  0  0
    9.3168    1.5977   24.2526 C   0  0  0  0  0  0  0  0  0  0  0  0
    8.7298    1.0909   25.5699 C   0  0  0  0  0  0  0  0  0  0  0  0
    8.4575    0.0332   25.5010 H   0  0  0  0  0  0  0  0  0  0  0  0
    7.8405    1.6555   25.8650 H   0  0  0  0  0  0  0  0  0  0  0  0
    9.4717    1.2016   26.3702 H   0  0  0  0  0  0  0  0  0  0  0  0
    9.5949    3.1172   24.3106 C   0  0  0  0  0  0  0  0  0  0  0  0
    8.4118    3.9015   24.3657 O   0  0  0  0  0  0  0  0  0  0  0  0
   10.2189    3.3988   23.4526 H   0  0  0  0  0  0  0  0  0  0  0  0
   10.1453    3.3499   25.2163 H   0  0  0  0  0  0  0  0  0  0  0  0
   10.2645    1.0761   24.0871 H   0  0  0  0  0  0  0  0  0  0  0  0
    6.6104    1.8634   23.9961 H   0  0  0  0  0  0  0  0  0  0  0  0
    6.5985    1.9877   22.2480 H   0  0  0  0  0  0  0  0  0  0  0  0
    8.0941    3.9556   22.3200 H   0  0  0  0  0  0  0  0  0  0  0  0
    5.8082    4.3192   24.3282 H   0  0  0  0  0  0  0  0  0  0  0  0
    5.6767    4.5294   22.5625 H   0  0  0  0  0  0  0  0  0  0  0  0
    6.7002    5.6165   23.5176 H   0  0  0  0  0  0  0  0  0  0  0  0
  1  2  1  0
  2  3  1  0
  3  4  1  0
  4  5  1  0
  5  6  2  0
  5  7  2  0
  5  8  1  0
  8  9  1  0
  9 10  1  0
 10 11  1  0
 11 12  1  0
 10 13  1  0
 10 14  1  0
  9 15  1  0
  9 16  1  0
  8 17  1  0
 17 18  1  0
 18 19  2  0
 19 20  1  0
 20 21  2  0
 21 22  1  0
 22 23  2  0
 23 24  1  0
 21 25  1  0
 20 26  1  0
 19 27  1  0
 17 28  1  0
 17 29  1  0
  4 30  1  0
 30 31  1  0
 31 32  1  0
 31 33  1  0
 31 34  1  0
 30 35  1  0
 35 36  1  0
 35 37  1  0
 35 38  1  0
 30 39  1  0
  3 40  1  0
  3 41  1  0
  2 42  1  0
  1 43  1  0
  1 44  1  0
  1 45  1  0
 36  2  1  0
 23 18  1  0
M  END
>  <plip>  (1) 
-0.07142857142857142

>  <filename>  (1) 
[H][O][C]([H])([H])[C]([H])([H])[N]([C]([H])([H])[c]1[c]([H])[n][c]([H])[c]([H])[c]1[H])[S](=[O])(=[O])[N]1[C]([H])([H])[C]([H])([C]([H])([H])[H])[O][C]([H])([H])[C]1([H])[C]([H])([H])[H]

$$$$
