
     RDKit          3D

 30 31  0  0  0  0  0  0  0  0999 V2000
    4.9784    1.8416   17.0223 H   0  0  0  0  0  0  0  0  0  0  0  0
    5.4454    1.2837   17.8304 C   0  0  0  0  0  0  0  0  0  0  0  0
    6.6011    0.6696   17.5279 N   0  0  0  0  0  0  0  0  0  0  0  0
    7.2243   -0.0017   18.5048 C   0  0  0  0  0  0  0  0  0  0  0  0
    8.1617   -0.4960   18.2461 H   0  0  0  0  0  0  0  0  0  0  0  0
    6.7146   -0.1064   19.8123 C   0  0  0  0  0  0  0  0  0  0  0  0
    7.4540   -0.7808   20.8331 N   0  0  0  0  0  0  0  0  0  0  0  0
    8.6888   -0.3215   21.2931 C   0  0  0  0  0  0  0  0  0  0  0  0
    9.2388    0.4315   20.7563 H   0  0  0  0  0  0  0  0  0  0  0  0
    8.9971   -1.0515   22.3843 C   0  0  0  0  0  0  0  0  0  0  0  0
   10.0412   -1.0503   23.2260 O   0  0  0  0  0  0  0  0  0  0  0  0
   11.2910   -0.7100   22.6063 C   0  0  0  0  0  0  0  0  0  0  0  0
   12.0054   -0.6258   23.4217 H   0  0  0  0  0  0  0  0  0  0  0  0
   11.2520    0.2648   22.1025 H   0  0  0  0  0  0  0  0  0  0  0  0
   11.7014   -1.8018   21.6157 C   0  0  0  0  0  0  0  0  0  0  0  0
   11.8743   -2.7386   22.1631 H   0  0  0  0  0  0  0  0  0  0  0  0
   10.8445   -1.9643   20.9543 H   0  0  0  0  0  0  0  0  0  0  0  0
   12.8005   -1.4209   20.8290 O   0  0  0  0  0  0  0  0  0  0  0  0
   14.0557   -1.9149   21.2206 C   0  0  0  0  0  0  0  0  0  0  0  0
   14.1266   -2.9997   21.0902 H   0  0  0  0  0  0  0  0  0  0  0  0
   14.3220   -1.6766   22.2635 H   0  0  0  0  0  0  0  0  0  0  0  0
   14.7770   -1.4493   20.5497 H   0  0  0  0  0  0  0  0  0  0  0  0
    7.9737   -1.9525   22.5641 N   0  0  0  0  0  0  0  0  0  0  0  0
    7.9225   -2.6866   23.2428 H   0  0  0  0  0  0  0  0  0  0  0  0
    7.0052   -1.8174   21.6192 C   0  0  0  0  0  0  0  0  0  0  0  0
    5.6509   -2.7782   21.4652 S   0  0  0  0  0  0  0  0  0  0  0  0
    5.5012    0.5223   20.1180 C   0  0  0  0  0  0  0  0  0  0  0  0
    5.0878    0.4498   21.1257 H   0  0  0  0  0  0  0  0  0  0  0  0
    4.8594    1.2418   19.1025 C   0  0  0  0  0  0  0  0  0  0  0  0
    3.9326    1.7767   19.2885 H   0  0  0  0  0  0  0  0  0  0  0  0
  1  2  1  0
  2  3  2  0
  3  4  1  0
  4  5  1  0
  4  6  2  0
  6  7  1  0
  7  8  1  0
  8  9  1  0
  8 10  2  0
 10 11  1  0
 11 12  1  0
 12 13  1  0
 12 14  1  0
 12 15  1  0
 15 16  1  0
 15 17  1  0
 15 18  1  0
 18 19  1  0
 19 20  1  0
 19 21  1  0
 19 22  1  0
 10 23  1  0
 23 24  1  0
 23 25  1  0
 25 26  2  0
  6 27  1  0
 27 28  1  0
 27 29  2  0
 29 30  1  0
 29  2  1  0
 25  7  1  0
M  END
>  <plip>  (1) 
-0.0

>  <filename>  (1) 
[H][c]1[n][c]([H])[c](-[n]2[c]([H])[c]([O][C]([H])([H])[C]([H])([H])[O][C]([H])([H])[H])[n]([H])[c]2=[S])[c]([H])[c]1[H]

$$$$
