
     RDKit          3D

 44 45  0  0  0  0  0  0  0  0999 V2000
    7.0814   -5.7469   27.5541 C   0  0  0  0  0  0  0  0  0  0  0  0
    6.8079   -5.1554   26.2771 O   0  0  0  0  0  0  0  0  0  0  0  0
    7.5557   -5.5468   25.2288 C   0  0  0  0  0  0  0  0  0  0  0  0
    8.4325   -6.3735   25.2738 O   0  0  0  0  0  0  0  0  0  0  0  0
    7.1515   -4.8004   23.9887 C   0  0  0  0  0  0  0  0  0  0  0  0
    7.6835   -3.3563   24.0026 C   0  0  1  0  0  0  0  0  0  0  0  0
    7.5736   -2.8050   22.6533 N   0  0  0  0  0  0  0  0  0  0  0  0
    8.6031   -2.1072   22.0847 C   0  0  0  0  0  0  0  0  0  0  0  0
    9.7641   -2.2226   22.4281 O   0  0  0  0  0  0  0  0  0  0  0  0
    8.2552   -1.1727   20.9202 C   0  0  0  0  0  0  0  0  0  0  0  0
    6.8493   -0.9386   20.7777 O   0  0  0  0  0  0  0  0  0  0  0  0
    6.4327   -0.1504   19.7387 C   0  0  0  0  0  0  0  0  0  0  0  0
    5.2657    0.6065   19.9325 C   0  0  0  0  0  0  0  0  0  0  0  0
    4.8135    1.4077   18.8807 C   0  0  0  0  0  0  0  0  0  0  0  0
    5.5184    1.4113   17.6689 C   0  0  0  0  0  0  0  0  0  0  0  0
    6.6158    0.6702   17.4625 N   0  0  0  0  0  0  0  0  0  0  0  0
    7.0602   -0.0860   18.4779 C   0  0  0  0  0  0  0  0  0  0  0  0
    7.9581   -0.6710   18.2848 H   0  0  0  0  0  0  0  0  0  0  0  0
    5.1885    2.0181   16.8282 H   0  0  0  0  0  0  0  0  0  0  0  0
    3.9305    2.0321   18.9828 H   0  0  0  0  0  0  0  0  0  0  0  0
    4.7525    0.5594   20.8932 H   0  0  0  0  0  0  0  0  0  0  0  0
    8.6707   -1.6251   20.0126 H   0  0  0  0  0  0  0  0  0  0  0  0
    8.8032   -0.2417   21.0936 H   0  0  0  0  0  0  0  0  0  0  0  0
    6.6686   -2.4448   22.3793 H   0  0  0  0  0  0  0  0  0  0  0  0
    6.9003   -2.4848   25.0029 C   0  0  0  0  0  0  0  0  0  0  0  0
    5.5160   -2.3506   24.8265 C   0  0  0  0  0  0  0  0  0  0  0  0
    4.7396   -1.5305   25.6479 C   0  0  0  0  0  0  0  0  0  0  0  0
    5.3403   -0.8052   26.6739 C   0  0  0  0  0  0  0  0  0  0  0  0
    6.7082   -0.9556   26.9105 C   0  0  0  0  0  0  0  0  0  0  0  0
    7.4811   -1.8134   26.1026 C   0  0  0  0  0  0  0  0  0  0  0  0
    8.9644   -2.0007   26.3750 C   0  0  0  0  0  0  0  0  0  0  0  0
    9.2861   -3.3140   26.4829 F   0  0  0  0  0  0  0  0  0  0  0  0
    9.7131   -1.5043   25.3684 F   0  0  0  0  0  0  0  0  0  0  0  0
    9.3819   -1.4123   27.5046 F   0  0  0  0  0  0  0  0  0  0  0  0
    7.1679   -0.4020   27.7261 H   0  0  0  0  0  0  0  0  0  0  0  0
    4.7380   -0.1308   27.2795 H   0  0  0  0  0  0  0  0  0  0  0  0
    3.6793   -1.4263   25.4400 H   0  0  0  0  0  0  0  0  0  0  0  0
    5.0292   -2.8766   24.0096 H   0  0  0  0  0  0  0  0  0  0  0  0
    8.7548   -3.3757   24.2404 H   0  0  0  0  0  0  0  0  0  0  0  0
    7.5563   -5.3244   23.1264 H   0  0  0  0  0  0  0  0  0  0  0  0
    6.0627   -4.7990   23.9218 H   0  0  0  0  0  0  0  0  0  0  0  0
    6.3677   -5.2810   28.2351 H   0  0  0  0  0  0  0  0  0  0  0  0
    8.1071   -5.5395   27.8776 H   0  0  0  0  0  0  0  0  0  0  0  0
    6.9191   -6.8283   27.5276 H   0  0  0  0  0  0  0  0  0  0  0  0
  1  2  1  0
  2  3  1  0
  3  4  2  0
  3  5  1  0
  5  6  1  0
  6  7  1  0
  7  8  1  0
  8  9  2  0
  8 10  1  0
 10 11  1  0
 11 12  1  0
 12 13  2  0
 13 14  1  0
 14 15  2  0
 15 16  1  0
 16 17  2  0
 17 18  1  0
 15 19  1  0
 14 20  1  0
 13 21  1  0
 10 22  1  0
 10 23  1  0
  7 24  1  0
  6 25  1  0
 25 26  2  0
 26 27  1  0
 27 28  2  0
 28 29  1  0
 29 30  2  0
 30 31  1  0
 31 32  1  0
 31 33  1  0
 31 34  1  0
 29 35  1  0
 28 36  1  0
 27 37  1  0
 26 38  1  0
  6 39  1  1
  5 40  1  0
  5 41  1  0
  1 42  1  0
  1 43  1  0
  1 44  1  0
 17 12  1  0
 30 25  1  0
M  END
>  <plip>  (1) 
-0.1

>  <filename>  (1) 
[H][c]1[n][c]([H])[c]([O][C]([H])([H])[C](=[O])[N]([H])[C@@]([H])([c]2[c]([H])[c]([H])[c]([H])[c]([H])[c]2[C]([F])([F])[F])[C]([H])([H])[C](=[O])[O][C]([H])([H])[H])[c]([H])[c]1[H]

$$$$
