
     RDKit          3D

 24 25  0  0  0  0  0  0  0  0999 V2000
    6.7578   -6.6152   22.4974 F   0  0  0  0  0  0  0  0  0  0  0  0
    7.2546   -5.3601   22.5965 C   0  0  0  0  0  0  0  0  0  0  0  0
    8.2089   -5.0381   23.5604 C   0  0  0  0  0  0  0  0  0  0  0  0
    8.7392   -3.8089   23.6823 N   0  0  0  0  0  0  0  0  0  0  0  0
    8.3032   -2.8497   22.8352 C   0  0  0  0  0  0  0  0  0  0  0  0
    7.3436   -3.0727   21.8245 C   0  0  0  0  0  0  0  0  0  0  0  0
    6.8806   -2.1303   20.9233 O   0  0  0  0  0  0  0  0  0  0  0  0
    7.3687   -0.7780   20.9875 C   0  0  0  0  0  0  0  0  0  0  0  0
    6.6569   -0.0005   19.9040 C   0  0  0  0  0  0  0  0  0  0  0  0
    5.4479    0.6481   20.1680 C   0  0  0  0  0  0  0  0  0  0  0  0
    4.8303    1.3041   19.1012 C   0  0  0  0  0  0  0  0  0  0  0  0
    5.4090    1.2960   17.8236 C   0  0  0  0  0  0  0  0  0  0  0  0
    6.5728    0.6698   17.5736 N   0  0  0  0  0  0  0  0  0  0  0  0
    7.1785    0.0438   18.5990 C   0  0  0  0  0  0  0  0  0  0  0  0
    8.1237   -0.4485   18.4062 H   0  0  0  0  0  0  0  0  0  0  0  0
    4.8888    1.8089   17.0162 H   0  0  0  0  0  0  0  0  0  0  0  0
    3.8923    1.8242   19.2516 H   0  0  0  0  0  0  0  0  0  0  0  0
    4.9992    0.6385   21.1662 H   0  0  0  0  0  0  0  0  0  0  0  0
    8.4528   -0.7491   20.8345 H   0  0  0  0  0  0  0  0  0  0  0  0
    7.1708   -0.3301   21.9688 H   0  0  0  0  0  0  0  0  0  0  0  0
    6.8389   -4.3714   21.7131 C   0  0  0  0  0  0  0  0  0  0  0  0
    5.6488   -4.8471   20.3137 Br  0  0  0  0  0  0  0  0  0  0  0  0
    8.7260   -1.8612   22.9360 H   0  0  0  0  0  0  0  0  0  0  0  0
    8.5316   -5.8305   24.2230 H   0  0  0  0  0  0  0  0  0  0  0  0
  1  2  1  0
  2  3  2  0
  3  4  1  0
  4  5  2  0
  5  6  1  0
  6  7  1  0
  7  8  1  0
  8  9  1  0
  9 10  2  0
 10 11  1  0
 11 12  2  0
 12 13  1  0
 13 14  2  0
 14 15  1  0
 12 16  1  0
 11 17  1  0
 10 18  1  0
  8 19  1  0
  8 20  1  0
  6 21  2  0
 21 22  1  0
  5 23  1  0
  3 24  1  0
 21  2  1  0
 14  9  1  0
M  END
>  <plip>  (1) 
-0.034482758620689655

>  <filename>  (1) 
[H][c]1[n][c]([H])[c]([C]([H])([H])[O][c]2[c]([H])[n][c]([H])[c]([F])[c]2[Br])[c]([H])[c]1[H]

$$$$
