
     RDKit          3D

 24 26  0  0  0  0  0  0  0  0999 V2000
    7.0554    3.2642   24.9869 H   0  0  0  0  0  0  0  0  0  0  0  0
    7.2158    2.7008   24.0743 C   0  0  0  0  0  0  0  0  0  0  0  0
    7.3367    3.3150   22.8649 N   0  0  0  0  0  0  0  0  0  0  0  0
    7.5433    2.3065   22.0573 C   0  0  0  0  0  0  0  0  0  0  0  0
    7.6792    2.3405   20.9853 H   0  0  0  0  0  0  0  0  0  0  0  0
    7.5451    1.1361   22.7429 N   0  0  0  0  0  0  0  0  0  0  0  0
    7.7253   -0.1713   22.2670 C   0  0  0  0  0  0  0  0  0  0  0  0
    8.2026   -1.2128   22.9489 C   0  0  0  0  0  0  0  0  0  0  0  0
    8.6229   -1.2869   23.9411 H   0  0  0  0  0  0  0  0  0  0  0  0
    7.9871   -2.3731   22.2546 O   0  0  0  0  0  0  0  0  0  0  0  0
    7.2683   -2.0679   21.1280 C   0  0  0  0  0  0  0  0  0  0  0  0
    6.7248   -2.8674   20.4192 O   0  0  0  0  0  0  0  0  0  0  0  0
    7.2915   -0.6685   21.0158 N   0  0  0  0  0  0  0  0  0  0  0  0
    6.6513    0.0295   19.9340 C   0  0  0  0  0  0  0  0  0  0  0  0
    7.1905    0.0818   18.6291 C   0  0  0  0  0  0  0  0  0  0  0  0
    8.1433   -0.3982   18.4070 H   0  0  0  0  0  0  0  0  0  0  0  0
    6.5905    0.7166   17.6126 N   0  0  0  0  0  0  0  0  0  0  0  0
    5.4129    1.3191   17.8519 C   0  0  0  0  0  0  0  0  0  0  0  0
    4.9251    1.7986   17.0030 H   0  0  0  0  0  0  0  0  0  0  0  0
    4.8011    1.3301   19.1092 C   0  0  0  0  0  0  0  0  0  0  0  0
    3.8425    1.8222   19.2456 H   0  0  0  0  0  0  0  0  0  0  0  0
    5.4383    0.6803   20.1721 C   0  0  0  0  0  0  0  0  0  0  0  0
    5.0321    0.6829   21.1838 H   0  0  0  0  0  0  0  0  0  0  0  0
    7.3371    1.3910   24.0669 N   0  0  0  0  0  0  0  0  0  0  0  0
  1  2  1  0
  2  3  1  0
  3  4  2  0
  4  5  1  0
  4  6  1  0
  6  7  1  0
  7  8  2  0
  8  9  1  0
  8 10  1  0
 10 11  1  0
 11 12  2  0
 11 13  1  0
 13 14  1  0
 14 15  2  0
 15 16  1  0
 15 17  1  0
 17 18  2  0
 18 19  1  0
 18 20  1  0
 20 21  1  0
 20 22  2  0
 22 23  1  0
  6 24  1  0
 24  2  2  0
 13  7  1  0
 22 14  1  0
M  END
>  <plip>  (1) 
-0.07142857142857142

>  <filename>  (1) 
[H][c]1[n][c]([H])[n](-[c]2[c]([H])[o][c](=[O])[n]2-[c]2[c]([H])[n][c]([H])[c]([H])[c]2[H])[n]1

$$$$
