
     RDKit          3D

 44 45  0  0  0  0  0  0  0  0999 V2000
    6.0815   -6.9067   26.8710 C   0  0  0  0  0  0  0  0  0  0  0  0
    5.6830   -5.6545   26.3633 O   0  0  0  0  0  0  0  0  0  0  0  0
    4.4383   -5.4697   25.8364 C   0  0  0  0  0  0  0  0  0  0  0  0
    3.3921   -6.3796   26.0261 C   0  0  0  0  0  0  0  0  0  0  0  0
    2.1207   -6.1077   25.5134 C   0  0  0  0  0  0  0  0  0  0  0  0
    1.8838   -4.9106   24.8344 C   0  0  0  0  0  0  0  0  0  0  0  0
    2.9316   -4.0110   24.6358 C   0  0  0  0  0  0  0  0  0  0  0  0
    4.2364   -4.2916   25.0767 C   0  0  0  0  0  0  0  0  0  0  0  0
    5.3901   -3.4062   24.7093 C   0  0  0  0  0  0  0  0  0  0  0  0
    5.5292   -3.0164   23.4327 C   0  0  0  0  0  0  0  0  0  0  0  0
    6.7501   -2.3991   22.8559 C   0  0  0  0  0  0  0  0  0  0  0  0
    7.8823   -2.6393   23.2419 O   0  0  0  0  0  0  0  0  0  0  0  0
    6.4658   -1.5291   21.8300 N   0  0  0  0  0  0  0  0  0  0  0  0
    7.3492   -0.5123   21.2498 C   0  0  0  0  0  0  0  0  0  0  0  0
    8.7279   -1.1075   20.9884 C   0  0  0  0  0  0  0  0  0  0  0  0
    8.6145   -2.0160   20.3954 H   0  0  0  0  0  0  0  0  0  0  0  0
    9.1816   -1.3946   21.9372 H   0  0  0  0  0  0  0  0  0  0  0  0
    9.3639   -0.3750   20.4867 H   0  0  0  0  0  0  0  0  0  0  0  0
    7.7025    1.0448   22.2987 C   0  0  0  0  0  0  0  0  0  0  0  0
    6.8652    1.3275   23.1466 O   0  0  0  0  0  0  0  0  0  0  0  0
    8.7370    1.5839   21.9184 O   0  0  0  0  0  1  0  0  0  0  0  0
    6.6587    0.0369   20.0030 C   0  0  0  0  0  0  0  0  0  0  0  0
    5.5301    0.8574   20.1573 C   0  0  0  0  0  0  0  0  0  0  0  0
    4.8948    1.3663   19.0221 C   0  0  0  0  0  0  0  0  0  0  0  0
    5.4361    1.0734   17.7638 C   0  0  0  0  0  0  0  0  0  0  0  0
    6.5263    0.3155   17.5865 N   0  0  0  0  0  0  0  0  0  0  0  0
    7.1156   -0.1777   18.6870 C   0  0  0  0  0  0  0  0  0  0  0  0
    8.0199   -0.7571   18.5065 H   0  0  0  0  0  0  0  0  0  0  0  0
    4.9793    1.4766   16.8623 H   0  0  0  0  0  0  0  0  0  0  0  0
    4.0170    1.9990   19.1043 H   0  0  0  0  0  0  0  0  0  0  0  0
    5.2066    1.1169   21.1712 H   0  0  0  0  0  0  0  0  0  0  0  0
    5.4761   -1.3671   21.7261 H   0  0  0  0  0  0  0  0  0  0  0  0
    4.7023   -3.1340   22.7357 H   0  0  0  0  0  0  0  0  0  0  0  0
    6.3572   -2.9512   25.7817 C   0  0  0  0  0  0  0  0  0  0  0  0
    7.3056   -3.4930   25.7031 H   0  0  0  0  0  0  0  0  0  0  0  0
    6.5903   -1.8862   25.6556 H   0  0  0  0  0  0  0  0  0  0  0  0
    5.9267   -3.1181   26.7730 H   0  0  0  0  0  0  0  0  0  0  0  0
    2.7422   -3.0488   24.1721 H   0  0  0  0  0  0  0  0  0  0  0  0
    0.8943   -4.6877   24.4473 H   0  0  0  0  0  0  0  0  0  0  0  0
    1.3191   -6.8276   25.6586 H   0  0  0  0  0  0  0  0  0  0  0  0
    3.5912   -7.2823   26.5927 H   0  0  0  0  0  0  0  0  0  0  0  0
    5.9483   -7.6993   26.1261 H   0  0  0  0  0  0  0  0  0  0  0  0
    5.5358   -7.1785   27.7836 H   0  0  0  0  0  0  0  0  0  0  0  0
    7.1429   -6.7985   27.1051 H   0  0  0  0  0  0  0  0  0  0  0  0
  1  2  1  0
  2  3  1  0
  3  4  2  0
  4  5  1  0
  5  6  2  0
  6  7  1  0
  7  8  2  0
  8  9  1  0
  9 10  2  3
 10 11  1  0
 11 12  2  0
 11 13  1  0
 13 14  1  0
 14 15  1  0
 15 16  1  0
 15 17  1  0
 15 18  1  0
 14 19  1  0
 19 20  2  0
 19 21  1  0
 14 22  1  0
 22 23  2  0
 23 24  1  0
 24 25  2  0
 25 26  1  0
 26 27  2  0
 27 28  1  0
 25 29  1  0
 24 30  1  0
 23 31  1  0
 13 32  1  0
 10 33  1  0
  9 34  1  0
 34 35  1  0
 34 36  1  0
 34 37  1  0
  7 38  1  0
  6 39  1  0
  5 40  1  0
  4 41  1  0
  1 42  1  0
  1 43  1  0
  1 44  1  0
  8  3  1  0
 27 22  1  0
M  CHG  1  21  -1
M  END
>  <plip>  (1) 
-0.13793103448275862

>  <filename>  (1) 
[H][C]([C](=[O])[N]([H])[C]([C](=[O])[O-])([c]1[c]([H])[n][c]([H])[c]([H])[c]1[H])[C]([H])([H])[H])=[C]([c]1[c]([H])[c]([H])[c]([H])[c]([H])[c]1[O][C]([H])([H])[H])[C]([H])([H])[H]

$$$$
