
     RDKit          3D

 26 27  0  0  0  0  0  0  0  0999 V2000
    4.9187    1.7843   16.9944 H   0  0  0  0  0  0  0  0  0  0  0  0
    5.4019    1.2954   17.8369 C   0  0  0  0  0  0  0  0  0  0  0  0
    6.5632    0.6800   17.5741 N   0  0  0  0  0  0  0  0  0  0  0  0
    7.1629    0.0489   18.5880 C   0  0  0  0  0  0  0  0  0  0  0  0
    8.1134   -0.4334   18.3658 H   0  0  0  0  0  0  0  0  0  0  0  0
    6.6403   -0.0079   19.8912 C   0  0  0  0  0  0  0  0  0  0  0  0
    7.4000   -0.6509   21.0346 C   0  0  1  0  0  0  0  0  0  0  0  0
    6.7018   -1.0002   21.8089 H   0  0  0  0  0  0  0  0  0  0  0  0
    8.0666   -1.7702   20.5384 F   0  0  0  0  0  0  0  0  0  0  0  0
    8.3947    0.3058   21.6818 C   0  0  0  0  0  0  0  0  0  0  0  0
    7.9961    0.9722   22.7787 N   0  0  0  0  0  0  0  0  0  0  0  0
    8.8361    1.8581   23.3111 C   0  0  0  0  0  0  0  0  0  0  0  0
    8.4804    2.3622   24.2027 H   0  0  0  0  0  0  0  0  0  0  0  0
   10.0997    2.1252   22.7804 C   0  0  0  0  0  0  0  0  0  0  0  0
   11.0088    3.0782   23.4821 C   0  0  0  0  0  0  0  0  0  0  0  0
   10.3439    4.0543   24.1285 F   0  0  0  0  0  0  0  0  0  0  0  0
   11.7669    2.4570   24.4071 F   0  0  0  0  0  0  0  0  0  0  0  0
   11.8604    3.6729   22.6269 F   0  0  0  0  0  0  0  0  0  0  0  0
   10.5292    1.4336   21.6384 C   0  0  0  0  0  0  0  0  0  0  0  0
   11.5204    1.6031   21.2141 H   0  0  0  0  0  0  0  0  0  0  0  0
    9.6493    0.5202   21.0862 C   0  0  0  0  0  0  0  0  0  0  0  0
    9.9128   -0.0495   20.2085 H   0  0  0  0  0  0  0  0  0  0  0  0
    5.4352    0.6488   20.1538 C   0  0  0  0  0  0  0  0  0  0  0  0
    5.0103    0.6388   21.1621 H   0  0  0  0  0  0  0  0  0  0  0  0
    4.8026    1.3147   19.1024 C   0  0  0  0  0  0  0  0  0  0  0  0
    3.8705    1.8476   19.2553 H   0  0  0  0  0  0  0  0  0  0  0  0
  1  2  1  0
  2  3  2  0
  3  4  1  0
  4  5  1  0
  4  6  2  0
  6  7  1  0
  7  8  1  1
  7  9  1  0
  7 10  1  0
 10 11  2  0
 11 12  1  0
 12 13  1  0
 12 14  2  0
 14 15  1  0
 15 16  1  0
 15 17  1  0
 15 18  1  0
 14 19  1  0
 19 20  1  0
 19 21  2  0
 21 22  1  0
  6 23  1  0
 23 24  1  0
 23 25  2  0
 25 26  1  0
 25  2  1  0
 21 10  1  0
M  END
>  <plip>  (1) 
-0.03571428571428571

>  <filename>  (1) 
[H][c]1[n][c]([H])[c]([C@@]([H])([F])[c]2[n][c]([H])[c]([C]([F])([F])[F])[c]([H])[c]2[H])[c]([H])[c]1[H]

$$$$
