
     RDKit          3D

 44 46  0  0  0  0  0  0  0  0999 V2000
    6.0800   -2.6472   20.9724 C   0  0  0  0  0  0  0  0  0  0  0  0
    6.7389   -1.5953   21.8686 C   0  0  0  0  0  0  0  0  0  0  0  0
    7.5723   -2.2987   22.9407 C   0  0  0  0  0  0  0  0  0  0  0  0
    8.0384   -1.5645   23.6051 H   0  0  0  0  0  0  0  0  0  0  0  0
    8.3588   -2.8998   22.4746 H   0  0  0  0  0  0  0  0  0  0  0  0
    6.9341   -2.9537   23.5418 H   0  0  0  0  0  0  0  0  0  0  0  0
    7.5902   -0.6029   21.0609 C   0  0  0  0  0  0  0  0  0  0  0  0
    6.7759    0.0552   19.9628 C   0  0  0  0  0  0  0  0  0  0  0  0
    5.5321    0.6588   20.2052 C   0  0  0  0  0  0  0  0  0  0  0  0
    4.8813    1.2654   19.1301 C   0  0  0  0  0  0  0  0  0  0  0  0
    5.4663    1.2496   17.8608 C   0  0  0  0  0  0  0  0  0  0  0  0
    6.6482    0.6530   17.6214 N   0  0  0  0  0  0  0  0  0  0  0  0
    7.2829    0.0770   18.6577 C   0  0  0  0  0  0  0  0  0  0  0  0
    8.2392   -0.4025   18.4692 H   0  0  0  0  0  0  0  0  0  0  0  0
    4.9476    1.7349   17.0394 H   0  0  0  0  0  0  0  0  0  0  0  0
    3.9284    1.7653   19.2629 H   0  0  0  0  0  0  0  0  0  0  0  0
    5.0876    0.6683   21.2001 H   0  0  0  0  0  0  0  0  0  0  0  0
    8.1535    0.4702   21.8915 N   0  0  0  0  0  0  0  0  0  0  0  0
    9.5747    0.7723   21.7540 C   0  0  0  0  0  0  0  0  0  0  0  0
    9.8017    1.0834   20.7294 H   0  0  0  0  0  0  0  0  0  0  0  0
    9.8849    1.5648   22.4420 H   0  0  0  0  0  0  0  0  0  0  0  0
   10.1673   -0.1208   21.9884 H   0  0  0  0  0  0  0  0  0  0  0  0
    7.3101    1.2465   22.6955 C   0  0  0  0  0  0  0  0  0  0  0  0
    6.2529    0.7568   23.0721 O   0  0  0  0  0  0  0  0  0  0  0  0
    7.4102    2.7231   22.7731 C   0  0  0  0  0  0  0  0  0  0  0  0
    6.4804    3.5321   23.3981 C   0  0  0  0  0  0  0  0  0  0  0  0
    6.6447    4.8289   22.9404 N   0  0  0  0  0  0  0  0  0  0  0  0
    5.7963    5.9121   23.1848 C   0  0  0  0  0  0  0  0  0  0  0  0
    5.9350    7.0714   22.4445 C   0  0  0  0  0  0  0  0  0  0  0  0
    4.7371    8.5336   22.7334 Br  0  0  0  0  0  0  0  0  0  0  0  0
    7.0047    7.1671   21.4325 C   0  0  0  0  0  0  0  0  0  0  0  0
    7.8838    6.1085   21.2382 C   0  0  0  0  0  0  0  0  0  0  0  0
    7.6775    4.8633   22.0029 C   0  0  0  0  0  0  0  0  0  0  0  0
    8.2507    3.6089   21.9601 C   0  0  0  0  0  0  0  0  0  0  0  0
    9.0935    3.3056   21.3416 H   0  0  0  0  0  0  0  0  0  0  0  0
    8.6691    6.1808   20.4921 H   0  0  0  0  0  0  0  0  0  0  0  0
    7.0746    8.0728   20.8291 H   0  0  0  0  0  0  0  0  0  0  0  0
    5.0078    5.8264   23.9263 H   0  0  0  0  0  0  0  0  0  0  0  0
    5.6575    3.1982   24.0269 H   0  0  0  0  0  0  0  0  0  0  0  0
    8.4094   -1.1799   20.6117 H   0  0  0  0  0  0  0  0  0  0  0  0
    5.9524   -1.0315   22.3512 H   0  0  0  0  0  0  0  0  0  0  0  0
    6.8298   -3.3488   20.5995 H   0  0  0  0  0  0  0  0  0  0  0  0
    5.3227   -3.2016   21.5370 H   0  0  0  0  0  0  0  0  0  0  0  0
    5.5940   -2.1693   20.1166 H   0  0  0  0  0  0  0  0  0  0  0  0
  1  2  1  0
  2  3  1  0
  3  4  1  0
  3  5  1  0
  3  6  1  0
  2  7  1  0
  7  8  1  0
  8  9  2  0
  9 10  1  0
 10 11  2  0
 11 12  1  0
 12 13  2  0
 13 14  1  0
 11 15  1  0
 10 16  1  0
  9 17  1  0
  7 18  1  0
 18 19  1  0
 19 20  1  0
 19 21  1  0
 19 22  1  0
 18 23  1  0
 23 24  2  0
 23 25  1  0
 25 26  2  0
 26 27  1  0
 27 28  1  0
 28 29  2  0
 29 30  1  0
 29 31  1  0
 31 32  2  0
 32 33  1  0
 33 34  2  0
 34 35  1  0
 32 36  1  0
 31 37  1  0
 28 38  1  0
 26 39  1  0
  7 40  1  0
  2 41  1  0
  1 42  1  0
  1 43  1  0
  1 44  1  0
 13  8  1  0
 34 25  1  0
 33 27  1  0
M  END
>  <plip>  (1) 
-0.07142857142857142

>  <filename>  (1) 
[H][c]1[n][c]([H])[c]([C]([H])([N]([C](=[O])[c]2[c]([H])[c]3[c]([H])[c]([H])[c]([Br])[c]([H])[n]3[c]2[H])[C]([H])([H])[H])[C]([H])([C]([H])([H])[H])[C]([H])([H])[H])[c]([H])[c]1[H]

$$$$
