
     RDKit          3D

 33 35  0  0  0  0  0  0  0  0999 V2000
    8.5671   -0.9636   20.8218 C   0  0  0  0  0  0  0  0  0  0  0  0
    7.2382   -0.2775   21.1192 C   0  0  0  0  0  0  0  0  0  0  0  0
    6.3538   -1.2458   21.7791 N   0  0  0  0  0  0  0  0  0  0  0  0
    6.0306   -2.4484   21.2354 C   0  0  0  0  0  0  0  0  0  0  0  0
    6.1457   -2.4884   19.9313 N   0  0  0  0  0  0  0  0  0  0  0  0
    5.9208   -3.6456   19.3454 C   0  0  0  0  0  0  0  0  0  0  0  0
    5.5894   -4.7619   19.9856 N   0  0  0  0  0  0  0  0  0  0  0  0
    5.4291   -4.7027   21.3034 C   0  0  0  0  0  0  0  0  0  0  0  0
    5.0171   -5.8561   21.9605 C   0  0  0  0  0  0  0  0  0  0  0  0
    4.8086   -5.8645   23.3418 C   0  0  0  0  0  0  0  0  0  0  0  0
    4.2912   -7.4737   24.2401 Br  0  0  0  0  0  0  0  0  0  0  0  0
    4.9979   -4.6799   24.0618 C   0  0  0  0  0  0  0  0  0  0  0  0
    5.4141   -3.5118   23.4124 C   0  0  0  0  0  0  0  0  0  0  0  0
    5.6325   -3.5271   22.0139 C   0  0  0  0  0  0  0  0  0  0  0  0
    5.5415   -2.6051   24.0036 H   0  0  0  0  0  0  0  0  0  0  0  0
    4.8244   -4.6770   25.1337 H   0  0  0  0  0  0  0  0  0  0  0  0
    4.8658   -6.7555   21.3777 H   0  0  0  0  0  0  0  0  0  0  0  0
    6.0176   -3.6848   18.2674 H   0  0  0  0  0  0  0  0  0  0  0  0
    6.3105   -1.2328   22.7841 H   0  0  0  0  0  0  0  0  0  0  0  0
    6.5634    0.2417   19.8804 C   0  0  0  0  0  0  0  0  0  0  0  0
    5.3908    0.9940   19.9768 C   0  0  0  0  0  0  0  0  0  0  0  0
    4.8372    1.4928   18.8015 C   0  0  0  0  0  0  0  0  0  0  0  0
    5.4541    1.2301   17.5744 C   0  0  0  0  0  0  0  0  0  0  0  0
    6.5722    0.4890   17.4746 N   0  0  0  0  0  0  0  0  0  0  0  0
    7.1062    0.0040   18.6095 C   0  0  0  0  0  0  0  0  0  0  0  0
    8.0266   -0.5669   18.5260 H   0  0  0  0  0  0  0  0  0  0  0  0
    5.0092    1.6365   16.6722 H   0  0  0  0  0  0  0  0  0  0  0  0
    3.9388    2.0974   18.8301 H   0  0  0  0  0  0  0  0  0  0  0  0
    4.9296    1.1880   20.9440 H   0  0  0  0  0  0  0  0  0  0  0  0
    7.4282    0.5743   21.7893 H   0  0  0  0  0  0  0  0  0  0  0  0
    9.2902   -0.2396   20.4395 H   0  0  0  0  0  0  0  0  0  0  0  0
    8.9700   -1.4240   21.7278 H   0  0  0  0  0  0  0  0  0  0  0  0
    8.4214   -1.7435   20.0719 H   0  0  0  0  0  0  0  0  0  0  0  0
  1  2  1  0
  2  3  1  0
  3  4  1  0
  4  5  2  0
  5  6  1  0
  6  7  2  0
  7  8  1  0
  8  9  2  0
  9 10  1  0
 10 11  1  0
 10 12  2  0
 12 13  1  0
 13 14  2  0
 13 15  1  0
 12 16  1  0
  9 17  1  0
  6 18  1  0
  3 19  1  0
  2 20  1  0
 20 21  2  0
 21 22  1  0
 22 23  2  0
 23 24  1  0
 24 25  2  0
 25 26  1  0
 23 27  1  0
 22 28  1  0
 21 29  1  0
  2 30  1  0
  1 31  1  0
  1 32  1  0
  1 33  1  0
 14  4  1  0
 25 20  1  0
 14  8  1  0
M  END
>  <plip>  (1) 
-0.16666666666666666

>  <filename>  (1) 
[H][c]1[n][c]([N]([H])[C]([H])([c]2[c]([H])[n][c]([H])[c]([H])[c]2[H])[C]([H])([H])[H])[c]2[c]([H])[c]([H])[c]([Br])[c]([H])[c]2[n]1

$$$$
