
     RDKit          3D

 26 27  0  0  0  0  0  0  0  0999 V2000
    5.6331   -0.0572   25.0948 H   0  0  0  0  0  0  0  0  0  0  0  0
    6.4205    0.2854   24.4332 C   0  0  0  0  0  0  0  0  0  0  0  0
    6.4815   -0.3375   23.2550 N   0  0  0  0  0  0  0  0  0  0  0  0
    7.4230   -0.0121   22.3712 C   0  0  0  0  0  0  0  0  0  0  0  0
    7.3406   -0.7673   20.9908 C   0  0  0  0  0  0  0  0  0  0  0  0
    8.6025   -1.1028   20.5749 F   0  0  0  0  0  0  0  0  0  0  0  0
    6.6882   -1.9547   21.1458 F   0  0  0  0  0  0  0  0  0  0  0  0
    6.6445    0.0064   19.8862 C   0  0  0  0  0  0  0  0  0  0  0  0
    7.1640    0.0378   18.5820 C   0  0  0  0  0  0  0  0  0  0  0  0
    8.1225   -0.4268   18.3598 H   0  0  0  0  0  0  0  0  0  0  0  0
    6.5582    0.6642   17.5695 N   0  0  0  0  0  0  0  0  0  0  0  0
    5.4013    1.2932   17.8325 C   0  0  0  0  0  0  0  0  0  0  0  0
    4.9246    1.7855   16.9905 H   0  0  0  0  0  0  0  0  0  0  0  0
    4.8049    1.3150   19.0964 C   0  0  0  0  0  0  0  0  0  0  0  0
    3.8766    1.8444   19.2525 H   0  0  0  0  0  0  0  0  0  0  0  0
    5.4335    0.6505   20.1469 C   0  0  0  0  0  0  0  0  0  0  0  0
    4.9972    0.6286   21.1490 H   0  0  0  0  0  0  0  0  0  0  0  0
    8.3504    1.0184   22.6728 C   0  0  0  0  0  0  0  0  0  0  0  0
    9.4041    1.4337   21.6874 C   0  0  0  0  0  0  0  0  0  0  0  0
    8.8306    1.5653   20.4791 F   0  0  0  0  0  0  0  0  0  0  0  0
    9.9850    2.6083   21.9907 F   0  0  0  0  0  0  0  0  0  0  0  0
   10.3943    0.5383   21.5694 F   0  0  0  0  0  0  0  0  0  0  0  0
    8.2748    1.6911   23.8954 C   0  0  0  0  0  0  0  0  0  0  0  0
    8.9894    2.4884   24.1194 H   0  0  0  0  0  0  0  0  0  0  0  0
    7.2965    1.3047   24.7974 C   0  0  0  0  0  0  0  0  0  0  0  0
    7.2213    1.7712   25.7677 H   0  0  0  0  0  0  0  0  0  0  0  0
  1  2  1  0
  2  3  2  0
  3  4  1  0
  4  5  1  0
  5  6  1  0
  5  7  1  0
  5  8  1  0
  8  9  2  0
  9 10  1  0
  9 11  1  0
 11 12  2  0
 12 13  1  0
 12 14  1  0
 14 15  1  0
 14 16  2  0
 16 17  1  0
  4 18  2  0
 18 19  1  0
 19 20  1  0
 19 21  1  0
 19 22  1  0
 18 23  1  0
 23 24  1  0
 23 25  2  0
 25 26  1  0
 25  2  1  0
 16  8  1  0
M  END
>  <plip>  (1) 
-0.06896551724137931

>  <filename>  (1) 
[H][c]1[n][c]([C]([F])([F])[c]2[c]([H])[n][c]([H])[c]([H])[c]2[H])[c]([C]([F])([F])[F])[c]([H])[c]1[H]

$$$$
