
     RDKit          3D

 34 35  0  0  0  0  0  0  0  0999 V2000
    5.9854   -6.1845   23.5207 C   0  0  0  0  0  0  0  0  0  0  0  0
    5.0428   -5.1084   24.0605 C   0  0  0  0  0  0  0  0  0  0  0  0
    5.3086   -3.7176   23.4517 C   0  0  0  0  0  0  0  0  0  0  0  0
    6.6580   -3.0981   23.8717 C   0  0  0  0  0  0  0  0  0  0  0  0
    7.1321   -3.3177   24.9719 O   0  0  0  0  0  0  0  0  0  0  0  0
    7.3858   -2.2159   22.8843 C   0  0  0  0  0  0  0  0  0  0  0  0
    8.7745   -2.0339   23.0328 C   0  0  0  0  0  0  0  0  0  0  0  0
    9.4672   -1.2016   22.1514 C   0  0  0  0  0  0  0  0  0  0  0  0
    8.7851   -0.5386   21.1245 C   0  0  0  0  0  0  0  0  0  0  0  0
    7.3978   -0.6986   20.9654 C   0  0  0  0  0  0  0  0  0  0  0  0
    6.6584    0.0166   19.8887 C   0  0  0  0  0  0  0  0  0  0  0  0
    5.4315    0.6589   20.1313 C   0  0  0  0  0  0  0  0  0  0  0  0
    4.7933    1.3209   19.0800 C   0  0  0  0  0  0  0  0  0  0  0  0
    5.3850    1.3058   17.8115 C   0  0  0  0  0  0  0  0  0  0  0  0
    6.5456    0.6830   17.5525 N   0  0  0  0  0  0  0  0  0  0  0  0
    7.1553    0.0728   18.5747 C   0  0  0  0  0  0  0  0  0  0  0  0
    8.1003   -0.4174   18.3352 H   0  0  0  0  0  0  0  0  0  0  0  0
    4.9240    1.8128   16.9644 H   0  0  0  0  0  0  0  0  0  0  0  0
    3.8596    1.8513   19.2243 H   0  0  0  0  0  0  0  0  0  0  0  0
    5.0155    0.6452   21.1404 H   0  0  0  0  0  0  0  0  0  0  0  0
    6.7162   -1.5470   21.8477 C   0  0  0  0  0  0  0  0  0  0  0  0
    5.6451   -1.6699   21.6968 H   0  0  0  0  0  0  0  0  0  0  0  0
    9.3043    0.1377   20.4527 H   0  0  0  0  0  0  0  0  0  0  0  0
   10.5384   -1.0548   22.2737 H   0  0  0  0  0  0  0  0  0  0  0  0
    9.2823   -2.5438   23.8506 H   0  0  0  0  0  0  0  0  0  0  0  0
    4.5008   -3.0440   23.7703 H   0  0  0  0  0  0  0  0  0  0  0  0
    5.2607   -3.7960   22.3556 H   0  0  0  0  0  0  0  0  0  0  0  0
    3.5536   -5.6394   23.8107 C   0  0  0  0  0  0  0  0  0  0  0  0
    3.2435   -5.7966   22.6097 O   0  0  0  0  0  0  0  0  0  0  0  0
    2.8556   -5.8721   24.8179 O   0  0  0  0  0  1  0  0  0  0  0  0
    5.1839   -5.0309   25.1429 H   0  0  0  0  0  0  0  0  0  0  0  0
    7.0081   -5.9875   23.8534 H   0  0  0  0  0  0  0  0  0  0  0  0
    5.9771   -6.2307   22.4244 H   0  0  0  0  0  0  0  0  0  0  0  0
    5.6285   -7.1359   23.9267 H   0  0  0  0  0  0  0  0  0  0  0  0
  1  2  1  0
  2  3  1  0
  3  4  1  0
  4  5  2  0
  4  6  1  0
  6  7  2  0
  7  8  1  0
  8  9  2  0
  9 10  1  0
 10 11  1  0
 11 12  2  0
 12 13  1  0
 13 14  2  0
 14 15  1  0
 15 16  2  0
 16 17  1  0
 14 18  1  0
 13 19  1  0
 12 20  1  0
 10 21  2  0
 21 22  1  0
  9 23  1  0
  8 24  1  0
  7 25  1  0
  3 26  1  0
  3 27  1  0
  2 28  1  0
 28 29  2  0
 28 30  1  0
  2 31  1  0
  1 32  1  0
  1 33  1  0
  1 34  1  0
 21  6  1  0
 16 11  1  0
M  CHG  1  30  -1
M  END
>  <plip>  (1) 
-0.06896551724137931

>  <filename>  (1) 
[H][c]1[n][c]([H])[c](-[c]2[c]([H])[c]([H])[c]([H])[c]([C](=[O])[C]([H])([H])[C]([H])([C](=[O])[O-])[C]([H])([H])[H])[c]2[H])[c]([H])[c]1[H]

$$$$
