
     RDKit          3D

 55 58  0  0  0  0  0  0  0  0999 V2000
   12.7974    0.2801   24.8371 C   0  0  0  0  0  0  0  0  0  0  0  0
   11.3250    0.5985   24.8894 C   0  0  0  0  0  0  0  0  0  0  0  0
   10.4819    0.1187   25.9004 C   0  0  0  0  0  0  0  0  0  0  0  0
    9.0966    0.3326   25.8556 C   0  0  0  0  0  0  0  0  0  0  0  0
    8.5544    1.0485   24.7880 C   0  0  0  0  0  0  0  0  0  0  0  0
    9.3862    1.5538   23.7769 C   0  0  0  0  0  0  0  0  0  0  0  0
   10.7732    1.4063   23.8702 C   0  0  0  0  0  0  0  0  0  0  0  0
   11.6729    2.0859   22.8534 C   0  0  0  0  0  0  0  0  0  0  0  0
   10.9135    3.0712   21.9868 C   0  0  0  0  0  0  0  0  0  0  0  0
    9.7144    2.4837   21.5004 O   0  0  0  0  0  0  0  0  0  0  0  0
    8.7604    2.1889   22.5228 C   0  0  0  0  0  0  0  0  0  0  0  0
    7.6749    1.2362   21.9588 C   0  0  0  0  0  0  0  0  0  0  0  0
    6.4968    1.3903   22.2601 O   0  0  0  0  0  0  0  0  0  0  0  0
    8.1345    0.1723   21.2449 N   0  0  0  0  0  0  0  0  0  0  0  0
    7.2598   -0.8720   20.7108 C   0  0  0  0  0  0  0  0  0  0  0  0
    6.5364   -1.5447   21.8961 C   0  0  0  0  0  0  0  0  0  0  0  0
    5.8547   -2.8404   21.6228 N   0  0  0  0  0  4  0  0  0  0  0  0
    6.6773   -3.8931   20.9265 C   0  0  0  0  0  0  0  0  0  0  0  0
    5.8920   -5.1903   21.1322 C   0  0  0  0  0  0  0  0  0  0  0  0
    4.9848   -4.9346   22.3583 C   0  0  0  0  0  0  0  0  0  0  0  0
    5.3809   -3.5483   22.8609 C   0  0  0  0  0  0  0  0  0  0  0  0
    4.5772   -2.9911   23.3491 H   0  0  0  0  0  0  0  0  0  0  0  0
    6.2299   -3.6101   23.5557 H   0  0  0  0  0  0  0  0  0  0  0  0
    5.1139   -5.6788   23.1490 H   0  0  0  0  0  0  0  0  0  0  0  0
    3.9265   -4.9467   22.0779 H   0  0  0  0  0  0  0  0  0  0  0  0
    6.5711   -6.0336   21.2877 H   0  0  0  0  0  0  0  0  0  0  0  0
    5.3024   -5.4205   20.2399 H   0  0  0  0  0  0  0  0  0  0  0  0
    7.6591   -3.9388   21.4153 H   0  0  0  0  0  0  0  0  0  0  0  0
    6.8092   -3.6332   19.8773 H   0  0  0  0  0  0  0  0  0  0  0  0
    5.0257   -2.6209   21.0286 H   0  0  0  0  0  0  0  0  0  0  0  0
    5.8563   -0.8157   22.3365 H   0  0  0  0  0  0  0  0  0  0  0  0
    7.3207   -1.7070   22.6452 H   0  0  0  0  0  0  0  0  0  0  0  0
    6.4130   -0.2688   19.6054 C   0  0  0  0  0  0  0  0  0  0  0  0
    5.1860    0.3678   19.8134 C   0  0  0  0  0  0  0  0  0  0  0  0
    4.6544    1.1482   18.7811 C   0  0  0  0  0  0  0  0  0  0  0  0
    5.3506    1.2360   17.5719 C   0  0  0  0  0  0  0  0  0  0  0  0
    6.4904    0.5710   17.3290 N   0  0  0  0  0  0  0  0  0  0  0  0
    6.9974   -0.1525   18.3324 C   0  0  0  0  0  0  0  0  0  0  0  0
    7.9285   -0.6729   18.1066 H   0  0  0  0  0  0  0  0  0  0  0  0
    4.9814    1.8685   16.7669 H   0  0  0  0  0  0  0  0  0  0  0  0
    3.7414    1.7142   18.9214 H   0  0  0  0  0  0  0  0  0  0  0  0
    4.6956    0.3337   20.7882 H   0  0  0  0  0  0  0  0  0  0  0  0
    7.9168   -1.6240   20.2558 H   0  0  0  0  0  0  0  0  0  0  0  0
    9.0994    0.2098   20.9683 H   0  0  0  0  0  0  0  0  0  0  0  0
    8.2024    3.0922   22.8085 H   0  0  0  0  0  0  0  0  0  0  0  0
   11.5003    3.3565   21.1063 H   0  0  0  0  0  0  0  0  0  0  0  0
   10.6842    3.9813   22.5652 H   0  0  0  0  0  0  0  0  0  0  0  0
   12.1320    1.3116   22.2246 H   0  0  0  0  0  0  0  0  0  0  0  0
   12.5010    2.6100   23.3451 H   0  0  0  0  0  0  0  0  0  0  0  0
    7.4847    1.2191   24.7104 H   0  0  0  0  0  0  0  0  0  0  0  0
    8.4524   -0.0717   26.6355 H   0  0  0  0  0  0  0  0  0  0  0  0
   10.8983   -0.4264   26.7438 H   0  0  0  0  0  0  0  0  0  0  0  0
   13.4164    1.1797   24.9038 H   0  0  0  0  0  0  0  0  0  0  0  0
   13.0465   -0.2063   23.8879 H   0  0  0  0  0  0  0  0  0  0  0  0
   13.0910   -0.3971   25.6307 H   0  0  0  0  0  0  0  0  0  0  0  0
  1  2  1  0
  2  3  2  0
  3  4  1  0
  4  5  2  0
  5  6  1  0
  6  7  2  0
  7  8  1  0
  8  9  1  0
  9 10  1  0
 10 11  1  0
 11 12  1  0
 12 13  2  0
 12 14  1  0
 14 15  1  0
 15 16  1  0
 16 17  1  0
 17 18  1  0
 18 19  1  0
 19 20  1  0
 20 21  1  0
 21 22  1  0
 21 23  1  0
 20 24  1  0
 20 25  1  0
 19 26  1  0
 19 27  1  0
 18 28  1  0
 18 29  1  0
 17 30  1  0
 16 31  1  0
 16 32  1  0
 15 33  1  0
 33 34  2  0
 34 35  1  0
 35 36  2  0
 36 37  1  0
 37 38  2  0
 38 39  1  0
 36 40  1  0
 35 41  1  0
 34 42  1  0
 15 43  1  0
 14 44  1  0
 11 45  1  0
  9 46  1  0
  9 47  1  0
  8 48  1  0
  8 49  1  0
  5 50  1  0
  4 51  1  0
  3 52  1  0
  1 53  1  0
  1 54  1  0
  1 55  1  0
  7  2  1  0
 21 17  1  0
 38 33  1  0
 11  6  1  0
M  CHG  1  17   1
M  END
>  <plip>  (1) 
-0.13793103448275862

>  <filename>  (1) 
[H][c]1[n][c]([H])[c]([C]([H])([N]([H])[C](=[O])[C]2([H])[O][C]([H])([H])[C]([H])([H])[c]3[c]([C]([H])([H])[H])[c]([H])[c]([H])[c]([H])[c]32)[C]([H])([H])[N+]2([H])[C]([H])([H])[C]([H])([H])[C]([H])([H])[C]2([H])[H])[c]([H])[c]1[H]

$$$$
