
     RDKit          3D

 35 37  0  0  0  0  0  0  0  0999 V2000
    4.9788    2.0987   16.9684 H   0  0  0  0  0  0  0  0  0  0  0  0
    5.3911    1.4274   17.7159 C   0  0  0  0  0  0  0  0  0  0  0  0
    6.4697    0.7110   17.3520 N   0  0  0  0  0  0  0  0  0  0  0  0
    7.0192   -0.1016   18.2733 C   0  0  0  0  0  0  0  0  0  0  0  0
    7.9165   -0.6445   17.9707 H   0  0  0  0  0  0  0  0  0  0  0  0
    6.5173   -0.2606   19.5909 C   0  0  0  0  0  0  0  0  0  0  0  0
    7.0302   -1.1436   20.5829 N   0  0  0  0  0  0  0  0  0  0  0  0
    6.9444   -0.7194   21.5062 H   0  0  0  0  0  0  0  0  0  0  0  0
    8.7132   -1.6836   20.5022 S   0  0  0  0  0  0  0  0  0  0  0  0
    9.1626   -0.3711   21.4586 N   0  0  0  0  0  0  0  0  0  0  0  0
    9.3327    0.9615   20.8897 C   0  0  0  0  0  0  0  0  0  0  0  0
   10.3831    1.2821   21.0060 H   0  0  0  0  0  0  0  0  0  0  0  0
    9.1215    1.0021   19.8186 H   0  0  0  0  0  0  0  0  0  0  0  0
    8.4196    1.8700   21.7291 C   0  0  0  0  0  0  0  0  0  0  0  0
    7.4153    1.8574   21.2984 H   0  0  0  0  0  0  0  0  0  0  0  0
    8.7494    2.9147   21.7237 H   0  0  0  0  0  0  0  0  0  0  0  0
    8.4157    1.2239   23.1255 C   0  0  2  0  0  0  0  0  0  0  0  0
    7.4216    1.2260   23.5811 H   0  0  0  0  0  0  0  0  0  0  0  0
    9.4106    1.8203   24.1338 C   0  0  0  0  0  0  0  0  0  0  0  0
    8.9179    2.4729   24.8667 H   0  0  0  0  0  0  0  0  0  0  0  0
   10.1778    2.4385   23.6235 H   0  0  0  0  0  0  0  0  0  0  0  0
   10.0062    0.6625   24.7939 N   0  0  0  0  0  0  0  0  0  0  0  0
   11.2194    0.9698   25.5095 C   0  0  0  0  0  0  0  0  0  0  0  0
   11.6655    0.0527   25.9071 H   0  0  0  0  0  0  0  0  0  0  0  0
   11.9898    1.4741   24.8878 H   0  0  0  0  0  0  0  0  0  0  0  0
   10.9564    1.6195   26.3462 H   0  0  0  0  0  0  0  0  0  0  0  0
   10.1876   -0.3313   23.7448 C   0  0  0  0  0  0  0  0  0  0  0  0
   11.0601   -0.1169   23.1030 H   0  0  0  0  0  0  0  0  0  0  0  0
   10.3531   -1.3299   24.1614 H   0  0  0  0  0  0  0  0  0  0  0  0
    8.8997   -0.2499   22.8981 C   0  0  2  0  0  0  0  0  0  0  0  0
    8.1780   -0.9753   23.3062 H   0  0  0  0  0  0  0  0  0  0  0  0
    5.3748    0.4778   19.9347 C   0  0  0  0  0  0  0  0  0  0  0  0
    4.9581    0.3485   20.9347 H   0  0  0  0  0  0  0  0  0  0  0  0
    4.8194    1.3490   18.9931 C   0  0  0  0  0  0  0  0  0  0  0  0
    3.9788    1.9869   19.2459 H   0  0  0  0  0  0  0  0  0  0  0  0
  1  2  1  0
  2  3  2  0
  3  4  1  0
  4  5  1  0
  4  6  2  0
  6  7  1  0
  7  8  1  0
  7  9  1  0
  9 10  1  0
 10 11  1  0
 11 12  1  0
 11 13  1  0
 11 14  1  0
 14 15  1  0
 14 16  1  0
 14 17  1  0
 17 18  1  1
 17 19  1  0
 19 20  1  0
 19 21  1  0
 19 22  1  0
 22 23  1  0
 23 24  1  0
 23 25  1  0
 23 26  1  0
 22 27  1  0
 27 28  1  0
 27 29  1  0
 27 30  1  0
 30 31  1  1
  6 32  1  0
 32 33  1  0
 32 34  2  0
 34 35  1  0
 34  2  1  0
 30 10  1  0
 30 17  1  0
M  END
>  <plip>  (1) 
-0.07142857142857142

>  <filename>  (1) 
[H][c]1[n][c]([H])[c]([N]([H])[S][N]2[C]([H])([H])[C]([H])([H])[C@]3([H])[C]([H])([H])[N]([C]([H])([H])[H])[C]([H])([H])[C@]23[H])[c]([H])[c]1[H]

$$$$
