
     RDKit          3D

 35 37  0  0  0  0  0  0  0  0999 V2000
    4.9120    1.8308   16.9441 H   0  0  0  0  0  0  0  0  0  0  0  0
    5.3806    1.3245   17.7841 C   0  0  0  0  0  0  0  0  0  0  0  0
    6.5367    0.6919   17.5268 N   0  0  0  0  0  0  0  0  0  0  0  0
    7.1415    0.0753   18.5519 C   0  0  0  0  0  0  0  0  0  0  0  0
    8.0816   -0.4240   18.3096 H   0  0  0  0  0  0  0  0  0  0  0  0
    6.6463    0.0584   19.8775 C   0  0  0  0  0  0  0  0  0  0  0  0
    7.3355   -0.6670   21.0009 C   0  0  0  0  0  0  0  0  0  0  0  0
    7.5786   -2.0723   20.8937 C   0  0  0  0  0  0  0  0  0  0  0  0
    7.1637   -2.5821   20.0298 H   0  0  0  0  0  0  0  0  0  0  0  0
    8.2404   -2.7726   21.8568 C   0  0  0  0  0  0  0  0  0  0  0  0
    8.5413   -3.8030   21.7719 H   0  0  0  0  0  0  0  0  0  0  0  0
    8.6316   -2.1311   23.1016 C   0  0  0  0  0  0  0  0  0  0  0  0
    9.2597   -2.6463   24.0074 O   0  0  0  0  0  0  0  0  0  0  0  0
    8.2188   -0.8259   23.2238 N   0  0  0  0  0  0  0  0  0  0  0  0
    8.5982   -0.3521   24.0273 H   0  0  0  0  0  0  0  0  0  0  0  0
    7.7141   -0.0731   22.2046 C   0  0  0  0  0  0  0  0  0  0  0  0
    7.6689    1.2520   22.5436 N   0  0  0  0  0  0  0  0  0  0  0  0
    8.0608    2.3127   21.6117 C   0  0  0  0  0  0  0  0  0  0  0  0
    7.1746    2.7561   21.1270 H   0  0  0  0  0  0  0  0  0  0  0  0
    8.7050    1.9006   20.8265 H   0  0  0  0  0  0  0  0  0  0  0  0
    8.7929    3.3991   22.4198 C   0  0  0  0  0  0  0  0  0  0  0  0
    9.0360    4.2389   21.7805 H   0  0  0  0  0  0  0  0  0  0  0  0
    9.7413    2.9579   22.7801 H   0  0  0  0  0  0  0  0  0  0  0  0
    7.9351    3.9194   23.4966 N   0  0  0  0  0  0  0  0  0  0  0  0
    8.4237    4.6534   24.0036 H   0  0  0  0  0  0  0  0  0  0  0  0
    7.4986    2.8445   24.3953 C   0  0  0  0  0  0  0  0  0  0  0  0
    6.8276    3.2666   25.1463 H   0  0  0  0  0  0  0  0  0  0  0  0
    8.3272    2.3535   24.9371 H   0  0  0  0  0  0  0  0  0  0  0  0
    6.7627    1.7715   23.5826 C   0  0  0  0  0  0  0  0  0  0  0  0
    6.3865    0.9687   24.2253 H   0  0  0  0  0  0  0  0  0  0  0  0
    5.8880    2.2407   23.0993 H   0  0  0  0  0  0  0  0  0  0  0  0
    5.4249    0.7135   20.1061 C   0  0  0  0  0  0  0  0  0  0  0  0
    4.9919    0.6917   21.1086 H   0  0  0  0  0  0  0  0  0  0  0  0
    4.7813    1.3524   19.0454 C   0  0  0  0  0  0  0  0  0  0  0  0
    3.8391    1.8675   19.1866 H   0  0  0  0  0  0  0  0  0  0  0  0
  1  2  1  0
  2  3  2  0
  3  4  1  0
  4  5  1  0
  4  6  2  0
  6  7  1  0
  7  8  1  0
  8  9  1  0
  8 10  2  0
 10 11  1  0
 10 12  1  0
 12 13  2  0
 12 14  1  0
 14 15  1  0
 14 16  1  0
 16 17  1  0
 17 18  1  0
 18 19  1  0
 18 20  1  0
 18 21  1  0
 21 22  1  0
 21 23  1  0
 21 24  1  0
 24 25  1  0
 24 26  1  0
 26 27  1  0
 26 28  1  0
 26 29  1  0
 29 30  1  0
 29 31  1  0
  6 32  1  0
 32 33  1  0
 32 34  2  0
 34 35  1  0
 34  2  1  0
 16  7  2  0
 29 17  1  0
M  END
>  <plip>  (1) 
-0.03571428571428571

>  <filename>  (1) 
[H][c]1[n][c]([H])[c](-[c]2[c]([H])[c]([H])[c](=[O])[n]([H])[c]2[N]2[C]([H])([H])[C]([H])([H])[N]([H])[C]([H])([H])[C]2([H])[H])[c]([H])[c]1[H]

$$$$
