
     RDKit          3D

 44 46  0  0  0  0  0  0  0  0999 V2000
    5.9932   -4.0557   20.5099 C   0  0  0  0  0  0  0  0  0  0  0  0
    6.6590   -2.8504   20.2540 O   0  0  0  0  0  0  0  0  0  0  0  0
    6.6864   -2.0087   21.3747 C   0  0  0  0  0  0  0  0  0  0  0  0
    7.4058   -0.7137   21.0110 C   0  0  2  0  0  0  0  0  0  0  0  0
    7.6030    0.0886   22.2170 N   0  0  0  0  0  0  0  0  0  0  0  0
    8.3651    1.2146   22.1861 C   0  0  0  0  0  0  0  0  0  0  0  0
    9.0417    1.5294   21.2183 O   0  0  0  0  0  0  0  0  0  0  0  0
    8.3460    2.0454   23.4374 C   0  0  0  0  0  0  0  0  0  0  0  0
    7.6270    1.8475   24.5555 N   0  0  0  0  0  0  0  0  0  0  0  0
    7.9976    2.8457   25.3554 N   0  0  0  0  0  0  0  0  0  0  0  0
    7.4566    3.0353   26.6730 C   0  0  0  0  0  0  0  0  0  0  0  0
    6.5201    2.1130   27.1609 C   0  0  0  0  0  0  0  0  0  0  0  0
    5.9793    2.2411   28.4449 C   0  0  0  0  0  0  0  0  0  0  0  0
    4.9777    1.2345   28.9745 C   0  0  0  0  0  0  0  0  0  0  0  0
    5.4753    0.3919   29.4699 H   0  0  0  0  0  0  0  0  0  0  0  0
    4.3591    0.8224   28.1697 H   0  0  0  0  0  0  0  0  0  0  0  0
    4.3085    1.6910   29.7106 H   0  0  0  0  0  0  0  0  0  0  0  0
    6.3982    3.3199   29.2381 C   0  0  0  0  0  0  0  0  0  0  0  0
    7.3248    4.2537   28.7573 C   0  0  0  0  0  0  0  0  0  0  0  0
    7.8573    4.1227   27.4720 C   0  0  0  0  0  0  0  0  0  0  0  0
    8.6017    4.8234   27.1009 H   0  0  0  0  0  0  0  0  0  0  0  0
    7.6557    5.0709   29.3969 H   0  0  0  0  0  0  0  0  0  0  0  0
    5.9880    3.4145   30.2394 H   0  0  0  0  0  0  0  0  0  0  0  0
    6.2253    1.2954   26.5101 H   0  0  0  0  0  0  0  0  0  0  0  0
    8.9005    3.6681   24.8361 N   0  0  0  0  0  0  0  0  0  0  0  0
    9.1282    3.1859   23.6268 C   0  0  0  0  0  0  0  0  0  0  0  0
    9.8255    3.6524   22.9482 H   0  0  0  0  0  0  0  0  0  0  0  0
    7.0073    0.0006   23.0344 H   0  0  0  0  0  0  0  0  0  0  0  0
    6.6710    0.0484   19.9125 C   0  0  0  0  0  0  0  0  0  0  0  0
    5.4427    0.6804   20.1433 C   0  0  0  0  0  0  0  0  0  0  0  0
    4.7981    1.3188   19.0836 C   0  0  0  0  0  0  0  0  0  0  0  0
    5.3951    1.2936   17.8161 C   0  0  0  0  0  0  0  0  0  0  0  0
    6.5571    0.6740   17.5641 N   0  0  0  0  0  0  0  0  0  0  0  0
    7.1674    0.0796   18.6020 C   0  0  0  0  0  0  0  0  0  0  0  0
    8.1136   -0.4109   18.3661 H   0  0  0  0  0  0  0  0  0  0  0  0
    4.9311    1.7981   16.9692 H   0  0  0  0  0  0  0  0  0  0  0  0
    3.8601    1.8433   19.2271 H   0  0  0  0  0  0  0  0  0  0  0  0
    4.9981    0.6661   21.1416 H   0  0  0  0  0  0  0  0  0  0  0  0
    8.3911   -0.9908   20.6143 H   0  0  0  0  0  0  0  0  0  0  0  0
    5.6599   -1.7723   21.7049 H   0  0  0  0  0  0  0  0  0  0  0  0
    7.2094   -2.4965   22.2113 H   0  0  0  0  0  0  0  0  0  0  0  0
    6.5278   -4.6693   21.2492 H   0  0  0  0  0  0  0  0  0  0  0  0
    5.9364   -4.6018   19.5676 H   0  0  0  0  0  0  0  0  0  0  0  0
    4.9863   -3.8564   20.8980 H   0  0  0  0  0  0  0  0  0  0  0  0
  1  2  1  0
  2  3  1  0
  3  4  1  0
  4  5  1  0
  5  6  1  0
  6  7  2  0
  6  8  1  0
  8  9  2  0
  9 10  1  0
 10 11  1  0
 11 12  2  0
 12 13  1  0
 13 14  1  0
 14 15  1  0
 14 16  1  0
 14 17  1  0
 13 18  2  0
 18 19  1  0
 19 20  2  0
 20 21  1  0
 19 22  1  0
 18 23  1  0
 12 24  1  0
 10 25  1  0
 25 26  2  0
 26 27  1  0
  5 28  1  0
  4 29  1  0
 29 30  2  0
 30 31  1  0
 31 32  2  0
 32 33  1  0
 33 34  2  0
 34 35  1  0
 32 36  1  0
 31 37  1  0
 30 38  1  0
  4 39  1  6
  3 40  1  0
  3 41  1  0
  1 42  1  0
  1 43  1  0
  1 44  1  0
 26  8  1  0
 34 29  1  0
 20 11  1  0
M  END
>  <plip>  (1) 
-0.17857142857142858

>  <filename>  (1) 
[H][c]1[n][n](-[c]2[c]([H])[c]([H])[c]([H])[c]([C]([H])([H])[H])[c]2[H])[n][c]1[C](=[O])[N]([H])[C@]([H])([c]1[c]([H])[n][c]([H])[c]([H])[c]1[H])[C]([H])([H])[O][C]([H])([H])[H]

$$$$
