
     RDKit          3D

 30 31  0  0  0  0  0  0  0  0999 V2000
    4.9588    1.8270   17.0212 H   0  0  0  0  0  0  0  0  0  0  0  0
    5.4712    1.3026   17.8218 C   0  0  0  0  0  0  0  0  0  0  0  0
    6.6445    0.7361   17.4914 N   0  0  0  0  0  0  0  0  0  0  0  0
    7.2914    0.0705   18.4572 C   0  0  0  0  0  0  0  0  0  0  0  0
    8.2438   -0.3800   18.1782 H   0  0  0  0  0  0  0  0  0  0  0  0
    6.8033   -0.0960   19.7717 C   0  0  0  0  0  0  0  0  0  0  0  0
    7.5114   -0.8804   20.8016 C   0  0  0  0  0  0  0  0  0  0  0  0
    8.8440   -0.8849   21.0826 C   0  0  0  0  0  0  0  0  0  0  0  0
    9.6406   -0.4619   20.4818 H   0  0  0  0  0  0  0  0  0  0  0  0
    9.1080   -1.5626   22.2271 N   0  0  0  0  0  0  0  0  0  0  0  0
    9.8627   -1.4988   22.9256 H   0  0  0  0  0  0  0  0  0  0  0  0
    7.8886   -1.9147   22.7808 N   0  0  0  0  0  0  0  0  0  0  0  0
    8.0196   -2.9269   23.7385 N   0  0  0  0  0  0  0  0  0  0  0  0
    7.1753   -3.2374   24.1845 H   0  0  0  0  0  0  0  0  0  0  0  0
    9.0068   -2.8737   24.7037 C   0  0  0  0  0  0  0  0  0  0  0  0
   10.0593   -2.2680   24.6325 O   0  0  0  0  0  0  0  0  0  0  0  0
    8.5682   -3.6421   25.7073 O   0  0  0  0  0  0  0  0  0  0  0  0
    9.4541   -3.9383   26.7921 C   0  0  0  0  0  0  0  0  0  0  0  0
    9.7821   -3.0051   27.2596 H   0  0  0  0  0  0  0  0  0  0  0  0
    8.8165   -4.4719   27.4991 H   0  0  0  0  0  0  0  0  0  0  0  0
   10.6160   -4.7871   26.3295 C   0  0  0  0  0  0  0  0  0  0  0  0
   10.2632   -5.7291   25.9084 H   0  0  0  0  0  0  0  0  0  0  0  0
   11.1880   -4.2598   25.5655 H   0  0  0  0  0  0  0  0  0  0  0  0
   11.2738   -5.0054   27.1697 H   0  0  0  0  0  0  0  0  0  0  0  0
    6.8543   -1.7257   21.8168 C   0  0  0  0  0  0  0  0  0  0  0  0
    5.7400   -2.2054   21.8731 O   0  0  0  0  0  0  0  0  0  0  0  0
    5.5930    0.5416   20.0932 C   0  0  0  0  0  0  0  0  0  0  0  0
    5.2197    0.4806   21.1151 H   0  0  0  0  0  0  0  0  0  0  0  0
    4.9150    1.2492   19.1035 C   0  0  0  0  0  0  0  0  0  0  0  0
    3.9834    1.7648   19.3126 H   0  0  0  0  0  0  0  0  0  0  0  0
  1  2  1  0
  2  3  2  0
  3  4  1  0
  4  5  1  0
  4  6  2  0
  6  7  1  0
  7  8  2  0
  8  9  1  0
  8 10  1  0
 10 11  1  0
 10 12  1  0
 12 13  1  0
 13 14  1  0
 13 15  1  0
 15 16  2  0
 15 17  1  0
 17 18  1  0
 18 19  1  0
 18 20  1  0
 18 21  1  0
 21 22  1  0
 21 23  1  0
 21 24  1  0
 12 25  1  0
 25 26  2  0
  6 27  1  0
 27 28  1  0
 27 29  2  0
 29 30  1  0
 29  2  1  0
 25  7  1  0
M  END
>  <plip>  (1) 
-0.07142857142857142

>  <filename>  (1) 
[H][c]1[n][c]([H])[c](-[c]2[c]([H])[n]([H])[n]([N]([H])[C](=[O])[O][C]([H])([H])[C]([H])([H])[H])[c]2=[O])[c]([H])[c]1[H]

$$$$
