
     RDKit          3D

 45 48  0  0  0  0  0  0  0  0999 V2000
    9.4047    6.2074   22.6080 C   0  0  0  0  0  0  0  0  0  0  0  0
   10.6223    5.4171   23.0098 C   0  0  0  0  0  0  0  0  0  0  0  0
   11.7072    6.1080   23.5601 C   0  0  0  0  0  0  0  0  0  0  0  0
   12.9093    5.4718   23.8444 C   0  0  0  0  0  0  0  0  0  0  0  0
   13.0555    4.1119   23.5839 C   0  0  0  0  0  0  0  0  0  0  0  0
   11.9757    3.3841   23.0928 C   0  0  0  0  0  0  0  0  0  0  0  0
   10.7320    4.0093   22.8628 C   0  0  0  0  0  0  0  0  0  0  0  0
    9.5478    3.1735   22.5024 C   0  0  0  0  0  0  0  0  0  0  0  0
    8.3186    3.5729   22.7812 N   0  0  0  0  0  0  0  0  0  0  0  0
    7.2772    2.3553   22.2924 S   0  0  0  0  0  0  0  0  0  0  0  0
    8.5916    1.3788   21.7314 C   0  0  0  0  0  0  0  0  0  0  0  0
    8.6400    0.1497   21.2019 N   0  0  0  0  0  0  0  0  0  0  0  0
    7.5379   -0.7452   20.8908 C   0  0  0  0  0  0  0  0  0  0  0  0
    6.6677   -0.0383   19.8649 C   0  0  0  0  0  0  0  0  0  0  0  0
    5.4380    0.5822   20.1076 C   0  0  0  0  0  0  0  0  0  0  0  0
    4.8177    1.2679   19.0561 C   0  0  0  0  0  0  0  0  0  0  0  0
    5.4497    1.3037   17.8104 C   0  0  0  0  0  0  0  0  0  0  0  0
    6.6402    0.7342   17.5692 N   0  0  0  0  0  0  0  0  0  0  0  0
    7.2322    0.1076   18.5906 C   0  0  0  0  0  0  0  0  0  0  0  0
    8.2147   -0.3185   18.3784 H   0  0  0  0  0  0  0  0  0  0  0  0
    4.9921    1.8153   16.9664 H   0  0  0  0  0  0  0  0  0  0  0  0
    3.8776    1.7895   19.1956 H   0  0  0  0  0  0  0  0  0  0  0  0
    4.9960    0.5736   21.1063 H   0  0  0  0  0  0  0  0  0  0  0  0
    6.8141   -1.2850   22.1473 C   0  0  0  0  0  0  0  0  0  0  0  0
    7.6876   -1.9551   23.2184 C   0  0  0  0  0  0  0  0  0  0  0  0
    6.6520   -2.8234   23.9423 C   0  0  0  0  0  0  0  0  0  0  0  0
    5.7062   -3.2342   22.7998 C   0  0  0  0  0  0  0  0  0  0  0  0
    5.9210   -2.3136   21.7355 O   0  0  0  0  0  0  0  0  0  0  0  0
    5.9249   -4.2476   22.4393 H   0  0  0  0  0  0  0  0  0  0  0  0
    4.6462   -3.2051   23.0853 H   0  0  0  0  0  0  0  0  0  0  0  0
    7.0797   -3.6929   24.4568 H   0  0  0  0  0  0  0  0  0  0  0  0
    6.1224   -2.2220   24.6894 H   0  0  0  0  0  0  0  0  0  0  0  0
    8.4630   -2.5846   22.7683 H   0  0  0  0  0  0  0  0  0  0  0  0
    8.1912   -1.2242   23.8619 H   0  0  0  0  0  0  0  0  0  0  0  0
    6.2671   -0.4489   22.6185 H   0  0  0  0  0  0  0  0  0  0  0  0
    7.9845   -1.6238   20.4055 H   0  0  0  0  0  0  0  0  0  0  0  0
    9.6113   -0.1170   21.2200 H   0  0  0  0  0  0  0  0  0  0  0  0
    9.7512    1.9489   21.9370 N   0  0  0  0  0  0  0  0  0  0  0  0
   12.0886    2.3251   22.8742 H   0  0  0  0  0  0  0  0  0  0  0  0
   14.0036    3.6273   23.7871 H   0  0  0  0  0  0  0  0  0  0  0  0
   13.7276    6.0473   24.2455 H   0  0  0  0  0  0  0  0  0  0  0  0
   11.6125    7.1667   23.7662 H   0  0  0  0  0  0  0  0  0  0  0  0
    8.6003    6.0495   23.3261 H   0  0  0  0  0  0  0  0  0  0  0  0
    9.0070    5.8953   21.6389 H   0  0  0  0  0  0  0  0  0  0  0  0
    9.6181    7.2750   22.5583 H   0  0  0  0  0  0  0  0  0  0  0  0
  1  2  1  0
  2  3  2  0
  3  4  1  0
  4  5  2  0
  5  6  1  0
  6  7  2  0
  7  8  1  0
  8  9  2  0
  9 10  1  0
 10 11  1  0
 11 12  1  0
 12 13  1  0
 13 14  1  0
 14 15  2  0
 15 16  1  0
 16 17  2  0
 17 18  1  0
 18 19  2  0
 19 20  1  0
 17 21  1  0
 16 22  1  0
 15 23  1  0
 13 24  1  0
 24 25  1  0
 25 26  1  0
 26 27  1  0
 27 28  1  0
 27 29  1  0
 27 30  1  0
 26 31  1  0
 26 32  1  0
 25 33  1  0
 25 34  1  0
 24 35  1  0
 13 36  1  0
 12 37  1  0
 11 38  2  0
  6 39  1  0
  5 40  1  0
  4 41  1  0
  3 42  1  0
  1 43  1  0
  1 44  1  0
  1 45  1  0
  7  2  1  0
 38  8  1  0
 19 14  1  0
 28 24  1  0
M  END
>  <plip>  (1) 
-0.06896551724137931

>  <filename>  (1) 
[H][c]1[n][c]([H])[c]([C]([H])([N]([H])[c]2[n][c](-[c]3[c]([H])[c]([H])[c]([H])[c]([H])[c]3[C]([H])([H])[H])[n][s]2)[C]2([H])[O][C]([H])([H])[C]([H])([H])[C]2([H])[H])[c]([H])[c]1[H]

$$$$
