
     RDKit          3D

 48 51  0  0  0  0  0  0  0  0999 V2000
   10.0072    1.6703   22.6313 C   0  0  0  0  0  0  0  0  0  0  0  0
    8.8059    0.9714   22.2656 O   0  0  0  0  0  0  0  0  0  0  0  0
    8.8858    0.0562   21.2861 C   0  0  0  0  0  0  0  0  0  0  0  0
    9.9011   -0.2459   20.7033 O   0  0  0  0  0  0  0  0  0  0  0  0
    7.4662   -0.5580   21.0466 C   0  0  0  0  0  0  0  0  0  0  0  0
    7.4194   -2.1099   20.7455 N   0  0  0  0  0  4  0  0  0  0  0  0
    7.9258   -3.0055   21.8151 C   0  0  0  0  0  0  0  0  0  0  0  0
    6.8203   -3.3235   22.8109 C   0  0  2  0  0  0  0  0  0  0  0  0
    6.9558   -4.5097   23.7251 C   0  0  0  0  0  0  0  0  0  0  0  0
    5.8675   -4.4932   22.6755 C   0  0  2  0  0  0  0  0  0  0  0  0
    5.9838   -5.3172   21.4007 C   0  0  0  0  0  0  0  0  0  0  0  0
    5.1617   -6.5929   21.5230 C   0  0  0  0  0  0  0  0  0  0  0  0
    3.7920   -6.3108   21.8274 O   0  0  0  0  0  0  0  0  0  0  0  0
    3.4879   -5.2940   22.6847 C   0  0  0  0  0  0  0  0  0  0  0  0
    2.1369   -5.1912   23.0465 C   0  0  0  0  0  0  0  0  0  0  0  0
    1.7381   -4.2685   24.0086 C   0  0  0  0  0  0  0  0  0  0  0  0
    2.6945   -3.4207   24.5931 C   0  0  0  0  0  0  0  0  0  0  0  0
    4.0221   -3.4693   24.1686 C   0  0  0  0  0  0  0  0  0  0  0  0
    4.4472   -4.3826   23.1747 C   0  0  0  0  0  0  0  0  0  0  0  0
    4.7269   -2.7690   24.6142 H   0  0  0  0  0  0  0  0  0  0  0  0
    2.3876   -2.7079   25.3541 H   0  0  0  0  0  0  0  0  0  0  0  0
    0.6881   -4.1959   24.2869 H   0  0  0  0  0  0  0  0  0  0  0  0
    1.4351   -5.8519   22.5479 H   0  0  0  0  0  0  0  0  0  0  0  0
    5.5810   -7.2653   22.2923 H   0  0  0  0  0  0  0  0  0  0  0  0
    5.1335   -7.1312   20.5706 H   0  0  0  0  0  0  0  0  0  0  0  0
    7.0230   -5.5637   21.1661 H   0  0  0  0  0  0  0  0  0  0  0  0
    5.6028   -4.6926   20.5765 H   0  0  0  0  0  0  0  0  0  0  0  0
    7.7843   -5.2034   23.5790 H   0  0  0  0  0  0  0  0  0  0  0  0
    6.6514   -4.3893   24.7633 H   0  0  0  0  0  0  0  0  0  0  0  0
    6.3475   -2.4196   23.2021 H   0  0  0  0  0  0  0  0  0  0  0  0
    8.3500   -3.9140   21.3721 H   0  0  0  0  0  0  0  0  0  0  0  0
    8.7619   -2.5196   22.3367 H   0  0  0  0  0  0  0  0  0  0  0  0
    7.9173   -2.2297   19.8355 H   0  0  0  0  0  0  0  0  0  0  0  0
    6.4005   -2.3205   20.5871 H   0  0  0  0  0  0  0  0  0  0  0  0
    6.6672    0.0291   19.9010 C   0  0  0  0  0  0  0  0  0  0  0  0
    5.4403    0.6726   20.1319 C   0  0  0  0  0  0  0  0  0  0  0  0
    4.7955    1.3004   19.0628 C   0  0  0  0  0  0  0  0  0  0  0  0
    5.3833    1.2490   17.7955 C   0  0  0  0  0  0  0  0  0  0  0  0
    6.5214    0.5836   17.5445 N   0  0  0  0  0  0  0  0  0  0  0  0
    7.1325   -0.0108   18.5757 C   0  0  0  0  0  0  0  0  0  0  0  0
    8.0665   -0.5170   18.3305 H   0  0  0  0  0  0  0  0  0  0  0  0
    4.9228    1.7573   16.9478 H   0  0  0  0  0  0  0  0  0  0  0  0
    3.8632    1.8407   19.1935 H   0  0  0  0  0  0  0  0  0  0  0  0
    5.0018    0.6775   21.1307 H   0  0  0  0  0  0  0  0  0  0  0  0
    6.9496   -0.3663   21.9860 H   0  0  0  0  0  0  0  0  0  0  0  0
   10.3749    2.2698   21.7899 H   0  0  0  0  0  0  0  0  0  0  0  0
    9.7079    2.3163   23.4574 H   0  0  0  0  0  0  0  0  0  0  0  0
   10.7865    0.9701   22.9560 H   0  0  0  0  0  0  0  0  0  0  0  0
  1  2  1  0
  2  3  1  0
  3  4  2  0
  3  5  1  0
  5  6  1  0
  6  7  1  0
  7  8  1  0
  8  9  1  0
 10  9  1  1
 10 11  1  0
 11 12  1  0
 12 13  1  0
 13 14  1  0
 14 15  2  0
 15 16  1  0
 16 17  2  0
 17 18  1  0
 18 19  2  0
 18 20  1  0
 17 21  1  0
 16 22  1  0
 15 23  1  0
 12 24  1  0
 12 25  1  0
 11 26  1  0
 11 27  1  0
  9 28  1  0
  9 29  1  0
  8 30  1  1
  7 31  1  0
  7 32  1  0
  6 33  1  0
  6 34  1  0
  5 35  1  0
 35 36  2  0
 36 37  1  0
 37 38  2  0
 38 39  1  0
 39 40  2  0
 40 41  1  0
 38 42  1  0
 37 43  1  0
 36 44  1  0
  5 45  1  0
  1 46  1  0
  1 47  1  0
  1 48  1  0
 10  8  1  0
 19 14  1  0
 40 35  1  0
 19 10  1  0
M  CHG  1   6   1
M  END
>  <plip>  (1) 
-0.06896551724137931

>  <filename>  (1) 
[H][c]1[n][c]([H])[c]([C]([H])([C](=[O])[O][C]([H])([H])[H])[N+]([H])([H])[C]([H])([H])[C@]2([H])[C]([H])([H])[C@@]23[c]2[c]([H])[c]([H])[c]([H])[c]([H])[c]2[O][C]([H])([H])[C]3([H])[H])[c]([H])[c]1[H]

$$$$
