
     RDKit          3D

 22 23  0  0  0  0  0  0  0  0999 V2000
    6.6180   -0.9512   21.8159 H   0  0  0  0  0  0  0  0  0  0  0  0
    7.3036   -0.6414   21.0161 C   0  0  0  0  0  0  0  0  0  0  0  0
    8.6255   -0.8545   21.1030 C   0  0  0  0  0  0  0  0  0  0  0  0
    9.3118   -0.4843   20.3451 H   0  0  0  0  0  0  0  0  0  0  0  0
    9.3131   -1.5992   22.1442 C   0  0  0  0  0  0  0  0  0  0  0  0
   10.5917   -1.8991   22.1306 N   0  0  0  0  0  0  0  0  0  0  0  0
   10.8016   -2.6819   23.2329 C   0  0  0  0  0  0  0  0  0  0  0  0
   11.7695   -3.0863   23.4798 H   0  0  0  0  0  0  0  0  0  0  0  0
    9.6452   -2.8396   23.9429 C   0  0  0  0  0  0  0  0  0  0  0  0
    9.4335   -3.3431   24.8760 H   0  0  0  0  0  0  0  0  0  0  0  0
    8.6958   -2.1489   23.2331 N   0  0  0  0  0  0  0  0  0  0  0  0
    7.6982   -2.1488   23.3761 H   0  0  0  0  0  0  0  0  0  0  0  0
    6.6328    0.0230   19.8881 C   0  0  0  0  0  0  0  0  0  0  0  0
    7.1591    0.0735   18.5802 C   0  0  0  0  0  0  0  0  0  0  0  0
    8.0986   -0.4299   18.3470 H   0  0  0  0  0  0  0  0  0  0  0  0
    6.5566    0.6889   17.5554 N   0  0  0  0  0  0  0  0  0  0  0  0
    5.3938    1.3129   17.8053 C   0  0  0  0  0  0  0  0  0  0  0  0
    4.9297    1.8237   16.9654 H   0  0  0  0  0  0  0  0  0  0  0  0
    4.7764    1.3222   19.0600 C   0  0  0  0  0  0  0  0  0  0  0  0
    3.8436    1.8567   19.2018 H   0  0  0  0  0  0  0  0  0  0  0  0
    5.3995    0.6567   20.1105 C   0  0  0  0  0  0  0  0  0  0  0  0
    4.9600    0.6451   21.1065 H   0  0  0  0  0  0  0  0  0  0  0  0
  1  2  1  0
  2  3  2  3
  3  4  1  0
  3  5  1  0
  5  6  2  0
  6  7  1  0
  7  8  1  0
  7  9  2  0
  9 10  1  0
  9 11  1  0
 11 12  1  0
  2 13  1  0
 13 14  2  0
 14 15  1  0
 14 16  1  0
 16 17  2  0
 17 18  1  0
 17 19  1  0
 19 20  1  0
 19 21  2  0
 21 22  1  0
 11  5  1  0
 21 13  1  0
M  END
>  <plip>  (1) 
-0.03571428571428571

>  <filename>  (1) 
[H][C](=[C]([H])[c]1[n][c]([H])[c]([H])[n]1[H])[c]1[c]([H])[n][c]([H])[c]([H])[c]1[H]

$$$$
