
     RDKit          3D

 33 33  0  0  0  0  0  0  0  0999 V2000
    4.9216    1.8091   16.9712 H   0  0  0  0  0  0  0  0  0  0  0  0
    5.3822    1.3001   17.8175 C   0  0  0  0  0  0  0  0  0  0  0  0
    6.5399    0.6724   17.5650 N   0  0  0  0  0  0  0  0  0  0  0  0
    7.1457    0.0605   18.5899 C   0  0  0  0  0  0  0  0  0  0  0  0
    8.1108   -0.3955   18.3691 H   0  0  0  0  0  0  0  0  0  0  0  0
    6.6312    0.0066   19.9022 C   0  0  0  0  0  0  0  0  0  0  0  0
    7.4073   -0.6517   21.0125 C   0  0  0  0  0  0  0  0  0  0  0  0
    7.9285   -1.5508   20.6696 H   0  0  0  0  0  0  0  0  0  0  0  0
    6.7772   -0.9361   21.8604 H   0  0  0  0  0  0  0  0  0  0  0  0
    8.8128    0.3266   21.6639 S   0  0  0  0  0  4  0  0  0  0  0  0
    9.6394    0.7194   20.4738 O   0  0  0  0  0  0  0  0  0  0  0  0
    7.9643    1.8580   22.1688 C   0  0  0  0  0  0  0  0  0  0  0  0
    8.8172    2.5284   22.3286 H   0  0  0  0  0  0  0  0  0  0  0  0
    7.4354    2.2461   21.2894 H   0  0  0  0  0  0  0  0  0  0  0  0
    7.0863    1.7460   23.4114 C   0  0  0  0  0  0  0  0  0  0  0  0
    6.5521    2.6921   23.5633 H   0  0  0  0  0  0  0  0  0  0  0  0
    6.3031    0.9860   23.2725 H   0  0  0  0  0  0  0  0  0  0  0  0
    7.8689    1.4183   24.6956 C   0  0  0  0  0  0  0  0  0  0  0  0
    8.6056    2.2112   24.9006 H   0  0  0  0  0  0  0  0  0  0  0  0
    8.4451    0.4914   24.5503 H   0  0  0  0  0  0  0  0  0  0  0  0
    7.0425    1.2566   25.8809 N   0  0  0  0  0  0  0  0  0  0  0  0
    6.3554    2.4664   26.3012 C   0  0  0  0  0  0  0  0  0  0  0  0
    5.4940    2.7374   25.6581 H   0  0  0  0  0  0  0  0  0  0  0  0
    5.9803    2.3323   27.3233 H   0  0  0  0  0  0  0  0  0  0  0  0
    7.0541    3.3134   26.3033 H   0  0  0  0  0  0  0  0  0  0  0  0
    6.1531    0.1073   25.8286 C   0  0  0  0  0  0  0  0  0  0  0  0
    5.2776    0.2481   25.1627 H   0  0  0  0  0  0  0  0  0  0  0  0
    5.7758   -0.1058   26.8364 H   0  0  0  0  0  0  0  0  0  0  0  0
    6.7038   -0.7743   25.4750 H   0  0  0  0  0  0  0  0  0  0  0  0
    5.4139    0.6510   20.1369 C   0  0  0  0  0  0  0  0  0  0  0  0
    4.9849    0.6517   21.1409 H   0  0  0  0  0  0  0  0  0  0  0  0
    4.7805    1.3172   19.0803 C   0  0  0  0  0  0  0  0  0  0  0  0
    3.8558    1.8595   19.2252 H   0  0  0  0  0  0  0  0  0  0  0  0
  1  2  1  0
  2  3  2  0
  3  4  1  0
  4  5  1  0
  4  6  2  0
  6  7  1  0
  7  8  1  0
  7  9  1  0
 10  7  1  6
 10 11  2  0
 10 12  1  0
 12 13  1  0
 12 14  1  0
 12 15  1  0
 15 16  1  0
 15 17  1  0
 15 18  1  0
 18 19  1  0
 18 20  1  0
 18 21  1  0
 21 22  1  0
 22 23  1  0
 22 24  1  0
 22 25  1  0
 21 26  1  0
 26 27  1  0
 26 28  1  0
 26 29  1  0
  6 30  1  0
 30 31  1  0
 30 32  2  0
 32 33  1  0
 32  2  1  0
M  END
>  <plip>  (1) 
-0.03571428571428571

>  <filename>  (1) 
[H][c]1[n][c]([H])[c]([C]([H])([H])[S@@](=[O])[C]([H])([H])[C]([H])([H])[C]([H])([H])[N]([C]([H])([H])[H])[C]([H])([H])[H])[c]([H])[c]1[H]

$$$$
