
     RDKit          3D

 25 27  0  0  0  0  0  0  0  0999 V2000
    5.2567    1.7693   16.4844 H   0  0  0  0  0  0  0  0  0  0  0  0
    5.5529    1.3460   17.4436 C   0  0  0  0  0  0  0  0  0  0  0  0
    6.6945    0.6420   17.4468 N   0  0  0  0  0  0  0  0  0  0  0  0
    7.0903    0.1068   18.6066 C   0  0  0  0  0  0  0  0  0  0  0  0
    8.0211   -0.4556   18.5850 H   0  0  0  0  0  0  0  0  0  0  0  0
    6.3841    0.2461   19.8170 C   0  0  0  0  0  0  0  0  0  0  0  0
    6.9791   -0.3129   21.0434 C   0  0  0  0  0  0  0  0  0  0  0  0
    8.0184   -1.1102   21.0483 N   0  0  0  0  0  0  0  0  0  0  0  0
    8.3632   -1.4001   22.3504 C   0  0  0  0  0  0  0  0  0  0  0  0
    9.6105   -2.2770   22.6936 C   0  0  0  0  0  0  0  0  0  0  0  0
   10.6951   -2.0518   22.1952 O   0  0  0  0  0  0  0  0  0  0  0  0
    9.4563   -3.3858   23.6913 C   0  0  0  0  0  0  0  0  0  0  0  0
   10.8862   -4.0967   24.3627 S   0  0  0  0  0  0  0  0  0  0  0  0
    9.9638   -5.2252   25.2612 C   0  0  0  0  0  0  0  0  0  0  0  0
   10.4801   -5.9492   25.8867 H   0  0  0  0  0  0  0  0  0  0  0  0
    8.6213   -5.0727   25.0639 C   0  0  0  0  0  0  0  0  0  0  0  0
    7.8627   -5.6729   25.5589 H   0  0  0  0  0  0  0  0  0  0  0  0
    8.3284   -4.0059   24.1671 C   0  0  0  0  0  0  0  0  0  0  0  0
    7.3162   -3.6919   23.9223 H   0  0  0  0  0  0  0  0  0  0  0  0
    7.6676   -0.8684   23.3300 N   0  0  0  0  0  0  0  0  0  0  0  0
    6.4561    0.0502   22.6626 S   0  0  0  0  0  0  0  0  0  0  0  0
    5.1680    0.9583   19.7904 C   0  0  0  0  0  0  0  0  0  0  0  0
    4.5557    1.0899   20.6839 H   0  0  0  0  0  0  0  0  0  0  0  0
    4.7539    1.5146   18.5793 C   0  0  0  0  0  0  0  0  0  0  0  0
    3.8380    2.0891   18.4993 H   0  0  0  0  0  0  0  0  0  0  0  0
  1  2  1  0
  2  3  2  0
  3  4  1  0
  4  5  1  0
  4  6  2  0
  6  7  1  0
  7  8  2  0
  8  9  1  0
  9 10  1  0
 10 11  2  0
 10 12  1  0
 12 13  1  0
 13 14  1  0
 14 15  1  0
 14 16  2  0
 16 17  1  0
 16 18  1  0
 18 19  1  0
  9 20  2  0
 20 21  1  0
  6 22  1  0
 22 23  1  0
 22 24  2  0
 24 25  1  0
 24  2  1  0
 21  7  1  0
 18 12  2  0
M  END
>  <plip>  (1) 
-0.07142857142857142

>  <filename>  (1) 
[H][c]1[n][c]([H])[c](-[c]2[n][c]([C](=[O])[c]3[s][c]([H])[c]([H])[c]3[H])[n][s]2)[c]([H])[c]1[H]

$$$$
