
     RDKit          3D

 43 45  0  0  0  0  0  0  0  0999 V2000
    7.8263    6.2203   22.3785 C   0  0  0  0  0  0  0  0  0  0  0  0
    8.2683    4.8081   22.0647 C   0  0  0  0  0  0  0  0  0  0  0  0
    7.2779    3.7007   22.4489 C   0  0  0  0  0  0  0  0  0  0  0  0
    7.8328    2.3059   22.1849 N   0  0  0  0  0  4  0  0  0  0  0  0
    7.2367    1.2587   23.0956 C   0  0  0  0  0  0  0  0  0  0  0  0
    7.5093   -0.0717   22.4915 C   0  0  0  0  0  0  0  0  0  0  0  0
    8.1395   -1.1281   23.1118 C   0  0  0  0  0  0  0  0  0  0  0  0
    8.4105   -2.0360   22.1536 N   0  0  0  0  0  0  0  0  0  0  0  0
    9.0721   -3.3061   22.3249 C   0  0  0  0  0  0  0  0  0  0  0  0
    8.6563   -3.9865   21.5816 H   0  0  0  0  0  0  0  0  0  0  0  0
    8.8850   -3.6974   23.3297 H   0  0  0  0  0  0  0  0  0  0  0  0
   10.1519   -3.2098   22.1774 H   0  0  0  0  0  0  0  0  0  0  0  0
    8.0064   -1.6417   20.9417 N   0  0  0  0  0  0  0  0  0  0  0  0
    7.4051   -0.4663   21.1254 C   0  0  0  0  0  0  0  0  0  0  0  0
    6.6767    0.1918   20.0208 C   0  0  0  0  0  0  0  0  0  0  0  0
    5.4197    0.8120   20.1626 C   0  0  0  0  0  0  0  0  0  0  0  0
    4.8271    1.3918   19.0374 C   0  0  0  0  0  0  0  0  0  0  0  0
    5.5096    1.3396   17.8179 C   0  0  0  0  0  0  0  0  0  0  0  0
    6.6853    0.7166   17.6607 N   0  0  0  0  0  0  0  0  0  0  0  0
    7.2285    0.1265   18.7291 C   0  0  0  0  0  0  0  0  0  0  0  0
    8.1454   -0.4318   18.5476 H   0  0  0  0  0  0  0  0  0  0  0  0
    5.0798    1.7880   16.9221 H   0  0  0  0  0  0  0  0  0  0  0  0
    3.8508    1.8596   19.0798 H   0  0  0  0  0  0  0  0  0  0  0  0
    4.9036    0.8234   21.1252 H   0  0  0  0  0  0  0  0  0  0  0  0
    8.4398   -1.3166   24.1414 H   0  0  0  0  0  0  0  0  0  0  0  0
    6.1653    1.4610   23.2449 H   0  0  0  0  0  0  0  0  0  0  0  0
    7.7147    1.3242   24.0860 H   0  0  0  0  0  0  0  0  0  0  0  0
    9.3978    2.2848   22.2384 C   0  0  0  0  0  0  0  0  0  0  0  0
    9.9240    3.2753   23.2866 C   0  0  0  0  0  0  0  0  0  0  0  0
    9.5726    4.6603   22.8669 N   0  0  0  0  0  4  0  0  0  0  0  0
   10.3345    5.0622   22.2595 H   0  0  0  0  0  0  0  0  0  0  0  0
    9.4438    5.2941   23.6822 H   0  0  0  0  0  0  0  0  0  0  0  0
   10.9993    3.1566   23.4221 H   0  0  0  0  0  0  0  0  0  0  0  0
    9.4473    3.0341   24.2469 H   0  0  0  0  0  0  0  0  0  0  0  0
    9.7366    1.2720   22.4515 H   0  0  0  0  0  0  0  0  0  0  0  0
    9.7670    2.5893   21.2521 H   0  0  0  0  0  0  0  0  0  0  0  0
    7.5607    1.9647   21.2338 H   0  0  0  0  0  0  0  0  0  0  0  0
    7.0929    3.8240   23.5230 H   0  0  0  0  0  0  0  0  0  0  0  0
    6.3293    3.8381   21.9225 H   0  0  0  0  0  0  0  0  0  0  0  0
    8.4708    4.6901   20.9968 H   0  0  0  0  0  0  0  0  0  0  0  0
    8.6400    6.9086   22.1174 H   0  0  0  0  0  0  0  0  0  0  0  0
    7.6503    6.3018   23.4575 H   0  0  0  0  0  0  0  0  0  0  0  0
    6.9202    6.5268   21.8498 H   0  0  0  0  0  0  0  0  0  0  0  0
  1  2  1  0
  2  3  1  0
  3  4  1  0
  4  5  1  0
  5  6  1  0
  6  7  2  0
  7  8  1  0
  8  9  1  0
  9 10  1  0
  9 11  1  0
  9 12  1  0
  8 13  1  0
 13 14  2  0
 14 15  1  0
 15 16  2  0
 16 17  1  0
 17 18  2  0
 18 19  1  0
 19 20  2  0
 20 21  1  0
 18 22  1  0
 17 23  1  0
 16 24  1  0
  7 25  1  0
  5 26  1  0
  5 27  1  0
  4 28  1  0
 28 29  1  0
 29 30  1  0
 30 31  1  0
 30 32  1  0
 29 33  1  0
 29 34  1  0
 28 35  1  0
 28 36  1  0
  4 37  1  0
  3 38  1  0
  3 39  1  0
  2 40  1  0
  1 41  1  0
  1 42  1  0
  1 43  1  0
 30  2  1  0
 14  6  1  0
 20 15  1  0
M  CHG  2   4   1  30   1
M  END
>  <plip>  (1) 
-0.10714285714285714

>  <filename>  (1) 
[H][c]1[n][c]([H])[c](-[c]2[n][n]([C]([H])([H])[H])[c]([H])[c]2[C]([H])([H])[N+]2([H])[C]([H])([H])[C]([H])([H])[N+]([H])([H])[C]([H])([C]([H])([H])[H])[C]2([H])[H])[c]([H])[c]1[H]

$$$$
