
     RDKit          3D

 43 46  0  0  0  0  0  0  0  0999 V2000
   10.1945    1.2672   22.5414 C   0  0  0  0  0  0  0  0  0  0  0  0
    9.3619    0.4159   21.7396 O   0  0  0  0  0  0  0  0  0  0  0  0
    8.0467    0.3532   22.0176 C   0  0  0  0  0  0  0  0  0  0  0  0
    7.4920    0.9977   22.8809 O   0  0  0  0  0  0  0  0  0  0  0  0
    7.3665   -0.7065   21.0802 C   0  0  0  0  0  0  0  0  0  0  0  0
    6.4996   -1.6279   21.8224 N   0  0  0  0  0  0  0  0  0  0  0  0
    6.0455   -2.8014   21.2927 C   0  0  0  0  0  0  0  0  0  0  0  0
    6.2754   -3.1256   20.1374 O   0  0  0  0  0  0  0  0  0  0  0  0
    5.2087   -3.6943   22.2292 C   0  0  0  0  0  0  0  0  0  0  0  0
    4.7349   -4.9227   21.8536 C   0  0  0  0  0  0  0  0  0  0  0  0
    3.6197   -5.5242   22.9996 S   0  0  0  0  0  0  0  0  0  0  0  0
    3.8864   -4.1033   23.9827 C   0  0  0  0  0  0  0  0  0  0  0  0
    3.1501   -3.8394   25.2410 C   0  0  0  0  0  0  0  0  0  0  0  0
    3.4479   -2.6679   25.9699 C   0  0  0  0  0  0  0  0  0  0  0  0
    2.8609   -2.4126   27.2213 C   0  0  0  0  0  0  0  0  0  0  0  0
    1.9567   -3.3408   27.6997 C   0  0  0  0  0  0  0  0  0  0  0  0
    1.2779   -3.3433   28.8822 O   0  0  0  0  0  0  0  0  0  0  0  0
    0.4878   -4.5320   28.8936 C   0  0  0  0  0  0  0  0  0  0  0  0
    0.6849   -5.2070   27.6520 O   0  0  0  0  0  0  0  0  0  0  0  0
    1.6053   -4.4733   26.9602 C   0  0  0  0  0  0  0  0  0  0  0  0
    2.1658   -4.7421   25.7321 C   0  0  0  0  0  0  0  0  0  0  0  0
    1.8388   -5.6227   25.1880 H   0  0  0  0  0  0  0  0  0  0  0  0
    0.7999   -5.1797   29.7256 H   0  0  0  0  0  0  0  0  0  0  0  0
   -0.5708   -4.2653   29.0067 H   0  0  0  0  0  0  0  0  0  0  0  0
    3.1099   -1.5349   27.8109 H   0  0  0  0  0  0  0  0  0  0  0  0
    4.1522   -1.9502   25.5534 H   0  0  0  0  0  0  0  0  0  0  0  0
    4.7573   -3.2837   23.4710 N   0  0  0  0  0  0  0  0  0  0  0  0
    4.9950   -5.4968   20.9729 H   0  0  0  0  0  0  0  0  0  0  0  0
    6.0847   -1.3472   22.7030 H   0  0  0  0  0  0  0  0  0  0  0  0
    6.6055   -0.0466   19.9314 C   0  0  0  0  0  0  0  0  0  0  0  0
    5.4022    0.6369   20.1433 C   0  0  0  0  0  0  0  0  0  0  0  0
    4.8098    1.2960   19.0639 C   0  0  0  0  0  0  0  0  0  0  0  0
    5.4423    1.2644   17.8167 C   0  0  0  0  0  0  0  0  0  0  0  0
    6.5817    0.5963   17.5878 N   0  0  0  0  0  0  0  0  0  0  0  0
    7.1297   -0.0445   18.6303 C   0  0  0  0  0  0  0  0  0  0  0  0
    8.0628   -0.5705   18.4215 H   0  0  0  0  0  0  0  0  0  0  0  0
    5.0155    1.7919   16.9627 H   0  0  0  0  0  0  0  0  0  0  0  0
    3.8832    1.8457   19.1733 H   0  0  0  0  0  0  0  0  0  0  0  0
    4.9418    0.6729   21.1346 H   0  0  0  0  0  0  0  0  0  0  0  0
    8.1921   -1.2907   20.6563 H   0  0  0  0  0  0  0  0  0  0  0  0
   10.0385    1.0784   23.6084 H   0  0  0  0  0  0  0  0  0  0  0  0
   10.0024    2.3193   22.3053 H   0  0  0  0  0  0  0  0  0  0  0  0
   11.2208    1.0124   22.2717 H   0  0  0  0  0  0  0  0  0  0  0  0
  1  2  1  0
  2  3  1  0
  3  4  2  0
  3  5  1  0
  5  6  1  0
  6  7  1  0
  7  8  2  0
  7  9  1  0
  9 10  2  0
 10 11  1  0
 11 12  1  0
 12 13  1  0
 13 14  2  0
 14 15  1  0
 15 16  2  0
 16 17  1  0
 17 18  1  0
 18 19  1  0
 19 20  1  0
 20 21  2  0
 21 22  1  0
 18 23  1  0
 18 24  1  0
 15 25  1  0
 14 26  1  0
 12 27  2  0
 10 28  1  0
  6 29  1  0
  5 30  1  0
 30 31  2  0
 31 32  1  0
 32 33  2  0
 33 34  1  0
 34 35  2  0
 35 36  1  0
 33 37  1  0
 32 38  1  0
 31 39  1  0
  5 40  1  0
  1 41  1  0
  1 42  1  0
  1 43  1  0
 27  9  1  0
 35 30  1  0
 21 13  1  0
 20 16  1  0
M  END
>  <plip>  (1) 
-0.10344827586206896

>  <filename>  (1) 
[H][c]1[n][c]([H])[c]([C]([H])([C](=[O])[O][C]([H])([H])[H])[N]([H])[C](=[O])[c]2[n][c](-[c]3[c]([H])[c]([H])[c]4[c]([c]3[H])[O][C]([H])([H])[O]4)[s][c]2[H])[c]([H])[c]1[H]

$$$$
