
     RDKit          3D

 50 53  0  0  0  0  0  0  0  0999 V2000
   12.3919    0.8088   22.5288 O   0  0  0  0  0  0  0  0  0  0  0  0
   11.1824    0.9884   22.6108 C   0  0  0  0  0  0  0  0  0  0  0  0
   10.2857   -0.0663   22.1758 C   0  0  0  0  0  0  0  0  0  0  0  0
   10.9800   -1.7135   21.4704 Br  0  0  0  0  0  0  0  0  0  0  0  0
    8.9426    0.1762   22.2584 C   0  0  0  0  0  0  0  0  0  0  0  0
    8.1137   -0.7508   21.6578 N   0  0  0  0  0  0  0  0  0  0  0  0
    6.6448   -0.7035   21.6417 C   0  0  0  0  0  0  0  0  0  0  0  0
    6.1995   -0.0467   20.3581 C   0  0  0  0  0  0  0  0  0  0  0  0
    5.0267    0.7166   20.3051 C   0  0  0  0  0  0  0  0  0  0  0  0
    4.7048    1.3344   19.0965 C   0  0  0  0  0  0  0  0  0  0  0  0
    5.5365    1.1647   17.9850 C   0  0  0  0  0  0  0  0  0  0  0  0
    6.6529    0.4181   18.0300 N   0  0  0  0  0  0  0  0  0  0  0  0
    6.9787   -0.1680   19.1956 C   0  0  0  0  0  0  0  0  0  0  0  0
    7.8942   -0.7501   19.2290 H   0  0  0  0  0  0  0  0  0  0  0  0
    5.2758    1.6558   17.0516 H   0  0  0  0  0  0  0  0  0  0  0  0
    3.8302    1.9690   19.0070 H   0  0  0  0  0  0  0  0  0  0  0  0
    4.3967    0.8460   21.1848 H   0  0  0  0  0  0  0  0  0  0  0  0
    6.1422   -2.1601   21.8026 C   0  0  0  0  0  0  0  0  0  0  0  0
    6.5594   -3.0117   20.6152 C   0  0  0  0  0  0  0  0  0  0  0  0
    6.1732   -4.4755   20.8139 C   0  0  0  0  0  0  0  0  0  0  0  0
    6.9070   -5.0386   22.0260 C   0  0  0  0  0  0  0  0  0  0  0  0
    6.4961   -4.2573   23.2779 C   0  0  0  0  0  0  0  0  0  0  0  0
    6.7289   -2.7487   23.1129 C   0  0  0  0  0  0  0  0  0  0  0  0
    7.8121   -2.5718   23.1213 H   0  0  0  0  0  0  0  0  0  0  0  0
    6.3067   -2.2233   23.9754 H   0  0  0  0  0  0  0  0  0  0  0  0
    5.4374   -4.4440   23.4818 H   0  0  0  0  0  0  0  0  0  0  0  0
    7.0733   -4.6117   24.1375 H   0  0  0  0  0  0  0  0  0  0  0  0
    6.6535   -6.0974   22.1498 H   0  0  0  0  0  0  0  0  0  0  0  0
    7.9897   -4.9636   21.8732 H   0  0  0  0  0  0  0  0  0  0  0  0
    6.4256   -5.0476   19.9168 H   0  0  0  0  0  0  0  0  0  0  0  0
    5.0966   -4.5579   20.9835 H   0  0  0  0  0  0  0  0  0  0  0  0
    6.0985   -2.6254   19.6990 H   0  0  0  0  0  0  0  0  0  0  0  0
    7.6427   -2.9278   20.5365 H   0  0  0  0  0  0  0  0  0  0  0  0
    5.0526   -2.1928   21.8217 H   0  0  0  0  0  0  0  0  0  0  0  0
    6.2884   -0.1037   22.4881 H   0  0  0  0  0  0  0  0  0  0  0  0
    8.5731   -1.5019   21.1447 H   0  0  0  0  0  0  0  0  0  0  0  0
    8.4509    1.3909   22.9310 C   0  0  0  0  0  0  0  0  0  0  0  0
    9.2753    2.3493   23.3028 N   0  0  0  0  0  0  0  0  0  0  0  0
   10.6353    2.2035   23.0280 N   0  0  0  0  0  0  0  0  0  0  0  0
   11.4421    3.3353   22.8734 C   0  0  0  0  0  0  0  0  0  0  0  0
   10.8450    4.5881   23.0405 C   0  0  0  0  0  0  0  0  0  0  0  0
   11.5630    5.7612   22.8688 C   0  0  0  0  0  0  0  0  0  0  0  0
   12.8940    5.6324   22.4761 C   0  0  0  0  0  0  0  0  0  0  0  0
   13.4378    4.3517   22.2854 C   0  0  0  0  0  0  0  0  0  0  0  0
   12.7338    3.2263   22.5027 N   0  0  0  0  0  0  0  0  0  0  0  0
   14.4662    4.2681   21.9403 H   0  0  0  0  0  0  0  0  0  0  0  0
   13.4943    6.5204   22.3003 H   0  0  0  0  0  0  0  0  0  0  0  0
   11.0705    6.7206   23.0213 H   0  0  0  0  0  0  0  0  0  0  0  0
    9.7926    4.6102   23.2853 H   0  0  0  0  0  0  0  0  0  0  0  0
    7.3864    1.4879   23.1123 H   0  0  0  0  0  0  0  0  0  0  0  0
  1  2  2  0
  2  3  1  0
  3  4  1  0
  3  5  2  0
  5  6  1  0
  6  7  1  0
  7  8  1  0
  8  9  2  0
  9 10  1  0
 10 11  2  0
 11 12  1  0
 12 13  2  0
 13 14  1  0
 11 15  1  0
 10 16  1  0
  9 17  1  0
  7 18  1  0
 18 19  1  0
 19 20  1  0
 20 21  1  0
 21 22  1  0
 22 23  1  0
 23 24  1  0
 23 25  1  0
 22 26  1  0
 22 27  1  0
 21 28  1  0
 21 29  1  0
 20 30  1  0
 20 31  1  0
 19 32  1  0
 19 33  1  0
 18 34  1  0
  7 35  1  0
  6 36  1  0
  5 37  1  0
 37 38  2  0
 38 39  1  0
 39 40  1  0
 40 41  2  0
 41 42  1  0
 42 43  2  0
 43 44  1  0
 44 45  2  0
 44 46  1  0
 43 47  1  0
 42 48  1  0
 41 49  1  0
 37 50  1  0
 39  2  1  0
 45 40  1  0
 13  8  1  0
 23 18  1  0
M  END
>  <plip>  (1) 
-0.034482758620689655

>  <filename>  (1) 
[H][c]1[n][c](-[n]2[n][c]([H])[c]([N]([H])[C]([H])([c]3[c]([H])[n][c]([H])[c]([H])[c]3[H])[C]3([H])[C]([H])([H])[C]([H])([H])[C]([H])([H])[C]([H])([H])[C]3([H])[H])[c]([Br])[c]2=[O])[c]([H])[c]([H])[c]1[H]

$$$$
