
     RDKit          3D

 47 49  0  0  0  0  0  0  0  0999 V2000
    5.6705   -3.1628   21.5573 C   0  0  0  0  0  0  0  0  0  0  0  0
    7.1623   -2.9453   21.8167 C   0  0  0  0  0  0  0  0  0  0  0  0
    7.7746   -1.9018   20.8819 C   0  0  0  0  0  0  0  0  0  0  0  0
    7.3311   -0.5263   21.1366 N   0  0  0  0  0  0  0  0  0  0  0  0
    8.0821    0.1850   22.1463 C   0  0  0  0  0  0  0  0  0  0  0  0
    9.1491    0.7045   21.8808 O   0  0  0  0  0  0  0  0  0  0  0  0
    7.5562    0.2343   23.5116 C   0  0  0  0  0  0  0  0  0  0  0  0
    7.8985    1.2174   24.4115 C   0  0  0  0  0  0  0  0  0  0  0  0
    9.1546    2.0289   24.3972 C   0  0  0  0  0  0  0  0  0  0  0  0
    9.1745    2.7536   23.5823 H   0  0  0  0  0  0  0  0  0  0  0  0
   10.0229    1.3817   24.2464 H   0  0  0  0  0  0  0  0  0  0  0  0
    9.2481    2.5492   25.3494 H   0  0  0  0  0  0  0  0  0  0  0  0
    7.0225    1.3597   25.4485 N   0  0  0  0  0  0  0  0  0  0  0  0
    6.0964    0.4395   25.4580 C   0  0  0  0  0  0  0  0  0  0  0  0
    5.0191    0.3472   26.4496 C   0  0  0  0  0  0  0  0  0  0  0  0
    5.0727    1.0678   27.6639 C   0  0  0  0  0  0  0  0  0  0  0  0
    4.0682    0.9583   28.6105 C   0  0  0  0  0  0  0  0  0  0  0  0
    2.9450    0.1445   28.3686 C   0  0  0  0  0  0  0  0  0  0  0  0
    2.0289    0.1123   29.3651 O   0  0  0  0  0  0  0  0  0  0  0  0
    0.8751   -0.6956   29.2422 C   0  0  0  0  0  0  0  0  0  0  0  0
    0.3349   -0.5795   30.1839 H   0  0  0  0  0  0  0  0  0  0  0  0
    0.2364   -0.3654   28.4126 H   0  0  0  0  0  0  0  0  0  0  0  0
    1.1281   -1.7543   29.0975 H   0  0  0  0  0  0  0  0  0  0  0  0
    2.8425   -0.5620   27.1701 C   0  0  0  0  0  0  0  0  0  0  0  0
    3.8932   -0.4713   26.2670 C   0  0  0  0  0  0  0  0  0  0  0  0
    3.7918   -1.2491   25.1912 F   0  0  0  0  0  0  0  0  0  0  0  0
    1.9916   -1.1811   26.9101 H   0  0  0  0  0  0  0  0  0  0  0  0
    4.1202    1.4880   29.5553 H   0  0  0  0  0  0  0  0  0  0  0  0
    5.9312    1.7131   27.8434 H   0  0  0  0  0  0  0  0  0  0  0  0
    6.3080   -0.7373   24.2034 S   0  0  0  0  0  0  0  0  0  0  0  0
    6.6979    0.1658   20.0362 C   0  0  0  0  0  0  0  0  0  0  0  0
    5.4706    0.8114   20.2330 C   0  0  0  0  0  0  0  0  0  0  0  0
    4.8166    1.3769   19.1300 C   0  0  0  0  0  0  0  0  0  0  0  0
    5.4131    1.3125   17.8687 C   0  0  0  0  0  0  0  0  0  0  0  0
    6.5899    0.7040   17.6510 N   0  0  0  0  0  0  0  0  0  0  0  0
    7.1940    0.1388   18.7041 C   0  0  0  0  0  0  0  0  0  0  0  0
    8.1281   -0.3815   18.4918 H   0  0  0  0  0  0  0  0  0  0  0  0
    4.9264    1.7462   16.9979 H   0  0  0  0  0  0  0  0  0  0  0  0
    3.8518    1.8569   19.2390 H   0  0  0  0  0  0  0  0  0  0  0  0
    5.0243    0.8400   21.2250 H   0  0  0  0  0  0  0  0  0  0  0  0
    8.8729   -1.9658   20.8891 H   0  0  0  0  0  0  0  0  0  0  0  0
    7.4312   -2.1453   19.8746 H   0  0  0  0  0  0  0  0  0  0  0  0
    7.6986   -3.8857   21.6397 H   0  0  0  0  0  0  0  0  0  0  0  0
    7.3500   -2.6749   22.8593 H   0  0  0  0  0  0  0  0  0  0  0  0
    5.2395   -3.8445   22.2952 H   0  0  0  0  0  0  0  0  0  0  0  0
    5.1097   -2.2233   21.5935 H   0  0  0  0  0  0  0  0  0  0  0  0
    5.5113   -3.5944   20.5616 H   0  0  0  0  0  0  0  0  0  0  0  0
  1  2  1  0
  2  3  1  0
  3  4  1  0
  4  5  1  0
  5  6  2  0
  5  7  1  0
  7  8  2  0
  8  9  1  0
  9 10  1  0
  9 11  1  0
  9 12  1  0
  8 13  1  0
 13 14  2  0
 14 15  1  0
 15 16  2  0
 16 17  1  0
 17 18  2  0
 18 19  1  0
 19 20  1  0
 20 21  1  0
 20 22  1  0
 20 23  1  0
 18 24  1  0
 24 25  2  0
 25 26  1  0
 24 27  1  0
 17 28  1  0
 16 29  1  0
 14 30  1  0
  4 31  1  0
 31 32  2  0
 32 33  1  0
 33 34  2  0
 34 35  1  0
 35 36  2  0
 36 37  1  0
 34 38  1  0
 33 39  1  0
 32 40  1  0
  3 41  1  0
  3 42  1  0
  2 43  1  0
  2 44  1  0
  1 45  1  0
  1 46  1  0
  1 47  1  0
 30  7  1  0
 36 31  1  0
 25 15  1  0
M  END
>  <plip>  (1) 
-0.06666666666666667

>  <filename>  (1) 
[H][c]1[n][c]([H])[c]([N]([C](=[O])[c]2[s][c](-[c]3[c]([H])[c]([H])[c]([O][C]([H])([H])[H])[c]([H])[c]3[F])[n][c]2[C]([H])([H])[H])[C]([H])([H])[C]([H])([H])[C]([H])([H])[H])[c]([H])[c]1[H]

$$$$
