
     RDKit          3D

 30 32  0  0  0  0  0  0  0  0999 V2000
    4.9278    1.7734   17.0014 H   0  0  0  0  0  0  0  0  0  0  0  0
    5.4114    1.2863   17.8479 C   0  0  0  0  0  0  0  0  0  0  0  0
    6.5765    0.6678   17.6032 N   0  0  0  0  0  0  0  0  0  0  0  0
    7.1745    0.0528   18.6282 C   0  0  0  0  0  0  0  0  0  0  0  0
    8.1161   -0.4388   18.3917 H   0  0  0  0  0  0  0  0  0  0  0  0
    6.6524    0.0291   19.9247 C   0  0  0  0  0  0  0  0  0  0  0  0
    7.3870   -0.7163   20.9584 C   0  0  0  0  0  0  0  0  0  0  0  0
    8.0409   -1.7783   20.6924 N   0  0  0  0  0  0  0  0  0  0  0  0
    8.5520   -2.3124   21.9517 C   0  0  0  0  0  0  0  0  0  0  0  0
    8.1918   -3.3342   22.1103 H   0  0  0  0  0  0  0  0  0  0  0  0
    9.6439   -2.3635   21.9050 H   0  0  0  0  0  0  0  0  0  0  0  0
    8.0713   -1.3608   23.0664 C   0  0  0  0  0  0  0  0  0  0  0  0
    7.4090   -1.8551   23.7902 H   0  0  0  0  0  0  0  0  0  0  0  0
    8.9069   -0.9249   23.6306 H   0  0  0  0  0  0  0  0  0  0  0  0
    7.3569   -0.3391   22.3002 N   0  0  0  0  0  0  0  0  0  0  0  0
    7.0983    0.9490   22.8499 C   0  0  0  0  0  0  0  0  0  0  0  0
    6.3327    1.0791   24.0192 C   0  0  0  0  0  0  0  0  0  0  0  0
    5.9549    0.1789   24.4879 H   0  0  0  0  0  0  0  0  0  0  0  0
    6.0430    2.3286   24.5862 C   0  0  0  0  0  0  0  0  0  0  0  0
    5.4526    2.4330   25.4911 H   0  0  0  0  0  0  0  0  0  0  0  0
    6.5438    3.4666   23.9645 C   0  0  0  0  0  0  0  0  0  0  0  0
    6.2809    4.6729   24.4874 F   0  0  0  0  0  0  0  0  0  0  0  0
    7.3238    3.4004   22.8152 C   0  0  0  0  0  0  0  0  0  0  0  0
    7.7142    4.2923   22.3344 H   0  0  0  0  0  0  0  0  0  0  0  0
    7.5974    2.1433   22.2881 C   0  0  0  0  0  0  0  0  0  0  0  0
    8.3608    2.0828   21.1825 F   0  0  0  0  0  0  0  0  0  0  0  0
    5.4286    0.6615   20.1675 C   0  0  0  0  0  0  0  0  0  0  0  0
    4.9923    0.6468   21.1720 H   0  0  0  0  0  0  0  0  0  0  0  0
    4.8004    1.3078   19.1081 C   0  0  0  0  0  0  0  0  0  0  0  0
    3.8704    1.8444   19.2560 H   0  0  0  0  0  0  0  0  0  0  0  0
  1  2  1  0
  2  3  2  0
  3  4  1  0
  4  5  1  0
  4  6  2  0
  6  7  1  0
  7  8  2  0
  8  9  1  0
  9 10  1  0
  9 11  1  0
  9 12  1  0
 12 13  1  0
 12 14  1  0
 12 15  1  0
 15 16  1  0
 16 17  2  0
 17 18  1  0
 17 19  1  0
 19 20  1  0
 19 21  2  0
 21 22  1  0
 21 23  1  0
 23 24  1  0
 23 25  2  0
 25 26  1  0
  6 27  1  0
 27 28  1  0
 27 29  2  0
 29 30  1  0
 29  2  1  0
 15  7  1  0
 25 16  1  0
M  END
>  <plip>  (1) 
-0.0

>  <filename>  (1) 
[H][c]1[n][c]([H])[c]([C]2=[N][C]([H])([H])[C]([H])([H])[N]2[c]2[c]([H])[c]([H])[c]([F])[c]([H])[c]2[F])[c]([H])[c]1[H]

$$$$
