
     RDKit          3D

 43 44  0  0  0  0  0  0  0  0999 V2000
    3.3451    0.8138   31.5084 C   0  0  0  0  0  0  0  0  0  0  0  0
    4.4329    1.6294   31.1144 O   0  0  0  0  0  0  0  0  0  0  0  0
    4.7187    1.8089   29.7997 C   0  0  0  0  0  0  0  0  0  0  0  0
    4.0023    1.2525   28.7334 C   0  0  0  0  0  0  0  0  0  0  0  0
    4.3954    1.5163   27.4163 C   0  0  0  0  0  0  0  0  0  0  0  0
    5.5031    2.3343   27.1415 C   0  0  0  0  0  0  0  0  0  0  0  0
    5.9579    2.6934   25.7494 C   0  0  0  0  0  0  0  0  0  0  0  0
    6.6741    3.6564   25.5683 O   0  0  0  0  0  0  0  0  0  0  0  0
    5.4537    1.8309   24.5398 C   0  0  0  0  0  0  0  0  0  0  0  0
    6.2536    1.8204   23.3046 N   0  0  0  0  0  0  0  0  0  0  0  0
    7.5297    1.3100   23.3020 C   0  0  0  0  0  0  0  0  0  0  0  0
    7.9935    0.7280   24.2680 O   0  0  0  0  0  0  0  0  0  0  0  0
    8.3398    1.4545   22.0247 C   0  0  0  0  0  0  0  0  0  0  0  0
    8.6648    0.0692   21.4235 C   0  0  0  0  0  0  0  0  0  0  0  0
    7.4145   -0.7191   20.9913 C   0  0  0  0  0  0  0  0  0  0  0  0
    6.6404   -0.0177   19.8983 C   0  0  0  0  0  0  0  0  0  0  0  0
    5.4316    0.6461   20.1453 C   0  0  0  0  0  0  0  0  0  0  0  0
    4.7964    1.3173   19.0961 C   0  0  0  0  0  0  0  0  0  0  0  0
    5.3917    1.3028   17.8319 C   0  0  0  0  0  0  0  0  0  0  0  0
    6.5541    0.6852   17.5707 N   0  0  0  0  0  0  0  0  0  0  0  0
    7.1561    0.0595   18.5906 C   0  0  0  0  0  0  0  0  0  0  0  0
    8.1135   -0.4167   18.3591 H   0  0  0  0  0  0  0  0  0  0  0  0
    4.9204    1.8010   16.9864 H   0  0  0  0  0  0  0  0  0  0  0  0
    3.8642    1.8520   19.2391 H   0  0  0  0  0  0  0  0  0  0  0  0
    5.0117    0.6331   21.1501 H   0  0  0  0  0  0  0  0  0  0  0  0
    7.7200   -1.7154   20.6512 H   0  0  0  0  0  0  0  0  0  0  0  0
    6.7648   -0.8825   21.8607 H   0  0  0  0  0  0  0  0  0  0  0  0
    9.3324    0.1943   20.5614 H   0  0  0  0  0  0  0  0  0  0  0  0
    9.2187   -0.5117   22.1712 H   0  0  0  0  0  0  0  0  0  0  0  0
    7.8363    2.0984   21.2915 H   0  0  0  0  0  0  0  0  0  0  0  0
    9.2739    1.9560   22.3092 H   0  0  0  0  0  0  0  0  0  0  0  0
    6.0641    2.4873   22.5713 H   0  0  0  0  0  0  0  0  0  0  0  0
    4.4458    2.1841   24.2959 H   0  0  0  0  0  0  0  0  0  0  0  0
    5.3716    0.7966   24.8964 H   0  0  0  0  0  0  0  0  0  0  0  0
    6.2100    2.8914   28.2343 C   0  0  0  0  0  0  0  0  0  0  0  0
    5.8304    2.6332   29.5417 C   0  0  0  0  0  0  0  0  0  0  0  0
    6.3611    3.0526   30.3924 H   0  0  0  0  0  0  0  0  0  0  0  0
    7.0643    3.5357   28.0332 H   0  0  0  0  0  0  0  0  0  0  0  0
    3.8140    1.0768   26.6070 H   0  0  0  0  0  0  0  0  0  0  0  0
    3.1483    0.6147   28.9340 H   0  0  0  0  0  0  0  0  0  0  0  0
    3.4671   -0.2236   31.1629 H   0  0  0  0  0  0  0  0  0  0  0  0
    3.3523    0.8405   32.6014 H   0  0  0  0  0  0  0  0  0  0  0  0
    2.3877    1.2062   31.1347 H   0  0  0  0  0  0  0  0  0  0  0  0
  1  2  1  0
  2  3  1  0
  3  4  2  0
  4  5  1  0
  5  6  2  0
  6  7  1  0
  7  8  2  0
  7  9  1  0
  9 10  1  0
 10 11  1  0
 11 12  2  0
 11 13  1  0
 13 14  1  0
 14 15  1  0
 15 16  1  0
 16 17  2  0
 17 18  1  0
 18 19  2  0
 19 20  1  0
 20 21  2  0
 21 22  1  0
 19 23  1  0
 18 24  1  0
 17 25  1  0
 15 26  1  0
 15 27  1  0
 14 28  1  0
 14 29  1  0
 13 30  1  0
 13 31  1  0
 10 32  1  0
  9 33  1  0
  9 34  1  0
  6 35  1  0
 35 36  2  0
 36 37  1  0
 35 38  1  0
  5 39  1  0
  4 40  1  0
  1 41  1  0
  1 42  1  0
  1 43  1  0
 36  3  1  0
 21 16  1  0
M  END
>  <plip>  (1) 
-0.07142857142857142

>  <filename>  (1) 
[H][c]1[n][c]([H])[c]([C]([H])([H])[C]([H])([H])[C]([H])([H])[C](=[O])[N]([H])[C]([H])([H])[C](=[O])[c]2[c]([H])[c]([H])[c]([O][C]([H])([H])[H])[c]([H])[c]2[H])[c]([H])[c]1[H]

$$$$
