
     RDKit          3D

 32 34  0  0  0  0  0  0  0  0999 V2000
    7.9999    5.3536   22.2348 H   0  0  0  0  0  0  0  0  0  0  0  0
    7.7550    4.3034   22.3914 C   0  0  0  0  0  0  0  0  0  0  0  0
    6.5476    4.0401   22.8808 N   0  0  0  0  0  0  0  0  0  0  0  0
    6.2756    2.7487   22.9770 C   0  0  0  0  0  0  0  0  0  0  0  0
    5.0230    2.4597   23.4067 N   0  0  0  0  0  0  0  0  0  0  0  0
    5.1402    1.6214   23.9499 H   0  0  0  0  0  0  0  0  0  0  0  0
    4.7794    3.2899   23.9225 H   0  0  0  0  0  0  0  0  0  0  0  0
    7.0487    1.7117   22.7561 N   0  0  0  0  0  0  0  0  0  0  0  0
    8.2325    1.9979   22.1885 C   0  0  0  0  0  0  0  0  0  0  0  0
    9.1188    0.9384   21.6782 C   0  0  0  0  0  0  0  0  0  0  0  0
   10.5009    0.9729   21.5679 C   0  0  0  0  0  0  0  0  0  0  0  0
   11.1366    1.8253   21.7909 H   0  0  0  0  0  0  0  0  0  0  0  0
   10.9263   -0.2939   21.1299 C   0  0  0  0  0  0  0  0  0  0  0  0
   11.9420   -0.6266   20.9683 H   0  0  0  0  0  0  0  0  0  0  0  0
    9.8001   -1.0485   20.9285 C   0  0  0  0  0  0  0  0  0  0  0  0
    9.6991   -2.0514   20.5437 H   0  0  0  0  0  0  0  0  0  0  0  0
    8.6960   -0.3096   21.2428 N   0  0  0  0  0  0  0  0  0  0  0  0
    7.3246   -0.7538   20.9809 C   0  0  0  0  0  0  0  0  0  0  0  0
    6.7492   -0.6209   21.9002 H   0  0  0  0  0  0  0  0  0  0  0  0
    7.3631   -1.8327   20.7857 H   0  0  0  0  0  0  0  0  0  0  0  0
    6.6084   -0.0261   19.8510 C   0  0  0  0  0  0  0  0  0  0  0  0
    7.1415    0.0409   18.5516 C   0  0  0  0  0  0  0  0  0  0  0  0
    8.0890   -0.4425   18.3190 H   0  0  0  0  0  0  0  0  0  0  0  0
    6.5591    0.6768   17.5271 N   0  0  0  0  0  0  0  0  0  0  0  0
    5.3988    1.3018   17.7733 C   0  0  0  0  0  0  0  0  0  0  0  0
    4.9515    1.8315   16.9332 H   0  0  0  0  0  0  0  0  0  0  0  0
    4.7724    1.2953   19.0218 C   0  0  0  0  0  0  0  0  0  0  0  0
    3.8409    1.8310   19.1571 H   0  0  0  0  0  0  0  0  0  0  0  0
    5.3870    0.6216   20.0808 C   0  0  0  0  0  0  0  0  0  0  0  0
    4.9501    0.6322   21.0846 H   0  0  0  0  0  0  0  0  0  0  0  0
    8.6659    3.3148   22.0719 C   0  0  0  0  0  0  0  0  0  0  0  0
    9.6762    3.5223   21.7768 H   0  0  0  0  0  0  0  0  0  0  0  0
  1  2  1  0
  2  3  2  0
  3  4  1  0
  4  5  1  0
  5  6  1  0
  5  7  1  0
  4  8  2  0
  8  9  1  0
  9 10  1  0
 10 11  2  0
 11 12  1  0
 11 13  1  0
 13 14  1  0
 13 15  2  0
 15 16  1  0
 15 17  1  0
 17 18  1  0
 18 19  1  0
 18 20  1  0
 18 21  1  0
 21 22  2  0
 22 23  1  0
 22 24  1  0
 24 25  2  0
 25 26  1  0
 25 27  1  0
 27 28  1  0
 27 29  2  0
 29 30  1  0
  9 31  2  0
 31 32  1  0
 31  2  1  0
 17 10  1  0
 29 21  1  0
M  END
>  <plip>  (1) 
-0.17857142857142858

>  <filename>  (1) 
[H][c]1[n][c]([N]([H])[H])[n][c](-[c]2[c]([H])[c]([H])[c]([H])[n]2[C]([H])([H])[c]2[c]([H])[n][c]([H])[c]([H])[c]2[H])[c]1[H]

$$$$
