
     RDKit          3D

 22 23  0  0  0  0  0  0  0  0999 V2000
    4.9176    1.7896   16.9878 H   0  0  0  0  0  0  0  0  0  0  0  0
    5.3967    1.2970   17.8302 C   0  0  0  0  0  0  0  0  0  0  0  0
    6.5603    0.6810   17.5673 N   0  0  0  0  0  0  0  0  0  0  0  0
    7.1554    0.0464   18.5838 C   0  0  0  0  0  0  0  0  0  0  0  0
    8.1114   -0.4271   18.3629 H   0  0  0  0  0  0  0  0  0  0  0  0
    6.6292   -0.0360   19.8854 C   0  0  0  0  0  0  0  0  0  0  0  0
    7.5523   -0.8356   21.1937 S   0  0  0  0  0  0  0  0  0  0  0  0
    8.4681    0.6002   21.7164 C   0  0  0  0  0  0  0  0  0  0  0  0
    7.9423    1.4871   22.6600 C   0  0  0  0  0  0  0  0  0  0  0  0
    6.9758    1.2793   23.1037 H   0  0  0  0  0  0  0  0  0  0  0  0
    8.6483    2.6302   23.0162 C   0  0  0  0  0  0  0  0  0  0  0  0
    8.2585    3.3148   23.7595 H   0  0  0  0  0  0  0  0  0  0  0  0
    9.8826    2.9088   22.4250 C   0  0  0  0  0  0  0  0  0  0  0  0
   10.7398    4.3259   22.9211 Cl  0  0  0  0  0  0  0  0  0  0  0  0
   10.3973    2.0372   21.4531 C   0  0  0  0  0  0  0  0  0  0  0  0
   11.9077    2.3490   20.6931 Cl  0  0  0  0  0  0  0  0  0  0  0  0
    9.6878    0.8893   21.1037 C   0  0  0  0  0  0  0  0  0  0  0  0
   10.0726    0.2032   20.3616 H   0  0  0  0  0  0  0  0  0  0  0  0
    5.4240    0.6329   20.1512 C   0  0  0  0  0  0  0  0  0  0  0  0
    5.0031    0.6320   21.1597 H   0  0  0  0  0  0  0  0  0  0  0  0
    4.8007    1.3103   19.0973 C   0  0  0  0  0  0  0  0  0  0  0  0
    3.8717    1.8475   19.2548 H   0  0  0  0  0  0  0  0  0  0  0  0
  1  2  1  0
  2  3  2  0
  3  4  1  0
  4  5  1  0
  4  6  2  0
  6  7  1  0
  7  8  1  0
  8  9  2  0
  9 10  1  0
  9 11  1  0
 11 12  1  0
 11 13  2  0
 13 14  1  0
 13 15  1  0
 15 16  1  0
 15 17  2  0
 17 18  1  0
  6 19  1  0
 19 20  1  0
 19 21  2  0
 21 22  1  0
 21  2  1  0
 17  8  1  0
M  END
>  <plip>  (1) 
-0.0

>  <filename>  (1) 
[H][c]1[n][c]([H])[c]([S][c]2[c]([H])[c]([H])[c]([Cl])[c]([Cl])[c]2[H])[c]([H])[c]1[H]

$$$$
