
     RDKit          3D

 33 35  0  0  0  0  0  0  0  0999 V2000
    8.5742   -3.2931   22.0800 H   0  0  0  0  0  0  0  0  0  0  0  0
    8.2084   -2.2874   21.9102 C   0  0  0  0  0  0  0  0  0  0  0  0
    8.2006   -1.3245   22.8584 N   0  0  0  0  0  0  0  0  0  0  0  0
    7.6629   -0.2863   22.2444 C   0  0  0  0  0  0  0  0  0  0  0  0
    7.4714    1.1013   22.8108 C   0  0  0  0  0  0  0  0  0  0  0  0
    7.3992    1.3215   23.9985 O   0  0  0  0  0  0  0  0  0  0  0  0
    7.4120    2.0516   21.8608 O   0  0  0  0  0  0  0  0  0  0  0  0
    7.0972    3.3958   22.3380 C   0  0  0  0  0  0  0  0  0  0  0  0
    7.7314    3.6173   23.2027 H   0  0  0  0  0  0  0  0  0  0  0  0
    7.3955    4.0271   21.4970 H   0  0  0  0  0  0  0  0  0  0  0  0
    5.6260    3.5474   22.6756 C   0  0  0  0  0  0  0  0  0  0  0  0
    4.7092    3.7345   21.6327 C   0  0  0  0  0  0  0  0  0  0  0  0
    5.0941    3.7250   20.6170 H   0  0  0  0  0  0  0  0  0  0  0  0
    3.3461    3.9091   21.8975 C   0  0  0  0  0  0  0  0  0  0  0  0
    2.6599    4.1051   21.0760 H   0  0  0  0  0  0  0  0  0  0  0  0
    2.8705    3.8310   23.2131 C   0  0  0  0  0  0  0  0  0  0  0  0
    1.8034    3.9232   23.4175 H   0  0  0  0  0  0  0  0  0  0  0  0
    3.7732    3.6113   24.2612 C   0  0  0  0  0  0  0  0  0  0  0  0
    3.4104    3.5245   25.2843 H   0  0  0  0  0  0  0  0  0  0  0  0
    5.1441    3.4831   23.9955 C   0  0  0  0  0  0  0  0  0  0  0  0
    5.8417    3.3092   24.8137 H   0  0  0  0  0  0  0  0  0  0  0  0
    7.3522   -0.6438   20.9522 N   0  0  0  0  0  0  0  0  0  0  0  0
    6.6465    0.0314   19.9194 C   0  0  0  0  0  0  0  0  0  0  0  0
    7.1654    0.0351   18.6104 C   0  0  0  0  0  0  0  0  0  0  0  0
    8.1071   -0.4621   18.3811 H   0  0  0  0  0  0  0  0  0  0  0  0
    6.5667    0.6579   17.5927 N   0  0  0  0  0  0  0  0  0  0  0  0
    5.4042    1.2881   17.8404 C   0  0  0  0  0  0  0  0  0  0  0  0
    4.9464    1.7970   16.9967 H   0  0  0  0  0  0  0  0  0  0  0  0
    4.7989    1.3042   19.0992 C   0  0  0  0  0  0  0  0  0  0  0  0
    3.8690    1.8454   19.2416 H   0  0  0  0  0  0  0  0  0  0  0  0
    5.4234    0.6559   20.1645 C   0  0  0  0  0  0  0  0  0  0  0  0
    4.9822    0.6526   21.1601 H   0  0  0  0  0  0  0  0  0  0  0  0
    7.7169   -1.9196   20.7434 N   0  0  0  0  0  0  0  0  0  0  0  0
  1  2  1  0
  2  3  1  0
  3  4  2  0
  4  5  1  0
  5  6  2  0
  5  7  1  0
  7  8  1  0
  8  9  1  0
  8 10  1  0
  8 11  1  0
 11 12  2  0
 12 13  1  0
 12 14  1  0
 14 15  1  0
 14 16  2  0
 16 17  1  0
 16 18  1  0
 18 19  1  0
 18 20  2  0
 20 21  1  0
  4 22  1  0
 22 23  1  0
 23 24  2  0
 24 25  1  0
 24 26  1  0
 26 27  2  0
 27 28  1  0
 27 29  1  0
 29 30  1  0
 29 31  2  0
 31 32  1  0
 22 33  1  0
 33  2  2  0
 20 11  1  0
 31 23  1  0
M  END
>  <plip>  (1) 
-0.0

>  <filename>  (1) 
[H][c]1[n][c]([C](=[O])[O][C]([H])([H])[c]2[c]([H])[c]([H])[c]([H])[c]([H])[c]2[H])[n](-[c]2[c]([H])[n][c]([H])[c]([H])[c]2[H])[n]1

$$$$
