
     RDKit          3D

 37 39  0  0  0  0  0  0  0  0999 V2000
    8.8954   -1.3763   25.7686 C   0  0  0  0  0  0  0  0  0  0  0  0
    9.6761   -0.5506   24.7624 C   0  0  0  0  0  0  0  0  0  0  0  0
   10.2480   -1.5528   23.3416 S   0  0  0  0  0  0  0  0  0  0  0  0
    8.7851   -1.4271   22.3658 C   0  0  0  0  0  0  0  0  0  0  0  0
    7.6852   -2.1005   22.5773 N   0  0  0  0  0  0  0  0  0  0  0  0
    6.7558   -1.6575   21.6742 N   0  0  0  0  0  0  0  0  0  0  0  0
    7.3206   -0.7335   20.9425 C   0  0  0  0  0  0  0  0  0  0  0  0
    6.6487    0.0278   19.8898 C   0  0  0  0  0  0  0  0  0  0  0  0
    5.4256    0.6613   20.1531 C   0  0  0  0  0  0  0  0  0  0  0  0
    4.8034    1.3210   19.0988 C   0  0  0  0  0  0  0  0  0  0  0  0
    5.4044    1.2967   17.8335 C   0  0  0  0  0  0  0  0  0  0  0  0
    6.5644    0.6741   17.5677 N   0  0  0  0  0  0  0  0  0  0  0  0
    7.1703    0.0677   18.5913 C   0  0  0  0  0  0  0  0  0  0  0  0
    8.1122   -0.4346   18.3736 H   0  0  0  0  0  0  0  0  0  0  0  0
    4.9193    1.7809   16.9936 H   0  0  0  0  0  0  0  0  0  0  0  0
    3.8678    1.8482   19.2546 H   0  0  0  0  0  0  0  0  0  0  0  0
    4.9973    0.6262   21.1638 H   0  0  0  0  0  0  0  0  0  0  0  0
    8.6309   -0.5614   21.3070 N   0  0  0  0  0  0  0  0  0  0  0  0
    9.5677    0.4991   20.9367 C   0  0  0  0  0  0  0  0  0  0  0  0
    9.6162    1.6596   21.9122 C   0  0  0  0  0  0  0  0  0  0  0  0
   10.7765    1.9356   22.6560 C   0  0  0  0  0  0  0  0  0  0  0  0
   10.7994    2.9857   23.5800 C   0  0  0  0  0  0  0  0  0  0  0  0
    9.6616    3.7832   23.7587 C   0  0  0  0  0  0  0  0  0  0  0  0
    8.5072    3.5261   23.0105 C   0  0  0  0  0  0  0  0  0  0  0  0
    8.4866    2.4744   22.0892 C   0  0  0  0  0  0  0  0  0  0  0  0
    7.5864    2.2797   21.5037 H   0  0  0  0  0  0  0  0  0  0  0  0
    7.6215    4.1440   23.1396 H   0  0  0  0  0  0  0  0  0  0  0  0
    9.6764    4.6012   24.4741 H   0  0  0  0  0  0  0  0  0  0  0  0
   11.7027    3.1793   24.1541 H   0  0  0  0  0  0  0  0  0  0  0  0
   11.6569    1.3050   22.5246 H   0  0  0  0  0  0  0  0  0  0  0  0
   10.5564    0.0459   20.8396 H   0  0  0  0  0  0  0  0  0  0  0  0
    9.2915    0.8672   19.9508 H   0  0  0  0  0  0  0  0  0  0  0  0
   10.5768   -0.1081   25.1956 H   0  0  0  0  0  0  0  0  0  0  0  0
    9.0684    0.2659   24.3569 H   0  0  0  0  0  0  0  0  0  0  0  0
    9.5051   -2.2009   26.1469 H   0  0  0  0  0  0  0  0  0  0  0  0
    8.5935   -0.7511   26.6167 H   0  0  0  0  0  0  0  0  0  0  0  0
    8.0055   -1.8110   25.3007 H   0  0  0  0  0  0  0  0  0  0  0  0
  1  2  1  0
  2  3  1  0
  3  4  1  0
  4  5  2  0
  5  6  1  0
  6  7  2  0
  7  8  1  0
  8  9  2  0
  9 10  1  0
 10 11  2  0
 11 12  1  0
 12 13  2  0
 13 14  1  0
 11 15  1  0
 10 16  1  0
  9 17  1  0
  7 18  1  0
 18 19  1  0
 19 20  1  0
 20 21  2  0
 21 22  1  0
 22 23  2  0
 23 24  1  0
 24 25  2  0
 25 26  1  0
 24 27  1  0
 23 28  1  0
 22 29  1  0
 21 30  1  0
 19 31  1  0
 19 32  1  0
  2 33  1  0
  2 34  1  0
  1 35  1  0
  1 36  1  0
  1 37  1  0
 18  4  1  0
 25 20  1  0
 13  8  1  0
M  END
>  <plip>  (1) 
-0.03571428571428571

>  <filename>  (1) 
[H][c]1[n][c]([H])[c](-[c]2[n][n][c]([S][C]([H])([H])[C]([H])([H])[H])[n]2[C]([H])([H])[c]2[c]([H])[c]([H])[c]([H])[c]([H])[c]2[H])[c]([H])[c]1[H]

$$$$
