
     RDKit          3D

 31 32  0  0  0  0  0  0  0  0999 V2000
    5.7699   -1.9829   25.8751 H   0  0  0  0  0  0  0  0  0  0  0  0
    6.7841   -1.6166   25.7536 C   0  0  0  0  0  0  0  0  0  0  0  0
    7.1170   -0.9496   24.5981 N   0  0  0  0  0  0  0  0  0  0  0  0
    8.3377   -0.5718   24.6479 C   0  0  0  0  0  0  0  0  0  0  0  0
    8.9778    0.0384   23.6057 N   0  0  0  0  0  0  0  0  0  0  0  0
    9.6376    0.7787   23.7831 H   0  0  0  0  0  0  0  0  0  0  0  0
    8.0051    0.8210   22.4999 S   0  0  0  0  0  0  0  0  0  0  0  0
    6.7390    1.2360   23.0804 O   0  0  0  0  0  0  0  0  0  0  0  0
    8.9774    1.8380   22.1130 O   0  0  0  0  0  0  0  0  0  0  0  0
    7.7911   -0.4290   21.0727 C   0  0  0  0  0  0  0  0  0  0  0  0
    7.0105    0.2315   19.8940 C   0  0  0  0  0  0  0  0  0  0  0  0
    7.3475    0.0876   18.5255 C   0  0  0  0  0  0  0  0  0  0  0  0
    8.2708   -0.4105   18.2371 H   0  0  0  0  0  0  0  0  0  0  0  0
    6.6099    0.5455   17.5042 N   0  0  0  0  0  0  0  0  0  0  0  0
    5.4825    1.2013   17.8029 C   0  0  0  0  0  0  0  0  0  0  0  0
    4.8984    1.5580   16.9557 H   0  0  0  0  0  0  0  0  0  0  0  0
    5.0646    1.4377   19.1146 C   0  0  0  0  0  0  0  0  0  0  0  0
    4.1637    2.0093   19.2985 H   0  0  0  0  0  0  0  0  0  0  0  0
    5.8311    0.9414   20.1718 C   0  0  0  0  0  0  0  0  0  0  0  0
    5.5267    1.1069   21.2042 H   0  0  0  0  0  0  0  0  0  0  0  0
    6.9879   -1.6587   21.5559 C   0  0  0  0  0  0  0  0  0  0  0  0
    6.7833   -2.3223   20.7055 H   0  0  0  0  0  0  0  0  0  0  0  0
    7.5413   -2.2400   22.2977 H   0  0  0  0  0  0  0  0  0  0  0  0
    6.0318   -1.3630   21.9963 H   0  0  0  0  0  0  0  0  0  0  0  0
    9.2020   -0.8641   20.6372 C   0  0  0  0  0  0  0  0  0  0  0  0
    9.7027   -1.4302   21.4300 H   0  0  0  0  0  0  0  0  0  0  0  0
    9.8228   -0.0065   20.3603 H   0  0  0  0  0  0  0  0  0  0  0  0
    9.1245   -1.5184   19.7653 H   0  0  0  0  0  0  0  0  0  0  0  0
    9.2304   -1.0432   26.0756 S   0  0  0  0  0  0  0  0  0  0  0  0
    7.7729   -1.7876   26.6626 C   0  0  0  0  0  0  0  0  0  0  0  0
    7.7131   -2.3151   27.5979 H   0  0  0  0  0  0  0  0  0  0  0  0
  1  2  1  0
  2  3  1  0
  3  4  2  0
  4  5  1  0
  5  6  1  0
  5  7  1  0
  7  8  2  0
  7  9  2  0
  7 10  1  0
 10 11  1  0
 11 12  2  0
 12 13  1  0
 12 14  1  0
 14 15  2  0
 15 16  1  0
 15 17  1  0
 17 18  1  0
 17 19  2  0
 19 20  1  0
 10 21  1  0
 21 22  1  0
 21 23  1  0
 21 24  1  0
 10 25  1  0
 25 26  1  0
 25 27  1  0
 25 28  1  0
  4 29  1  0
 29 30  1  0
 30 31  1  0
 30  2  2  0
 19 11  1  0
M  END
>  <plip>  (1) 
-0.10714285714285714

>  <filename>  (1) 
[H][c]1[n][c]([N]([H])[S](=[O])(=[O])[C]([c]2[c]([H])[n][c]([H])[c]([H])[c]2[H])([C]([H])([H])[H])[C]([H])([H])[H])[s][c]1[H]

$$$$
