
     RDKit          3D

 32 34  0  0  0  0  0  0  0  0999 V2000
    5.0712    1.7721   16.9385 H   0  0  0  0  0  0  0  0  0  0  0  0
    5.4779    1.2905   17.8243 C   0  0  0  0  0  0  0  0  0  0  0  0
    6.6294    0.6229   17.6482 N   0  0  0  0  0  0  0  0  0  0  0  0
    7.1531    0.0259   18.7197 C   0  0  0  0  0  0  0  0  0  0  0  0
    8.0754   -0.5328   18.5630 H   0  0  0  0  0  0  0  0  0  0  0  0
    6.6045    0.0691   20.0170 C   0  0  0  0  0  0  0  0  0  0  0  0
    7.2933   -0.6029   21.1201 C   0  0  0  0  0  0  0  0  0  0  0  0
    7.4262   -0.2287   22.4115 C   0  0  0  0  0  0  0  0  0  0  0  0
    7.1978    1.0598   23.1725 C   0  0  0  0  0  0  0  0  0  0  0  0
    6.5895    0.8345   24.0565 H   0  0  0  0  0  0  0  0  0  0  0  0
    6.6494    1.8040   22.5805 H   0  0  0  0  0  0  0  0  0  0  0  0
    8.5162    1.6605   23.6484 C   0  0  0  0  0  0  0  0  0  0  0  0
    8.9352    1.5050   24.9791 C   0  0  0  0  0  0  0  0  0  0  0  0
    8.2624    1.0556   25.7058 H   0  0  0  0  0  0  0  0  0  0  0  0
   10.2205    1.8709   25.3789 C   0  0  0  0  0  0  0  0  0  0  0  0
   10.5347    1.6883   26.3972 H   0  0  0  0  0  0  0  0  0  0  0  0
   11.1067    2.4472   24.4687 C   0  0  0  0  0  0  0  0  0  0  0  0
   12.1034    2.7361   24.7862 H   0  0  0  0  0  0  0  0  0  0  0  0
   10.7013    2.6637   23.1516 C   0  0  0  0  0  0  0  0  0  0  0  0
   11.3651    3.1265   22.4304 H   0  0  0  0  0  0  0  0  0  0  0  0
    9.4223    2.2574   22.7526 C   0  0  0  0  0  0  0  0  0  0  0  0
    8.9883    2.4680   21.0748 Cl  0  0  0  0  0  0  0  0  0  0  0  0
    8.0691   -1.3513   23.1357 C   0  0  0  0  0  0  0  0  0  0  0  0
    8.3076   -1.4543   24.3091 O   0  0  0  0  0  0  0  0  0  0  0  0
    8.3694   -2.3362   22.2382 O   0  0  0  0  0  0  0  0  0  0  0  0
    7.9866   -1.9320   20.9356 C   0  0  0  0  0  0  0  0  0  0  0  0
    7.3250   -2.6931   20.4973 H   0  0  0  0  0  0  0  0  0  0  0  0
    8.8866   -1.8557   20.3061 H   0  0  0  0  0  0  0  0  0  0  0  0
    5.3810    0.7480   20.1700 C   0  0  0  0  0  0  0  0  0  0  0  0
    4.8787    0.7776   21.1405 H   0  0  0  0  0  0  0  0  0  0  0  0
    4.8112    1.3632   19.0542 C   0  0  0  0  0  0  0  0  0  0  0  0
    3.8729    1.9051   19.1190 H   0  0  0  0  0  0  0  0  0  0  0  0
  1  2  1  0
  2  3  2  0
  3  4  1  0
  4  5  1  0
  4  6  2  0
  6  7  1  0
  7  8  2  0
  8  9  1  0
  9 10  1  0
  9 11  1  0
  9 12  1  0
 12 13  2  0
 13 14  1  0
 13 15  1  0
 15 16  1  0
 15 17  2  0
 17 18  1  0
 17 19  1  0
 19 20  1  0
 19 21  2  0
 21 22  1  0
  8 23  1  0
 23 24  2  0
 23 25  1  0
 25 26  1  0
 26 27  1  0
 26 28  1  0
  6 29  1  0
 29 30  1  0
 29 31  2  0
 31 32  1  0
 31  2  1  0
 26  7  1  0
 21 12  1  0
M  END
>  <plip>  (1) 
-0.07142857142857142

>  <filename>  (1) 
[H][c]1[n][c]([H])[c]([C]2=[C]([C]([H])([H])[c]3[c]([H])[c]([H])[c]([H])[c]([H])[c]3[Cl])[C](=[O])[O][C]2([H])[H])[c]([H])[c]1[H]

$$$$
