
     RDKit          3D

 27 28  0  0  0  0  0  0  0  0999 V2000
    8.9390    0.2553   21.3920 H   0  0  0  0  0  0  0  0  0  0  0  0
    8.7071   -0.5838   20.9576 O   0  0  0  0  0  0  0  0  0  0  0  0
    7.3202   -0.6520   20.9963 N   0  0  0  0  0  0  0  0  0  0  0  0
    6.6369   -0.0138   19.9409 C   0  0  0  0  0  0  0  0  0  0  0  0
    7.1989    0.0455   18.6450 C   0  0  0  0  0  0  0  0  0  0  0  0
    8.1547   -0.4334   18.4531 H   0  0  0  0  0  0  0  0  0  0  0  0
    6.6096    0.6588   17.6101 N   0  0  0  0  0  0  0  0  0  0  0  0
    5.4383    1.2795   17.8337 C   0  0  0  0  0  0  0  0  0  0  0  0
    4.9906    1.7861   16.9804 H   0  0  0  0  0  0  0  0  0  0  0  0
    4.8085    1.2974   19.0826 C   0  0  0  0  0  0  0  0  0  0  0  0
    3.8775    1.8407   19.2051 H   0  0  0  0  0  0  0  0  0  0  0  0
    5.4062    0.6331   20.1593 C   0  0  0  0  0  0  0  0  0  0  0  0
    4.9654    0.6381   21.1571 H   0  0  0  0  0  0  0  0  0  0  0  0
    6.7760   -1.5679   21.9149 C   0  0  0  0  0  0  0  0  0  0  0  0
    7.2646   -1.6361   23.2457 C   0  0  0  0  0  0  0  0  0  0  0  0
    8.1234   -1.0374   23.5468 H   0  0  0  0  0  0  0  0  0  0  0  0
    6.6956   -2.3822   24.1925 N   0  0  0  0  0  0  0  0  0  0  0  0
    5.6398   -3.1430   23.8524 C   0  0  0  0  0  0  0  0  0  0  0  0
    5.1635   -3.6961   24.6548 H   0  0  0  0  0  0  0  0  0  0  0  0
    5.1567   -3.2463   22.5320 C   0  0  0  0  0  0  0  0  0  0  0  0
    4.1660   -4.0848   22.1300 O   0  0  0  0  0  0  0  0  0  0  0  0
    3.2996   -4.6340   23.1129 C   0  0  0  0  0  0  0  0  0  0  0  0
    2.4015   -4.9649   22.5907 H   0  0  0  0  0  0  0  0  0  0  0  0
    3.0284   -3.8867   23.8716 H   0  0  0  0  0  0  0  0  0  0  0  0
    3.7647   -5.4872   23.6151 H   0  0  0  0  0  0  0  0  0  0  0  0
    5.7287   -2.4317   21.5479 C   0  0  0  0  0  0  0  0  0  0  0  0
    5.3612   -2.5134   20.5290 H   0  0  0  0  0  0  0  0  0  0  0  0
  1  2  1  0
  2  3  1  0
  3  4  1  0
  4  5  2  0
  5  6  1  0
  5  7  1  0
  7  8  2  0
  8  9  1  0
  8 10  1  0
 10 11  1  0
 10 12  2  0
 12 13  1  0
  3 14  1  0
 14 15  2  0
 15 16  1  0
 15 17  1  0
 17 18  2  0
 18 19  1  0
 18 20  1  0
 20 21  1  0
 21 22  1  0
 22 23  1  0
 22 24  1  0
 22 25  1  0
 20 26  2  0
 26 27  1  0
 12  4  1  0
 26 14  1  0
M  END
>  <plip>  (1) 
-0.06896551724137931

>  <filename>  (1) 
[H][O][N]([c]1[c]([H])[n][c]([H])[c]([H])[c]1[H])[c]1[c]([H])[n][c]([H])[c]([O][C]([H])([H])[H])[c]1[H]

$$$$
