
     RDKit          3D

 33 35  0  0  0  0  0  0  0  0999 V2000
    5.0193    1.8332   16.8925 H   0  0  0  0  0  0  0  0  0  0  0  0
    5.4219    1.3178   17.7608 C   0  0  0  0  0  0  0  0  0  0  0  0
    6.5693    0.6549   17.5625 N   0  0  0  0  0  0  0  0  0  0  0  0
    7.1044    0.0283   18.6127 C   0  0  0  0  0  0  0  0  0  0  0  0
    8.0383   -0.5008   18.4347 H   0  0  0  0  0  0  0  0  0  0  0  0
    6.5211    0.0236   19.8903 C   0  0  0  0  0  0  0  0  0  0  0  0
    7.2614   -0.6821   20.9306 C   0  0  0  0  0  0  0  0  0  0  0  0
    8.4332   -1.2197   20.7993 N   0  0  0  0  0  0  0  0  0  0  0  0
    8.7571   -1.6812   22.0688 C   0  0  0  0  0  0  0  0  0  0  0  0
   10.0885   -2.2889   22.4215 C   0  0  0  0  0  0  0  0  0  0  0  0
    9.9252   -3.1056   23.1369 H   0  0  0  0  0  0  0  0  0  0  0  0
   10.4733   -2.7439   21.5056 H   0  0  0  0  0  0  0  0  0  0  0  0
   11.1256   -1.3980   22.9616 N   0  0  0  0  0  0  0  0  0  0  0  0
   11.8055   -0.6017   21.9259 C   0  0  0  0  0  0  0  0  0  0  0  0
   11.1208    0.0876   21.4030 H   0  0  0  0  0  0  0  0  0  0  0  0
   12.2233   -1.2934   21.1825 H   0  0  0  0  0  0  0  0  0  0  0  0
   12.9337    0.2151   22.5492 C   0  0  0  0  0  0  0  0  0  0  0  0
   13.4225    0.8502   21.8063 H   0  0  0  0  0  0  0  0  0  0  0  0
   13.6958   -0.4589   22.9755 H   0  0  0  0  0  0  0  0  0  0  0  0
   12.4137    1.1039   23.5305 O   0  0  0  0  0  0  0  0  0  0  0  0
   11.7810    0.3917   24.5830 C   0  0  0  0  0  0  0  0  0  0  0  0
   11.3330    1.1521   25.2321 H   0  0  0  0  0  0  0  0  0  0  0  0
   12.5336   -0.1581   25.1680 H   0  0  0  0  0  0  0  0  0  0  0  0
   10.6864   -0.5810   24.1064 C   0  0  0  0  0  0  0  0  0  0  0  0
   10.4588   -1.2484   24.9487 H   0  0  0  0  0  0  0  0  0  0  0  0
    9.7697   -0.0106   23.8844 H   0  0  0  0  0  0  0  0  0  0  0  0
    7.7235   -1.4161   22.9000 C   0  0  0  0  0  0  0  0  0  0  0  0
    7.5357   -1.5769   23.9506 H   0  0  0  0  0  0  0  0  0  0  0  0
    6.7502   -0.7844   22.1754 O   0  0  0  0  0  0  0  0  0  0  0  0
    5.3065    0.7037   20.0850 C   0  0  0  0  0  0  0  0  0  0  0  0
    4.8189    0.7142   21.0612 H   0  0  0  0  0  0  0  0  0  0  0  0
    4.7555    1.3677   18.9910 C   0  0  0  0  0  0  0  0  0  0  0  0
    3.8346    1.9333   19.0789 H   0  0  0  0  0  0  0  0  0  0  0  0
  1  2  1  0
  2  3  2  0
  3  4  1  0
  4  5  1  0
  4  6  2  0
  6  7  1  0
  7  8  2  0
  8  9  1  0
  9 10  1  0
 10 11  1  0
 10 12  1  0
 10 13  1  0
 13 14  1  0
 14 15  1  0
 14 16  1  0
 14 17  1  0
 17 18  1  0
 17 19  1  0
 17 20  1  0
 20 21  1  0
 21 22  1  0
 21 23  1  0
 21 24  1  0
 24 25  1  0
 24 26  1  0
  9 27  2  0
 27 28  1  0
 27 29  1  0
  6 30  1  0
 30 31  1  0
 30 32  2  0
 32 33  1  0
 32  2  1  0
 29  7  1  0
 24 13  1  0
M  END
>  <plip>  (1) 
-0.03571428571428571

>  <filename>  (1) 
[H][c]1[n][c]([H])[c](-[c]2[n][c]([C]([H])([H])[N]3[C]([H])([H])[C]([H])([H])[O][C]([H])([H])[C]3([H])[H])[c]([H])[o]2)[c]([H])[c]1[H]

$$$$
