
     RDKit          3D

 34 36  0  0  0  0  0  0  0  0999 V2000
    4.9163    1.7866   16.9883 H   0  0  0  0  0  0  0  0  0  0  0  0
    5.3963    1.2942   17.8302 C   0  0  0  0  0  0  0  0  0  0  0  0
    6.5579    0.6789   17.5635 N   0  0  0  0  0  0  0  0  0  0  0  0
    7.1737    0.0802   18.5927 C   0  0  0  0  0  0  0  0  0  0  0  0
    8.1143   -0.4203   18.3642 H   0  0  0  0  0  0  0  0  0  0  0  0
    6.6859    0.0589   19.9071 C   0  0  0  0  0  0  0  0  0  0  0  0
    7.3837   -0.7276   20.9892 C   0  0  0  0  0  0  0  0  0  0  0  0
    8.4696   -0.7589   20.7961 H   0  0  0  0  0  0  0  0  0  0  0  0
    7.2464   -0.2140   21.9573 H   0  0  0  0  0  0  0  0  0  0  0  0
    6.8471   -2.1374   21.0762 C   0  0  0  0  0  0  0  0  0  0  0  0
    5.9893   -2.8237   20.2403 C   0  0  0  0  0  0  0  0  0  0  0  0
    5.5707   -2.3953   19.3321 H   0  0  0  0  0  0  0  0  0  0  0  0
    5.8002   -4.1179   20.7875 C   0  0  0  0  0  0  0  0  0  0  0  0
    5.2083   -4.9215   20.3644 H   0  0  0  0  0  0  0  0  0  0  0  0
    6.5408   -4.1813   21.9416 C   0  0  0  0  0  0  0  0  0  0  0  0
    6.6522   -4.9751   22.6713 H   0  0  0  0  0  0  0  0  0  0  0  0
    7.1999   -2.9853   22.1095 N   0  0  0  0  0  0  0  0  0  0  0  0
    8.0401   -2.6635   23.2680 C   0  0  1  0  0  0  0  0  0  0  0  0
    8.5592   -1.7250   23.0618 H   0  0  0  0  0  0  0  0  0  0  0  0
    7.2223   -2.5167   24.5871 C   0  0  0  0  0  0  0  0  0  0  0  0
    6.2055   -2.8985   24.4364 H   0  0  0  0  0  0  0  0  0  0  0  0
    7.1177   -1.4709   24.8994 H   0  0  0  0  0  0  0  0  0  0  0  0
    7.9096   -3.2877   25.6276 N   0  0  0  0  0  0  0  0  0  0  0  0
    8.5632   -2.6862   26.1177 H   0  0  0  0  0  0  0  0  0  0  0  0
    8.6554   -4.3436   24.9413 C   0  0  0  0  0  0  0  0  0  0  0  0
    9.4981   -4.6801   25.5544 H   0  0  0  0  0  0  0  0  0  0  0  0
    8.0087   -5.2210   24.7932 H   0  0  0  0  0  0  0  0  0  0  0  0
    9.0949   -3.7545   23.5878 C   0  0  0  0  0  0  0  0  0  0  0  0
   10.0933   -3.3135   23.6719 H   0  0  0  0  0  0  0  0  0  0  0  0
    9.1418   -4.5095   22.8002 H   0  0  0  0  0  0  0  0  0  0  0  0
    5.4483    0.6670   20.1528 C   0  0  0  0  0  0  0  0  0  0  0  0
    5.0129    0.6264   21.1565 H   0  0  0  0  0  0  0  0  0  0  0  0
    4.8008    1.3118   19.0968 C   0  0  0  0  0  0  0  0  0  0  0  0
    3.8697    1.8424   19.2507 H   0  0  0  0  0  0  0  0  0  0  0  0
  1  2  1  0
  2  3  2  0
  3  4  1  0
  4  5  1  0
  4  6  2  0
  6  7  1  0
  7  8  1  0
  7  9  1  0
  7 10  1  0
 10 11  2  0
 11 12  1  0
 11 13  1  0
 13 14  1  0
 13 15  2  0
 15 16  1  0
 15 17  1  0
 17 18  1  0
 18 19  1  6
 18 20  1  0
 20 21  1  0
 20 22  1  0
 20 23  1  0
 23 24  1  0
 23 25  1  0
 25 26  1  0
 25 27  1  0
 25 28  1  0
 28 29  1  0
 28 30  1  0
  6 31  1  0
 31 32  1  0
 31 33  2  0
 33 34  1  0
 33  2  1  0
 17 10  1  0
 28 18  1  0
M  END
>  <plip>  (1) 
-0.03571428571428571

>  <filename>  (1) 
[H][c]1[n][c]([H])[c]([C]([H])([H])[c]2[c]([H])[c]([H])[c]([H])[n]2[C@@]2([H])[C]([H])([H])[N]([H])[C]([H])([H])[C]2([H])[H])[c]([H])[c]1[H]

$$$$
