
     RDKit          3D

 24 24  0  0  0  0  0  0  0  0999 V2000
    9.3236   -5.5497   24.8280 H   0  0  0  0  0  0  0  0  0  0  0  0
    9.0063   -5.0955   23.8938 C   0  0  0  0  0  0  0  0  0  0  0  0
    8.6722   -5.7780   23.1168 H   0  0  0  0  0  0  0  0  0  0  0  0
    9.0323   -3.7681   23.7742 C   0  0  0  0  0  0  0  0  0  0  0  0
    9.3962   -3.1628   24.5986 H   0  0  0  0  0  0  0  0  0  0  0  0
    8.5897   -2.9527   22.6304 C   0  0  0  0  0  0  0  0  0  0  0  0
    8.4920   -3.2777   21.4601 O   0  0  0  0  0  0  0  0  0  0  0  0
    8.2395   -1.6781   23.0092 N   0  0  0  0  0  0  0  0  0  0  0  0
    8.1029   -1.4764   23.9812 H   0  0  0  0  0  0  0  0  0  0  0  0
    6.8383   -1.1621   22.3344 S   0  0  0  0  0  0  0  0  0  0  0  0
    6.5027   -0.0297   23.1540 O   0  0  0  0  0  0  0  0  0  0  0  0
    5.9204   -2.2523   22.0857 O   0  0  0  0  0  0  0  0  0  0  0  0
    7.5695   -0.7338   20.9130 N   0  0  0  0  0  0  0  0  0  0  0  0
    8.0321   -1.6248   20.7121 H   0  0  0  0  0  0  0  0  0  0  0  0
    6.8157   -0.0664   19.8913 C   0  0  0  0  0  0  0  0  0  0  0  0
    7.3171    0.0314   18.5679 C   0  0  0  0  0  0  0  0  0  0  0  0
    8.2905   -0.4017   18.3353 H   0  0  0  0  0  0  0  0  0  0  0  0
    6.6733    0.6433   17.5653 N   0  0  0  0  0  0  0  0  0  0  0  0
    5.4973    1.2296   17.8458 C   0  0  0  0  0  0  0  0  0  0  0  0
    4.9801    1.7001   17.0138 H   0  0  0  0  0  0  0  0  0  0  0  0
    4.9387    1.2381   19.1261 C   0  0  0  0  0  0  0  0  0  0  0  0
    3.9928    1.7388   19.2991 H   0  0  0  0  0  0  0  0  0  0  0  0
    5.6107    0.5956   20.1734 C   0  0  0  0  0  0  0  0  0  0  0  0
    5.2192    0.6243   21.1891 H   0  0  0  0  0  0  0  0  0  0  0  0
  1  2  1  0
  2  3  1  0
  2  4  2  3
  4  5  1  0
  4  6  1  0
  6  7  2  0
  6  8  1  0
  8  9  1  0
  8 10  1  0
 10 11  2  0
 10 12  2  0
 10 13  1  0
 13 14  1  0
 13 15  1  0
 15 16  2  0
 16 17  1  0
 16 18  1  0
 18 19  2  0
 19 20  1  0
 19 21  1  0
 21 22  1  0
 21 23  2  0
 23 24  1  0
 23 15  1  0
M  END
>  <plip>  (1) 
-0.10344827586206896

>  <filename>  (1) 
[H][C]([H])=[C]([H])[C](=[O])[N]([H])[S](=[O])(=[O])[N]([H])[c]1[c]([H])[n][c]([H])[c]([H])[c]1[H]

$$$$
