
     RDKit          3D

 38 39  0  0  0  0  0  0  0  0999 V2000
   11.7028    4.5882   24.3297 C   0  0  0  0  0  0  0  0  0  0  0  0
   10.3454    4.9568   24.8899 C   0  0  0  0  0  0  0  0  0  0  0  0
   10.2466    5.9178   25.9254 C   0  0  0  0  0  0  0  0  0  0  0  0
   11.8075    6.7446   26.6730 Br  0  0  0  0  0  0  0  0  0  0  0  0
    8.9922    6.2696   26.4470 C   0  0  0  0  0  0  0  0  0  0  0  0
    7.8410    5.6430   25.9757 C   0  0  0  0  0  0  0  0  0  0  0  0
    7.9386    4.6714   24.9815 C   0  0  0  0  0  0  0  0  0  0  0  0
    9.1720    4.3237   24.4223 C   0  0  0  0  0  0  0  0  0  0  0  0
    9.1994    3.3295   23.4282 N   0  0  0  0  0  0  0  0  0  0  0  0
    8.2947    2.2635   23.3341 C   0  0  0  0  0  0  0  0  0  0  0  0
    7.4515    2.1774   24.2325 O   0  0  0  0  0  0  0  0  0  0  0  0
    8.3404    1.2423   22.1909 C   0  0  0  0  0  0  0  0  0  0  0  0
    9.1051    1.3958   21.2346 O   0  0  0  0  0  0  0  0  0  0  0  0
    7.5293    0.1028   22.1178 N   0  0  0  0  0  0  0  0  0  0  0  0
    7.4361   -0.7441   20.9391 C   0  0  0  0  0  0  0  0  0  0  0  0
    6.6934   -2.0209   21.3132 C   0  0  0  0  0  0  0  0  0  0  0  0
    6.6056   -2.6843   20.4476 H   0  0  0  0  0  0  0  0  0  0  0  0
    5.6864   -1.7898   21.6737 H   0  0  0  0  0  0  0  0  0  0  0  0
    7.2384   -2.5454   22.1022 H   0  0  0  0  0  0  0  0  0  0  0  0
    6.6844   -0.0027   19.8688 C   0  0  0  0  0  0  0  0  0  0  0  0
    5.4612    0.6307   20.1232 C   0  0  0  0  0  0  0  0  0  0  0  0
    4.8421    1.2985   19.0661 C   0  0  0  0  0  0  0  0  0  0  0  0
    5.4482    1.3185   17.8034 C   0  0  0  0  0  0  0  0  0  0  0  0
    6.6137    0.6977   17.5532 N   0  0  0  0  0  0  0  0  0  0  0  0
    7.2116    0.0573   18.5719 C   0  0  0  0  0  0  0  0  0  0  0  0
    8.1469   -0.4519   18.3656 H   0  0  0  0  0  0  0  0  0  0  0  0
    4.9637    1.8505   16.9898 H   0  0  0  0  0  0  0  0  0  0  0  0
    3.8984    1.8154   19.2069 H   0  0  0  0  0  0  0  0  0  0  0  0
    5.0067    0.6110   21.1139 H   0  0  0  0  0  0  0  0  0  0  0  0
    8.4414   -1.0090   20.5882 H   0  0  0  0  0  0  0  0  0  0  0  0
    6.8426   -0.0575   22.8475 H   0  0  0  0  0  0  0  0  0  0  0  0
    9.9988    3.3230   22.8040 H   0  0  0  0  0  0  0  0  0  0  0  0
    7.0347    4.1760   24.6521 H   0  0  0  0  0  0  0  0  0  0  0  0
    6.8682    5.8866   26.3911 H   0  0  0  0  0  0  0  0  0  0  0  0
    8.9011    7.0155   27.2332 H   0  0  0  0  0  0  0  0  0  0  0  0
   12.5043    5.0109   24.9482 H   0  0  0  0  0  0  0  0  0  0  0  0
   11.7916    4.9747   23.3072 H   0  0  0  0  0  0  0  0  0  0  0  0
   11.8264    3.4972   24.3141 H   0  0  0  0  0  0  0  0  0  0  0  0
  1  2  1  0
  2  3  2  0
  3  4  1  0
  3  5  1  0
  5  6  2  0
  6  7  1  0
  7  8  2  0
  8  9  1  0
  9 10  1  0
 10 11  2  0
 10 12  1  0
 12 13  2  0
 12 14  1  0
 14 15  1  0
 15 16  1  0
 16 17  1  0
 16 18  1  0
 16 19  1  0
 15 20  1  0
 20 21  2  0
 21 22  1  0
 22 23  2  0
 23 24  1  0
 24 25  2  0
 25 26  1  0
 23 27  1  0
 22 28  1  0
 21 29  1  0
 15 30  1  0
 14 31  1  0
  9 32  1  0
  7 33  1  0
  6 34  1  0
  5 35  1  0
  1 36  1  0
  1 37  1  0
  1 38  1  0
  8  2  1  0
 25 20  1  0
M  END
>  <plip>  (1) 
-0.17857142857142858

>  <filename>  (1) 
[H][c]1[n][c]([H])[c]([C]([H])([N]([H])[C](=[O])[C](=[O])[N]([H])[c]2[c]([H])[c]([H])[c]([H])[c]([Br])[c]2[C]([H])([H])[H])[C]([H])([H])[H])[c]([H])[c]1[H]

$$$$
