
     RDKit          3D

 38 39  0  0  0  0  0  0  0  0999 V2000
    9.2057   -6.2704   21.1029 H   0  0  0  0  0  0  0  0  0  0  0  0
    8.7186   -5.8033   20.4072 O   0  0  0  0  0  0  0  0  0  0  0  0
    7.7011   -5.0341   20.9970 C   0  0  2  0  0  0  0  0  0  0  0  0
    7.1063   -4.6868   20.1468 H   0  0  0  0  0  0  0  0  0  0  0  0
    8.2196   -3.8036   21.7782 C   0  0  0  0  0  0  0  0  0  0  0  0
    8.9099   -3.2181   21.1642 H   0  0  0  0  0  0  0  0  0  0  0  0
    8.8203   -4.1833   22.6187 H   0  0  0  0  0  0  0  0  0  0  0  0
    7.1456   -2.9344   22.2901 N   0  0  0  0  0  0  0  0  0  0  0  0
    6.6098   -2.0190   21.2564 C   0  0  0  0  0  0  0  0  0  0  0  0
    6.6914   -2.4770   20.2595 H   0  0  0  0  0  0  0  0  0  0  0  0
    5.5391   -1.8511   21.4232 H   0  0  0  0  0  0  0  0  0  0  0  0
    7.2663   -0.5958   21.1243 C   0  0  2  0  0  0  0  0  0  0  0  0
    6.5585    0.1394   19.9813 C   0  0  0  0  0  0  0  0  0  0  0  0
    7.1235    0.1255   18.6925 C   0  0  0  0  0  0  0  0  0  0  0  0
    8.0878   -0.3555   18.5502 H   0  0  0  0  0  0  0  0  0  0  0  0
    6.5740    0.6816   17.6052 N   0  0  0  0  0  0  0  0  0  0  0  0
    5.4111    1.3275   17.7711 C   0  0  0  0  0  0  0  0  0  0  0  0
    4.9914    1.7965   16.8837 H   0  0  0  0  0  0  0  0  0  0  0  0
    4.7614    1.4219   19.0073 C   0  0  0  0  0  0  0  0  0  0  0  0
    3.8354    1.9802   19.0835 H   0  0  0  0  0  0  0  0  0  0  0  0
    5.3334    0.8134   20.1259 C   0  0  0  0  0  0  0  0  0  0  0  0
    4.8389    0.8861   21.0978 H   0  0  0  0  0  0  0  0  0  0  0  0
    8.6983   -0.6945   20.7534 N   0  0  0  0  0  0  0  0  0  0  0  0
    9.1892   -1.0628   21.5664 H   0  0  0  0  0  0  0  0  0  0  0  0
    9.0264    0.2644   20.6702 H   0  0  0  0  0  0  0  0  0  0  0  0
    7.1761    0.1860   22.4468 C   0  0  0  0  0  0  0  0  0  0  0  0
    7.4976    1.2205   22.2807 H   0  0  0  0  0  0  0  0  0  0  0  0
    6.1651    0.2190   22.8626 H   0  0  0  0  0  0  0  0  0  0  0  0
    7.8264   -0.2633   23.2047 H   0  0  0  0  0  0  0  0  0  0  0  0
    6.1718   -3.6923   23.0911 C   0  0  0  0  0  0  0  0  0  0  0  0
    6.6465   -3.9313   24.0553 H   0  0  0  0  0  0  0  0  0  0  0  0
    5.3422   -3.0240   23.3369 H   0  0  0  0  0  0  0  0  0  0  0  0
    5.6512   -4.9916   22.4358 C   0  0  0  0  0  0  0  0  0  0  0  0
    5.0346   -5.5369   23.1589 H   0  0  0  0  0  0  0  0  0  0  0  0
    4.9962   -4.7456   21.5881 H   0  0  0  0  0  0  0  0  0  0  0  0
    6.8067   -5.8604   21.9202 C   0  0  0  0  0  0  0  0  0  0  0  0
    6.4472   -6.7454   21.3875 H   0  0  0  0  0  0  0  0  0  0  0  0
    7.4181   -6.2307   22.7581 H   0  0  0  0  0  0  0  0  0  0  0  0
  1  2  1  0
  2  3  1  0
  3  4  1  6
  3  5  1  0
  5  6  1  0
  5  7  1  0
  5  8  1  0
  8  9  1  0
  9 10  1  0
  9 11  1  0
  9 12  1  0
 12 13  1  0
 13 14  2  0
 14 15  1  0
 14 16  1  0
 16 17  2  0
 17 18  1  0
 17 19  1  0
 19 20  1  0
 19 21  2  0
 21 22  1  0
 12 23  1  6
 23 24  1  0
 23 25  1  0
 12 26  1  0
 26 27  1  0
 26 28  1  0
 26 29  1  0
  8 30  1  0
 30 31  1  0
 30 32  1  0
 30 33  1  0
 33 34  1  0
 33 35  1  0
 33 36  1  0
 36 37  1  0
 36 38  1  0
 36  3  1  0
 21 13  1  0
M  END
>  <plip>  (1) 
-0.1

>  <filename>  (1) 
[H][O][C@]1([H])[C]([H])([H])[N]([C]([H])([H])[C@]([c]2[c]([H])[n][c]([H])[c]([H])[c]2[H])([N]([H])[H])[C]([H])([H])[H])[C]([H])([H])[C]([H])([H])[C]1([H])[H]

$$$$
