
     RDKit          3D

 46 48  0  0  0  0  0  0  0  0999 V2000
    9.5870    1.9739   22.1419 C   0  0  0  0  0  0  0  0  0  0  0  0
    8.9752    0.9793   21.3577 O   0  0  0  0  0  0  0  0  0  0  0  0
    7.9749    0.2343   22.0197 C   0  0  0  0  0  0  0  0  0  0  0  0
    7.3595   -0.7361   20.9994 C   0  0  1  0  0  0  0  0  0  0  0  0
    6.4860   -1.6819   21.6788 N   0  0  0  0  0  0  0  0  0  0  0  0
    6.0018   -2.8132   21.0904 C   0  0  0  0  0  0  0  0  0  0  0  0
    6.0898   -3.0331   19.8950 O   0  0  0  0  0  0  0  0  0  0  0  0
    5.3924   -3.8215   22.0563 C   0  0  0  0  0  0  0  0  0  0  0  0
    6.4351   -4.7821   22.6969 C   0  0  0  0  0  0  0  0  0  0  0  0
    7.4534   -4.0177   23.5182 C   0  0  0  0  0  0  0  0  0  0  0  0
    8.7081   -3.6836   22.9465 C   0  0  0  0  0  0  0  0  0  0  0  0
    9.5548   -2.7582   23.5180 C   0  0  0  0  0  0  0  0  0  0  0  0
    9.1841   -2.1026   24.7348 C   0  0  0  0  0  0  0  0  0  0  0  0
    9.9166   -1.0534   25.3632 C   0  0  0  0  0  0  0  0  0  0  0  0
    9.4719   -0.5557   26.5718 C   0  0  0  0  0  0  0  0  0  0  0  0
    8.2811   -1.0714   27.1398 C   0  0  0  0  0  0  0  0  0  0  0  0
    7.5446   -2.0031   26.5805 N   0  0  0  0  0  0  0  0  0  0  0  0
    7.9675   -2.5149   25.3797 C   0  0  0  0  0  0  0  0  0  0  0  0
    7.1351   -3.4818   24.7540 C   0  0  0  0  0  0  0  0  0  0  0  0
    6.2515   -3.7725   25.3113 H   0  0  0  0  0  0  0  0  0  0  0  0
    7.9257   -0.6700   28.0885 H   0  0  0  0  0  0  0  0  0  0  0  0
   10.0208    0.2019   27.1071 H   0  0  0  0  0  0  0  0  0  0  0  0
   10.8174   -0.6493   24.8987 H   0  0  0  0  0  0  0  0  0  0  0  0
   10.4865   -2.4869   23.0242 H   0  0  0  0  0  0  0  0  0  0  0  0
    8.9551   -4.1092   21.9844 H   0  0  0  0  0  0  0  0  0  0  0  0
    5.9038   -5.5010   23.3304 H   0  0  0  0  0  0  0  0  0  0  0  0
    6.9319   -5.3788   21.9188 H   0  0  0  0  0  0  0  0  0  0  0  0
    4.6560   -4.4027   21.5040 H   0  0  0  0  0  0  0  0  0  0  0  0
    4.8580   -3.2948   22.8560 H   0  0  0  0  0  0  0  0  0  0  0  0
    6.3970   -1.6095   22.6762 H   0  0  0  0  0  0  0  0  0  0  0  0
    6.6012   -0.0325   19.8918 C   0  0  0  0  0  0  0  0  0  0  0  0
    5.3935    0.6378   20.1176 C   0  0  0  0  0  0  0  0  0  0  0  0
    4.8022    1.3226   19.0530 C   0  0  0  0  0  0  0  0  0  0  0  0
    5.4352    1.3098   17.8019 C   0  0  0  0  0  0  0  0  0  0  0  0
    6.5767    0.6535   17.5585 N   0  0  0  0  0  0  0  0  0  0  0  0
    7.1263    0.0010   18.5971 C   0  0  0  0  0  0  0  0  0  0  0  0
    8.0553   -0.5291   18.3871 H   0  0  0  0  0  0  0  0  0  0  0  0
    4.9941    1.8365   16.9544 H   0  0  0  0  0  0  0  0  0  0  0  0
    3.8714    1.8599   19.1763 H   0  0  0  0  0  0  0  0  0  0  0  0
    4.9228    0.6155   21.1048 H   0  0  0  0  0  0  0  0  0  0  0  0
    8.2136   -1.2607   20.5482 H   0  0  0  0  0  0  0  0  0  0  0  0
    8.3956   -0.3463   22.8554 H   0  0  0  0  0  0  0  0  0  0  0  0
    7.1882    0.8873   22.4411 H   0  0  0  0  0  0  0  0  0  0  0  0
    8.8608    2.6924   22.5560 H   0  0  0  0  0  0  0  0  0  0  0  0
   10.1537    1.5477   22.9858 H   0  0  0  0  0  0  0  0  0  0  0  0
   10.2803    2.5142   21.4902 H   0  0  0  0  0  0  0  0  0  0  0  0
  1  2  1  0
  2  3  1  0
  3  4  1  0
  4  5  1  0
  5  6  1  0
  6  7  2  0
  6  8  1  0
  8  9  1  0
  9 10  1  0
 10 11  2  0
 11 12  1  0
 12 13  2  0
 13 14  1  0
 14 15  2  0
 15 16  1  0
 16 17  2  0
 17 18  1  0
 18 19  2  0
 19 20  1  0
 16 21  1  0
 15 22  1  0
 14 23  1  0
 12 24  1  0
 11 25  1  0
  9 26  1  0
  9 27  1  0
  8 28  1  0
  8 29  1  0
  5 30  1  0
  4 31  1  0
 31 32  2  0
 32 33  1  0
 33 34  2  0
 34 35  1  0
 35 36  2  0
 36 37  1  0
 34 38  1  0
 33 39  1  0
 32 40  1  0
  4 41  1  6
  3 42  1  0
  3 43  1  0
  1 44  1  0
  1 45  1  0
  1 46  1  0
 19 10  1  0
 36 31  1  0
 18 13  1  0
M  END
>  <plip>  (1) 
-0.2

>  <filename>  (1) 
[H][c]1[n][c]([H])[c]([C@]([H])([N]([H])[C](=[O])[C]([H])([H])[C]([H])([H])[c]2[c]([H])[c]([H])[c]3[c]([H])[c]([H])[c]([H])[n][c]3[c]2[H])[C]([H])([H])[O][C]([H])([H])[H])[c]([H])[c]1[H]

$$$$
