
     RDKit          3D

 54 57  0  0  0  0  0  0  0  0999 V2000
    1.4051    7.1981   23.4514 C   0  0  0  0  0  0  0  0  0  0  0  0
    1.9143    5.8550   22.9816 C   0  0  0  0  0  0  0  0  0  0  0  0
    2.9785    5.2176   23.6398 C   0  0  0  0  0  0  0  0  0  0  0  0
    3.4763    3.9709   23.2253 C   0  0  0  0  0  0  0  0  0  0  0  0
    4.6158    3.3359   23.9771 C   0  0  2  0  0  0  0  0  0  0  0  0
    5.9040    4.1017   24.1551 C   0  0  0  0  0  0  0  0  0  0  0  0
    5.8580    2.9153   23.2301 C   0  0  1  0  0  0  0  0  0  0  0  0
    6.6731    1.6821   23.5077 C   0  0  0  0  0  0  0  0  0  0  0  0
    7.8844    1.6942   23.6529 O   0  0  0  0  0  0  0  0  0  0  0  0
    5.9562    0.5275   23.5146 N   0  0  0  0  0  0  0  0  0  0  0  0
    6.5398   -0.7998   23.4981 C   0  0  0  0  0  0  0  0  0  0  0  0
    6.5191   -1.4275   22.0914 C   0  0  2  0  0  0  0  0  0  0  0  0
    7.0855   -2.8616   22.0672 C   0  0  0  0  0  0  0  0  0  0  0  0
    8.5462   -2.6817   21.6960 C   0  0  0  0  0  0  0  0  0  0  0  0
    8.5240   -1.5357   20.7206 N   0  0  0  0  0  4  0  0  0  0  0  0
    9.8434   -0.8797   20.6357 C   0  0  0  0  0  0  0  0  0  0  0  0
   10.6511   -1.6055   20.4920 H   0  0  0  0  0  0  0  0  0  0  0  0
   10.0483   -0.3594   21.5835 H   0  0  0  0  0  0  0  0  0  0  0  0
    9.8926   -0.1423   19.8303 H   0  0  0  0  0  0  0  0  0  0  0  0
    7.3967   -0.5868   21.1283 C   0  0  1  0  0  0  0  0  0  0  0  0
    6.6565    0.0169   19.9459 C   0  0  0  0  0  0  0  0  0  0  0  0
    5.4343    0.6824   20.1480 C   0  0  0  0  0  0  0  0  0  0  0  0
    4.8093    1.3233   19.0793 C   0  0  0  0  0  0  0  0  0  0  0  0
    5.4256    1.2819   17.8280 C   0  0  0  0  0  0  0  0  0  0  0  0
    6.5787    0.6419   17.5990 N   0  0  0  0  0  0  0  0  0  0  0  0
    7.1708    0.0322   18.6381 C   0  0  0  0  0  0  0  0  0  0  0  0
    8.1161   -0.4558   18.3963 H   0  0  0  0  0  0  0  0  0  0  0  0
    4.9713    1.7900   16.9781 H   0  0  0  0  0  0  0  0  0  0  0  0
    3.8730    1.8600   19.2025 H   0  0  0  0  0  0  0  0  0  0  0  0
    4.9662    0.7006   21.1346 H   0  0  0  0  0  0  0  0  0  0  0  0
    7.8788    0.2270   21.6805 H   0  0  0  0  0  0  0  0  0  0  0  0
    8.2035   -1.9158   19.8052 H   0  0  0  0  0  0  0  0  0  0  0  0
    9.1414   -2.3981   22.5740 H   0  0  0  0  0  0  0  0  0  0  0  0
    9.0045   -3.5633   21.2363 H   0  0  0  0  0  0  0  0  0  0  0  0
    6.9659   -3.3811   23.0235 H   0  0  0  0  0  0  0  0  0  0  0  0
    6.5893   -3.4723   21.3045 H   0  0  0  0  0  0  0  0  0  0  0  0
    5.4958   -1.4495   21.7131 H   0  0  0  0  0  0  0  0  0  0  0  0
    6.0073   -1.4350   24.2153 H   0  0  0  0  0  0  0  0  0  0  0  0
    7.5706   -0.7149   23.8506 H   0  0  0  0  0  0  0  0  0  0  0  0
    4.9621    0.6153   23.4218 H   0  0  0  0  0  0  0  0  0  0  0  0
    5.8387    3.1031   22.1586 H   0  0  0  0  0  0  0  0  0  0  0  0
    6.4522    3.9971   25.0903 H   0  0  0  0  0  0  0  0  0  0  0  0
    5.9491    5.0897   23.7000 H   0  0  0  0  0  0  0  0  0  0  0  0
    4.3088    2.7245   24.8268 H   0  0  0  0  0  0  0  0  0  0  0  0
    2.8719    3.3521   22.1180 C   0  0  0  0  0  0  0  0  0  0  0  0
    1.8167    3.9722   21.4442 C   0  0  0  0  0  0  0  0  0  0  0  0
    1.3419    5.2179   21.8684 C   0  0  0  0  0  0  0  0  0  0  0  0
    0.5503    5.7165   21.3157 H   0  0  0  0  0  0  0  0  0  0  0  0
    1.3751    3.5002   20.5744 H   0  0  0  0  0  0  0  0  0  0  0  0
    3.2330    2.3893   21.7672 H   0  0  0  0  0  0  0  0  0  0  0  0
    3.4514    5.7087   24.4874 H   0  0  0  0  0  0  0  0  0  0  0  0
    2.2041    7.7947   23.9041 H   0  0  0  0  0  0  0  0  0  0  0  0
    0.9949    7.7911   22.6272 H   0  0  0  0  0  0  0  0  0  0  0  0
    0.6107    7.0979   24.2018 H   0  0  0  0  0  0  0  0  0  0  0  0
  1  2  1  0
  2  3  2  0
  3  4  1  0
  4  5  1  0
  5  6  1  0
  6  7  1  0
  7  8  1  0
  8  9  2  0
  8 10  1  0
 10 11  1  0
 11 12  1  0
 12 13  1  0
 13 14  1  0
 14 15  1  0
 15 16  1  0
 16 17  1  0
 16 18  1  0
 16 19  1  0
 15 20  1  0
 20 21  1  0
 21 22  2  0
 22 23  1  0
 23 24  2  0
 24 25  1  0
 25 26  2  0
 26 27  1  0
 24 28  1  0
 23 29  1  0
 22 30  1  0
 20 31  1  1
 15 32  1  0
 14 33  1  0
 14 34  1  0
 13 35  1  0
 13 36  1  0
 12 37  1  6
 11 38  1  0
 11 39  1  0
 10 40  1  0
  7 41  1  6
  6 42  1  0
  6 43  1  0
  5 44  1  1
  4 45  2  0
 45 46  1  0
 46 47  2  0
 47 48  1  0
 46 49  1  0
 45 50  1  0
  3 51  1  0
  1 52  1  0
  1 53  1  0
  1 54  1  0
 47  2  1  0
  7  5  1  0
 20 12  1  0
 26 21  1  0
M  CHG  1  15   1
M  END
>  <plip>  (1) 
-0.10344827586206896

>  <filename>  (1) 
[H][c]1[n][c]([H])[c]([C@@]2([H])[C@]([H])([C]([H])([H])[N]([H])[C](=[O])[C@]3([H])[C]([H])([H])[C@@]3([H])[c]3[c]([H])[c]([H])[c]([H])[c]([C]([H])([H])[H])[c]3[H])[C]([H])([H])[C]([H])([H])[N+]2([H])[C]([H])([H])[H])[c]([H])[c]1[H]

$$$$
