
     RDKit          3D

 57 59  0  0  0  0  0  0  0  0999 V2000
    6.3954   -5.1653   20.4008 C   0  0  0  0  0  0  0  0  0  0  0  0
    7.3262   -4.6962   21.5196 C   0  0  0  0  0  0  0  0  0  0  0  0
    7.0513   -5.4912   22.7946 C   0  0  0  0  0  0  0  0  0  0  0  0
    5.6125   -5.2658   23.2067 C   0  0  0  0  0  0  0  0  0  0  0  0
    5.1922   -4.1318   23.4077 O   0  0  0  0  0  0  0  0  0  0  0  0
    4.8042   -6.3678   23.2567 N   0  0  0  0  0  0  0  0  0  0  0  0
    3.5594   -6.4114   23.9304 C   0  0  0  0  0  0  0  0  0  0  0  0
    3.4809   -5.9251   25.2449 C   0  0  0  0  0  0  0  0  0  0  0  0
    2.2792   -5.9846   25.9552 C   0  0  0  0  0  0  0  0  0  0  0  0
    1.1304   -6.5135   25.3526 C   0  0  0  0  0  0  0  0  0  0  0  0
    1.1832   -6.9679   24.0331 C   0  0  0  0  0  0  0  0  0  0  0  0
    2.3919   -6.9231   23.3296 C   0  0  0  0  0  0  0  0  0  0  0  0
    2.3995   -7.4724   21.6779 Cl  0  0  0  0  0  0  0  0  0  0  0  0
    0.2858   -7.3265   23.5317 H   0  0  0  0  0  0  0  0  0  0  0  0
    0.1969   -6.5511   25.9078 H   0  0  0  0  0  0  0  0  0  0  0  0
    2.2389   -5.5857   26.9629 H   0  0  0  0  0  0  0  0  0  0  0  0
    4.3793   -5.5030   25.6888 H   0  0  0  0  0  0  0  0  0  0  0  0
    5.0613   -7.1558   22.6856 H   0  0  0  0  0  0  0  0  0  0  0  0
    7.6887   -5.1375   23.6111 H   0  0  0  0  0  0  0  0  0  0  0  0
    7.2612   -6.5513   22.6655 H   0  0  0  0  0  0  0  0  0  0  0  0
    7.0831   -3.2782   21.9162 N   0  0  0  0  0  4  0  0  0  0  0  0
    7.3154   -2.2741   20.8367 C   0  0  0  0  0  0  0  0  0  0  0  0
    7.2026   -0.7622   21.1792 C   0  0  0  0  0  0  0  0  0  0  0  0
    6.5598   -0.0210   20.0229 C   0  0  0  0  0  0  0  0  0  0  0  0
    5.3624    0.6948   20.1463 C   0  0  0  0  0  0  0  0  0  0  0  0
    4.8770    1.3908   19.0331 C   0  0  0  0  0  0  0  0  0  0  0  0
    5.5997    1.3356   17.8399 C   0  0  0  0  0  0  0  0  0  0  0  0
    6.7413    0.6440   17.7014 N   0  0  0  0  0  0  0  0  0  0  0  0
    7.2014   -0.0051   18.7748 C   0  0  0  0  0  0  0  0  0  0  0  0
    8.1295   -0.5660   18.6211 H   0  0  0  0  0  0  0  0  0  0  0  0
    5.2532    1.8669   16.9537 H   0  0  0  0  0  0  0  0  0  0  0  0
    3.9676    1.9799   19.0755 H   0  0  0  0  0  0  0  0  0  0  0  0
    4.8170    0.7108   21.0916 H   0  0  0  0  0  0  0  0  0  0  0  0
    8.5647   -0.0951   21.4038 N   0  0  0  0  0  4  0  0  0  0  0  0
    8.4649    1.4424   21.6054 C   0  0  0  0  0  0  0  0  0  0  0  0
    9.7994    2.0284   22.1178 C   0  0  0  0  0  0  0  0  0  0  0  0
   10.8956    1.1851   21.8124 O   0  0  0  0  0  0  0  0  0  0  0  0
   10.8383   -0.0521   22.5083 C   0  0  0  0  0  0  0  0  0  0  0  0
    9.4304   -0.7032   22.4914 C   0  0  0  0  0  0  0  0  0  0  0  0
    9.5297   -1.7811   22.3407 H   0  0  0  0  0  0  0  0  0  0  0  0
    8.9439   -0.5588   23.4646 H   0  0  0  0  0  0  0  0  0  0  0  0
   11.5687   -0.6921   22.0094 H   0  0  0  0  0  0  0  0  0  0  0  0
   11.1537    0.0814   23.5552 H   0  0  0  0  0  0  0  0  0  0  0  0
   10.0088    2.9812   21.6301 H   0  0  0  0  0  0  0  0  0  0  0  0
    9.7360    2.2045   23.2028 H   0  0  0  0  0  0  0  0  0  0  0  0
    8.1949    1.8916   20.6481 H   0  0  0  0  0  0  0  0  0  0  0  0
    7.6543    1.6663   22.3053 H   0  0  0  0  0  0  0  0  0  0  0  0
    9.0709   -0.1976   20.4984 H   0  0  0  0  0  0  0  0  0  0  0  0
    6.6134   -0.6424   22.1028 H   0  0  0  0  0  0  0  0  0  0  0  0
    8.3202   -2.4031   20.3979 H   0  0  0  0  0  0  0  0  0  0  0  0
    6.6044   -2.4599   20.0271 H   0  0  0  0  0  0  0  0  0  0  0  0
    7.7086   -3.0769   22.7177 H   0  0  0  0  0  0  0  0  0  0  0  0
    6.1187   -3.2666   22.3573 H   0  0  0  0  0  0  0  0  0  0  0  0
    8.3771   -4.8196   21.1999 H   0  0  0  0  0  0  0  0  0  0  0  0
    5.3467   -5.0908   20.7166 H   0  0  0  0  0  0  0  0  0  0  0  0
    6.6051   -6.2169   20.1787 H   0  0  0  0  0  0  0  0  0  0  0  0
    6.5183   -4.5989   19.4741 H   0  0  0  0  0  0  0  0  0  0  0  0
  1  2  1  0
  2  3  1  0
  3  4  1  0
  4  5  2  0
  4  6  1  0
  6  7  1  0
  7  8  2  0
  8  9  1  0
  9 10  2  0
 10 11  1  0
 11 12  2  0
 12 13  1  0
 11 14  1  0
 10 15  1  0
  9 16  1  0
  8 17  1  0
  6 18  1  0
  3 19  1  0
  3 20  1  0
  2 21  1  0
 21 22  1  0
 22 23  1  0
 23 24  1  0
 24 25  2  0
 25 26  1  0
 26 27  2  0
 27 28  1  0
 28 29  2  0
 29 30  1  0
 27 31  1  0
 26 32  1  0
 25 33  1  0
 23 34  1  0
 34 35  1  0
 35 36  1  0
 36 37  1  0
 37 38  1  0
 38 39  1  0
 39 40  1  0
 39 41  1  0
 38 42  1  0
 38 43  1  0
 36 44  1  0
 36 45  1  0
 35 46  1  0
 35 47  1  0
 34 48  1  0
 23 49  1  0
 22 50  1  0
 22 51  1  0
 21 52  1  0
 21 53  1  0
  2 54  1  0
  1 55  1  0
  1 56  1  0
  1 57  1  0
 12  7  1  0
 29 24  1  0
 39 34  1  0
M  CHG  2  21   1  34   1
M  END
>  <plip>  (1) 
-0.15625

>  <filename>  (1) 
[H][c]1[n][c]([H])[c]([C]([H])([C]([H])([H])[N+]([H])([H])[C]([H])([C]([H])([H])[H])[C]([H])([H])[C](=[O])[N]([H])[c]2[c]([H])[c]([H])[c]([H])[c]([H])[c]2[Cl])[N+]2([H])[C]([H])([H])[C]([H])([H])[O][C]([H])([H])[C]2([H])[H])[c]([H])[c]1[H]

$$$$
