
     RDKit          3D

 33 34  0  0  0  0  0  0  0  0999 V2000
    8.6698   -5.8392   24.9142 C   0  0  0  0  0  0  0  0  0  0  0  0
    8.7395   -4.4396   25.5220 C   0  0  2  0  0  0  0  0  0  0  0  0
    8.7194   -3.3831   24.4851 N   0  0  0  0  0  0  0  0  0  0  0  0
    7.5791   -3.0571   23.7877 C   0  0  0  0  0  0  0  0  0  0  0  0
    6.5042   -3.5883   24.0309 O   0  0  0  0  0  0  0  0  0  0  0  0
    7.7152   -2.0133   22.6898 C   0  0  0  0  0  0  0  0  0  0  0  0
    8.8688   -1.4267   22.3339 N   0  0  0  0  0  0  0  0  0  0  0  0
    8.5642   -0.6199   21.3136 N   0  0  0  0  0  0  0  0  0  0  0  0
    9.6343    0.1062   20.6677 C   0  0  0  0  0  0  0  0  0  0  0  0
    9.2778    1.0660   20.2857 H   0  0  0  0  0  0  0  0  0  0  0  0
   10.4095    0.2808   21.4119 H   0  0  0  0  0  0  0  0  0  0  0  0
   10.0489   -0.4945   19.8535 H   0  0  0  0  0  0  0  0  0  0  0  0
    7.2495   -0.6855   20.9646 C   0  0  0  0  0  0  0  0  0  0  0  0
    6.6144    0.0514   19.8521 C   0  0  0  0  0  0  0  0  0  0  0  0
    5.3949    0.7074   20.0712 C   0  0  0  0  0  0  0  0  0  0  0  0
    4.7788    1.3686   19.0067 C   0  0  0  0  0  0  0  0  0  0  0  0
    5.3946    1.3487   17.7496 C   0  0  0  0  0  0  0  0  0  0  0  0
    6.5540    0.7163   17.5064 N   0  0  0  0  0  0  0  0  0  0  0  0
    7.1343    0.0893   18.5410 C   0  0  0  0  0  0  0  0  0  0  0  0
    8.0659   -0.4275   18.3176 H   0  0  0  0  0  0  0  0  0  0  0  0
    4.9351    1.8548   16.9017 H   0  0  0  0  0  0  0  0  0  0  0  0
    3.8399    1.8932   19.1385 H   0  0  0  0  0  0  0  0  0  0  0  0
    4.9579    0.7047   21.0721 H   0  0  0  0  0  0  0  0  0  0  0  0
    6.6709   -1.5643   21.8521 C   0  0  0  0  0  0  0  0  0  0  0  0
    5.6337   -1.8633   21.8613 H   0  0  0  0  0  0  0  0  0  0  0  0
    9.5817   -3.0086   24.1162 H   0  0  0  0  0  0  0  0  0  0  0  0
   10.0504   -4.5851   26.6279 C   0  0  0  0  0  0  0  0  0  0  0  0
   11.1537   -4.7188   26.0881 O   0  0  0  0  0  0  0  0  0  0  0  0
    9.6752   -4.5974   27.8109 O   0  0  0  0  0  1  0  0  0  0  0  0
    7.8764   -4.2497   26.1538 H   0  0  0  0  0  0  0  0  0  0  0  0
    8.6006   -6.5811   25.7191 H   0  0  0  0  0  0  0  0  0  0  0  0
    7.7918   -5.9028   24.2680 H   0  0  0  0  0  0  0  0  0  0  0  0
    9.5787   -6.0391   24.3350 H   0  0  0  0  0  0  0  0  0  0  0  0
  1  2  1  0
  2  3  1  0
  3  4  1  0
  4  5  2  0
  4  6  1  0
  6  7  2  0
  7  8  1  0
  8  9  1  0
  9 10  1  0
  9 11  1  0
  9 12  1  0
  8 13  1  0
 13 14  1  0
 14 15  2  0
 15 16  1  0
 16 17  2  0
 17 18  1  0
 18 19  2  0
 19 20  1  0
 17 21  1  0
 16 22  1  0
 15 23  1  0
 13 24  2  0
 24 25  1  0
  3 26  1  0
  2 27  1  0
 27 28  2  0
 27 29  1  0
  2 30  1  1
  1 31  1  0
  1 32  1  0
  1 33  1  0
 24  6  1  0
 19 14  1  0
M  CHG  1  29  -1
M  END
>  <plip>  (1) 
-0.07142857142857142

>  <filename>  (1) 
[H][c]1[n][c]([H])[c](-[c]2[c]([H])[c]([C](=[O])[N]([H])[C@]([H])([C](=[O])[O-])[C]([H])([H])[H])[n][n]2[C]([H])([H])[H])[c]([H])[c]1[H]

$$$$
