
     RDKit          3D

 37 39  0  0  0  0  0  0  0  0999 V2000
    8.1838    2.1641   21.8781 O   0  0  0  0  0  0  0  0  0  0  0  0
    8.9424    1.2200   21.7102 C   0  0  0  0  0  0  0  0  0  0  0  0
    8.5498   -0.0188   21.3648 N   0  0  0  0  0  0  0  0  0  0  0  0
    7.1768   -0.4478   21.2365 C   0  0  2  0  0  0  0  0  0  0  0  0
    7.2366   -1.9689   21.1182 C   0  0  0  0  0  0  0  0  0  0  0  0
    5.9013   -2.6700   20.9547 C   0  0  0  0  0  0  0  0  0  0  0  0
    6.1646   -4.0409   20.7097 O   0  0  0  0  0  0  0  0  0  0  0  0
    5.4873   -4.5826   21.1244 H   0  0  0  0  0  0  0  0  0  0  0  0
    5.3524   -2.2233   20.1098 H   0  0  0  0  0  0  0  0  0  0  0  0
    5.3032   -2.5414   21.8688 H   0  0  0  0  0  0  0  0  0  0  0  0
    7.8510   -2.1829   20.2449 H   0  0  0  0  0  0  0  0  0  0  0  0
    7.7616   -2.3756   21.9903 H   0  0  0  0  0  0  0  0  0  0  0  0
    6.5100    0.2195   20.0475 C   0  0  0  0  0  0  0  0  0  0  0  0
    5.2777    0.8759   20.1571 C   0  0  0  0  0  0  0  0  0  0  0  0
    4.7046    1.4283   19.0087 C   0  0  0  0  0  0  0  0  0  0  0  0
    5.4002    1.3178   17.8002 C   0  0  0  0  0  0  0  0  0  0  0  0
    6.5803    0.6948   17.6727 N   0  0  0  0  0  0  0  0  0  0  0  0
    7.1142    0.1665   18.7818 C   0  0  0  0  0  0  0  0  0  0  0  0
    8.0809   -0.3250   18.6512 H   0  0  0  0  0  0  0  0  0  0  0  0
    4.9946    1.7370   16.8843 H   0  0  0  0  0  0  0  0  0  0  0  0
    3.7542    1.9475   19.0385 H   0  0  0  0  0  0  0  0  0  0  0  0
    4.8021    0.9753   21.1366 H   0  0  0  0  0  0  0  0  0  0  0  0
    6.6221   -0.1575   22.1434 H   0  0  0  0  0  0  0  0  0  0  0  0
    9.3090   -0.6468   21.1709 H   0  0  0  0  0  0  0  0  0  0  0  0
   10.3955    1.3211   21.8768 C   0  0  0  0  0  0  0  0  0  0  0  0
   11.4674    0.3929   21.9981 C   0  0  0  0  0  0  0  0  0  0  0  0
   11.7287   -1.0119   21.8846 C   0  0  0  0  0  0  0  0  0  0  0  0
   13.0177   -1.4555   22.0578 C   0  0  0  0  0  0  0  0  0  0  0  0
   14.0434   -0.5044   22.3859 C   0  0  0  0  0  0  0  0  0  0  0  0
   13.8439    0.7842   22.4952 N   0  0  0  0  0  0  0  0  0  0  0  0
   12.5745    1.1974   22.2723 N   0  0  0  0  0  0  0  0  0  0  0  0
   12.2781    2.5101   22.3145 N   0  0  0  0  0  0  0  0  0  0  0  0
   10.9843    2.5725   22.0820 C   0  0  0  0  0  0  0  0  0  0  0  0
   10.4620    3.5208   22.0652 H   0  0  0  0  0  0  0  0  0  0  0  0
   15.0552   -0.8403   22.5719 H   0  0  0  0  0  0  0  0  0  0  0  0
   13.2659   -2.5086   21.9569 H   0  0  0  0  0  0  0  0  0  0  0  0
   10.9322   -1.7222   21.6826 H   0  0  0  0  0  0  0  0  0  0  0  0
  1  2  2  0
  2  3  1  0
  3  4  1  0
  4  5  1  0
  5  6  1  0
  6  7  1  0
  7  8  1  0
  6  9  1  0
  6 10  1  0
  5 11  1  0
  5 12  1  0
  4 13  1  0
 13 14  2  0
 14 15  1  0
 15 16  2  0
 16 17  1  0
 17 18  2  0
 18 19  1  0
 16 20  1  0
 15 21  1  0
 14 22  1  0
  4 23  1  1
  3 24  1  0
  2 25  1  0
 25 26  2  0
 26 27  1  0
 27 28  2  0
 28 29  1  0
 29 30  2  0
 30 31  1  0
 31 32  1  0
 32 33  2  0
 33 34  1  0
 29 35  1  0
 28 36  1  0
 27 37  1  0
 18 13  1  0
 33 25  1  0
 31 26  1  0
M  END
>  <plip>  (1) 
-0.13793103448275862

>  <filename>  (1) 
[H][O][C]([H])([H])[C]([H])([H])[C@]([H])([c]1[c]([H])[n][c]([H])[c]([H])[c]1[H])[N]([H])[C](=[O])[c]1[c]([H])[n][n]2[n][c]([H])[c]([H])[c]([H])[c]12

$$$$
