
     RDKit          3D

 37 40  0  0  0  0  0  0  0  0999 V2000
    5.0034    1.7737   16.9918 H   0  0  0  0  0  0  0  0  0  0  0  0
    5.4386    1.2682   17.8524 C   0  0  0  0  0  0  0  0  0  0  0  0
    6.5856    0.6121   17.6253 N   0  0  0  0  0  0  0  0  0  0  0  0
    7.1651    0.0204   18.6694 C   0  0  0  0  0  0  0  0  0  0  0  0
    8.0685   -0.5496   18.4652 H   0  0  0  0  0  0  0  0  0  0  0  0
    6.6853    0.0935   19.9874 C   0  0  0  0  0  0  0  0  0  0  0  0
    7.5863   -0.5530   20.9949 C   0  0  0  0  0  0  0  0  0  0  0  0
    8.0828   -1.6343   20.7484 O   0  0  0  0  0  0  0  0  0  0  0  0
    7.9086    0.0743   22.3302 C   0  0  0  0  0  0  0  0  0  0  0  0
    8.8982   -0.2655   22.6294 H   0  0  0  0  0  0  0  0  0  0  0  0
    7.6257    1.5746   22.5302 C   0  0  0  0  0  0  0  0  0  0  0  0
    7.3876    2.1769   21.6408 H   0  0  0  0  0  0  0  0  0  0  0  0
    8.4012    2.0896   23.1095 H   0  0  0  0  0  0  0  0  0  0  0  0
    6.5096    1.1904   23.3550 N   0  0  0  0  0  0  0  0  0  0  0  0
    5.6988    2.0206   24.0738 C   0  0  0  0  0  0  0  0  0  0  0  0
    4.6656    1.4786   24.9071 C   0  0  0  0  0  0  0  0  0  0  0  0
    4.5615    0.3966   24.9645 H   0  0  0  0  0  0  0  0  0  0  0  0
    3.8449    2.3227   25.6120 C   0  0  0  0  0  0  0  0  0  0  0  0
    3.0519    1.9660   26.2589 H   0  0  0  0  0  0  0  0  0  0  0  0
    3.9944    3.7429   25.5244 C   0  0  0  0  0  0  0  0  0  0  0  0
    3.1270    4.5121   26.2490 N   0  0  0  0  0  0  0  0  0  0  0  0
    3.2611    5.8148   26.1616 C   0  0  0  0  0  0  0  0  0  0  0  0
    2.5615    6.4120   26.7496 H   0  0  0  0  0  0  0  0  0  0  0  0
    4.2459    6.4654   25.3639 C   0  0  0  0  0  0  0  0  0  0  0  0
    4.2792    7.5482   25.3532 H   0  0  0  0  0  0  0  0  0  0  0  0
    5.1263    5.7086   24.6273 C   0  0  0  0  0  0  0  0  0  0  0  0
    5.8907    6.1679   23.9975 H   0  0  0  0  0  0  0  0  0  0  0  0
    5.0237    4.2856   24.6889 C   0  0  0  0  0  0  0  0  0  0  0  0
    5.8654    3.3945   23.9727 C   0  0  0  0  0  0  0  0  0  0  0  0
    6.6535    3.7889   23.3406 H   0  0  0  0  0  0  0  0  0  0  0  0
    6.7872   -0.2303   23.3618 C   0  0  0  0  0  0  0  0  0  0  0  0
    7.0944   -0.6375   24.3354 H   0  0  0  0  0  0  0  0  0  0  0  0
    6.0168   -0.8740   22.9382 H   0  0  0  0  0  0  0  0  0  0  0  0
    5.4439    0.7210   20.2004 C   0  0  0  0  0  0  0  0  0  0  0  0
    4.9516    0.7508   21.1747 H   0  0  0  0  0  0  0  0  0  0  0  0
    4.8189    1.3190   19.1034 C   0  0  0  0  0  0  0  0  0  0  0  0
    3.8698    1.8302   19.2014 H   0  0  0  0  0  0  0  0  0  0  0  0
  1  2  1  0
  2  3  2  0
  3  4  1  0
  4  5  1  0
  4  6  2  0
  6  7  1  0
  7  8  2  0
  7  9  1  0
  9 10  1  0
  9 11  1  0
 11 12  1  0
 11 13  1  0
 11 14  1  0
 14 15  1  0
 15 16  2  0
 16 17  1  0
 16 18  1  0
 18 19  1  0
 18 20  2  0
 20 21  1  0
 21 22  2  0
 22 23  1  0
 22 24  1  0
 24 25  1  0
 24 26  2  0
 26 27  1  0
 26 28  1  0
 28 29  2  0
 29 30  1  0
 14 31  1  0
 31 32  1  0
 31 33  1  0
  6 34  1  0
 34 35  1  0
 34 36  2  0
 36 37  1  0
 36  2  1  0
 31  9  1  0
 29 15  1  0
 28 20  1  0
M  END
>  <plip>  (1) 
-0.03571428571428571

>  <filename>  (1) 
[H][c]1[n][c]([H])[c]([C](=[O])[C]2([H])[C]([H])([H])[N]([c]3[c]([H])[c]([H])[c]4[n][c]([H])[c]([H])[c]([H])[c]4[c]3[H])[C]2([H])[H])[c]([H])[c]1[H]

$$$$
