
     RDKit          3D

 28 29  0  0  0  0  0  0  0  0999 V2000
   14.0925   -0.0609   22.7140 C   0  0  0  0  0  0  0  0  0  0  0  0
   12.8946    0.1728   23.4939 N   0  0  0  0  0  0  0  0  0  0  0  0
   11.6815   -0.3362   23.1573 C   0  0  0  0  0  0  0  0  0  0  0  0
   11.4629   -1.2111   22.2210 N   0  0  0  0  0  0  0  0  0  0  0  0
   10.1357   -1.5992   22.1857 N   0  0  0  0  0  0  0  0  0  0  0  0
    9.4213   -1.0237   23.0907 C   0  0  0  0  0  0  0  0  0  0  0  0
    7.9584   -1.2363   23.2364 C   0  0  0  0  0  0  0  0  0  0  0  0
    7.3225   -0.1979   22.3390 C   0  0  0  0  0  0  0  0  0  0  0  0
    6.8781    0.8524   22.7422 O   0  0  0  0  0  0  0  0  0  0  0  0
    7.3847   -0.5929   21.0196 N   0  0  0  0  0  0  0  0  0  0  0  0
    6.7247    0.0073   19.9251 C   0  0  0  0  0  0  0  0  0  0  0  0
    5.5132    0.6725   20.1497 C   0  0  0  0  0  0  0  0  0  0  0  0
    4.8725    1.2858   19.0705 C   0  0  0  0  0  0  0  0  0  0  0  0
    5.4788    1.2348   17.8085 C   0  0  0  0  0  0  0  0  0  0  0  0
    6.6306    0.5856   17.5665 N   0  0  0  0  0  0  0  0  0  0  0  0
    7.2295   -0.0232   18.6019 C   0  0  0  0  0  0  0  0  0  0  0  0
    8.1506   -0.5629   18.3785 H   0  0  0  0  0  0  0  0  0  0  0  0
    5.0277    1.7383   16.9589 H   0  0  0  0  0  0  0  0  0  0  0  0
    3.9277    1.8096   19.2046 H   0  0  0  0  0  0  0  0  0  0  0  0
    5.1013    0.7041   21.1564 H   0  0  0  0  0  0  0  0  0  0  0  0
    8.0632   -1.3220   20.8515 H   0  0  0  0  0  0  0  0  0  0  0  0
    7.6661   -2.2331   22.8933 H   0  0  0  0  0  0  0  0  0  0  0  0
    7.6338   -1.0672   24.2600 H   0  0  0  0  0  0  0  0  0  0  0  0
   10.2607    0.1748   24.0319 S   0  0  0  0  0  0  0  0  0  0  0  0
   12.8810    0.8684   24.2133 H   0  0  0  0  0  0  0  0  0  0  0  0
   13.9095    0.1169   21.6539 H   0  0  0  0  0  0  0  0  0  0  0  0
   14.4278   -1.0990   22.7998 H   0  0  0  0  0  0  0  0  0  0  0  0
   14.8863    0.6090   23.0550 H   0  0  0  0  0  0  0  0  0  0  0  0
  1  2  1  0
  2  3  1  0
  3  4  2  0
  4  5  1  0
  5  6  2  0
  6  7  1  0
  7  8  1  0
  8  9  2  0
  8 10  1  0
 10 11  1  0
 11 12  2  0
 12 13  1  0
 13 14  2  0
 14 15  1  0
 15 16  2  0
 16 17  1  0
 14 18  1  0
 13 19  1  0
 12 20  1  0
 10 21  1  0
  7 22  1  0
  7 23  1  0
  6 24  1  0
  2 25  1  0
  1 26  1  0
  1 27  1  0
  1 28  1  0
 24  3  1  0
 16 11  1  0
M  END
>  <plip>  (1) 
-0.06896551724137931

>  <filename>  (1) 
[H][c]1[n][c]([H])[c]([N]([H])[C](=[O])[C]([H])([H])[c]2[n][n][c]([N]([H])[C]([H])([H])[H])[s]2)[c]([H])[c]1[H]

$$$$
