
     RDKit          3D

 42 42  0  0  0  0  0  0  0  0999 V2000
    7.1259    0.9317   22.8132 C   0  0  0  0  0  0  0  0  0  0  0  0
    8.1534    0.2050   21.9409 C   0  0  0  0  0  0  0  0  0  0  0  0
    9.1097    1.1911   21.2683 C   0  0  0  0  0  0  0  0  0  0  0  0
    8.5691    1.8704   20.6005 H   0  0  0  0  0  0  0  0  0  0  0  0
    9.6299    1.8047   22.0101 H   0  0  0  0  0  0  0  0  0  0  0  0
    9.8752    0.6772   20.6779 H   0  0  0  0  0  0  0  0  0  0  0  0
    7.4873   -0.7461   20.8891 C   0  0  0  0  0  0  0  0  0  0  0  0
    6.5999   -1.8393   21.5466 C   0  0  0  0  0  0  0  0  0  0  0  0
    5.4271   -2.0145   21.2674 O   0  0  0  0  0  0  0  0  0  0  0  0
    7.2390   -2.6613   22.4455 N   0  0  0  0  0  0  0  0  0  0  0  0
    6.5624   -3.7595   23.1751 C   0  0  2  0  0  0  0  0  0  0  0  0
    7.0045   -4.1280   24.6676 C   0  0  0  0  0  0  0  0  0  0  0  0
    8.1583   -3.9033   25.0398 O   0  0  0  0  0  0  0  0  0  0  0  0
    6.0782   -4.7177   25.2856 O   0  0  0  0  0  1  0  0  0  0  0  0
    6.5926   -5.1392   22.4386 C   0  0  0  0  0  0  0  0  0  0  0  0
    8.0307   -5.6383   22.2679 C   0  0  0  0  0  0  0  0  0  0  0  0
    8.5899   -5.6223   23.2117 H   0  0  0  0  0  0  0  0  0  0  0  0
    7.9903   -6.6558   21.8818 H   0  0  0  0  0  0  0  0  0  0  0  0
    8.5479   -5.0049   21.5416 H   0  0  0  0  0  0  0  0  0  0  0  0
    5.9062   -5.0566   21.0767 C   0  0  0  0  0  0  0  0  0  0  0  0
    4.9013   -4.6501   21.1992 H   0  0  0  0  0  0  0  0  0  0  0  0
    5.8380   -6.0534   20.6322 H   0  0  0  0  0  0  0  0  0  0  0  0
    6.4480   -4.4055   20.3878 H   0  0  0  0  0  0  0  0  0  0  0  0
    5.8473   -6.0682   23.1824 O   0  0  0  0  0  0  0  0  0  0  0  0
    5.7723   -5.7184   24.1066 H   0  0  0  0  0  0  0  0  0  0  0  0
    5.5061   -3.4802   23.2500 H   0  0  0  0  0  0  0  0  0  0  0  0
    8.2019   -2.4402   22.6336 H   0  0  0  0  0  0  0  0  0  0  0  0
    6.7470   -0.0006   19.7751 C   0  0  0  0  0  0  0  0  0  0  0  0
    5.4853    0.5685   19.9882 C   0  0  0  0  0  0  0  0  0  0  0  0
    4.8899    1.2970   18.9538 C   0  0  0  0  0  0  0  0  0  0  0  0
    5.5535    1.3915   17.7244 C   0  0  0  0  0  0  0  0  0  0  0  0
    6.7419    0.8227   17.4777 N   0  0  0  0  0  0  0  0  0  0  0  0
    7.3073    0.1488   18.4903 C   0  0  0  0  0  0  0  0  0  0  0  0
    8.2616   -0.3244   18.2659 H   0  0  0  0  0  0  0  0  0  0  0  0
    5.1028    1.9362   16.8985 H   0  0  0  0  0  0  0  0  0  0  0  0
    3.9258    1.7732   19.0865 H   0  0  0  0  0  0  0  0  0  0  0  0
    4.9681    0.3930   20.9366 H   0  0  0  0  0  0  0  0  0  0  0  0
    8.3108   -1.2875   20.3999 H   0  0  0  0  0  0  0  0  0  0  0  0
    8.7660   -0.4263   22.6025 H   0  0  0  0  0  0  0  0  0  0  0  0
    7.6231    1.4769   23.6235 H   0  0  0  0  0  0  0  0  0  0  0  0
    6.4161    0.2310   23.2687 H   0  0  0  0  0  0  0  0  0  0  0  0
    6.5555    1.6603   22.2239 H   0  0  0  0  0  0  0  0  0  0  0  0
  1  2  1  0
  2  3  1  0
  3  4  1  0
  3  5  1  0
  3  6  1  0
  2  7  1  0
  7  8  1  0
  8  9  2  0
  8 10  1  0
 10 11  1  0
 11 12  1  0
 12 13  2  0
 12 14  1  0
 11 15  1  0
 15 16  1  0
 16 17  1  0
 16 18  1  0
 16 19  1  0
 15 20  1  0
 20 21  1  0
 20 22  1  0
 20 23  1  0
 15 24  1  0
 24 25  1  0
 11 26  1  1
 10 27  1  0
  7 28  1  0
 28 29  2  0
 29 30  1  0
 30 31  2  0
 31 32  1  0
 32 33  2  0
 33 34  1  0
 31 35  1  0
 30 36  1  0
 29 37  1  0
  7 38  1  0
  2 39  1  0
  1 40  1  0
  1 41  1  0
  1 42  1  0
 33 28  1  0
M  CHG  1  14  -1
M  END
>  <plip>  (1) 
-0.10344827586206896

>  <filename>  (1) 
[H][O][C]([C]([H])([H])[H])([C]([H])([H])[H])[C@@]([H])([C](=[O])[O-])[N]([H])[C](=[O])[C]([H])([c]1[c]([H])[n][c]([H])[c]([H])[c]1[H])[C]([H])([C]([H])([H])[H])[C]([H])([H])[H]

$$$$
