
     RDKit          3D

 41 42  0  0  0  0  0  0  0  0999 V2000
    5.8807    3.8113   21.9361 C   0  0  0  0  0  0  0  0  0  0  0  0
    7.4697    3.0416   21.5382 S   0  0  0  0  0  0  0  0  0  0  0  0
    8.4579    3.8198   22.7940 C   0  0  0  0  0  0  0  0  0  0  0  0
    9.0731    5.0580   22.5517 C   0  0  0  0  0  0  0  0  0  0  0  0
    9.7808    5.7124   23.5586 C   0  0  0  0  0  0  0  0  0  0  0  0
    9.7354    5.2030   24.8604 C   0  0  0  0  0  0  0  0  0  0  0  0
    9.0210    4.0327   25.1430 C   0  0  0  0  0  0  0  0  0  0  0  0
    8.7618    3.5983   26.5565 C   0  0  0  0  0  0  0  0  0  0  0  0
    7.6910    3.4641   26.7549 H   0  0  0  0  0  0  0  0  0  0  0  0
    9.2422    2.6331   26.7581 H   0  0  0  0  0  0  0  0  0  0  0  0
    9.1173    4.3731   27.2354 H   0  0  0  0  0  0  0  0  0  0  0  0
    8.5132    3.2584   24.0788 C   0  0  0  0  0  0  0  0  0  0  0  0
    8.0186    1.9575   24.3426 N   0  0  0  0  0  0  0  0  0  0  0  0
    8.3931    0.8301   23.6709 C   0  0  0  0  0  0  0  0  0  0  0  0
    9.2451    0.7600   22.8060 O   0  0  0  0  0  0  0  0  0  0  0  0
    7.6245   -0.2516   24.0782 N   0  0  0  0  0  0  0  0  0  0  0  0
    7.5648   -1.4901   23.2630 C   0  0  0  0  0  0  0  0  0  0  0  0
    6.8955   -1.4734   21.8500 C   0  0  0  0  0  0  0  0  0  0  0  0
    5.9911   -2.2285   21.5608 O   0  0  0  0  0  0  0  0  0  0  0  0
    7.4582   -0.5719   20.9645 N   0  0  0  0  0  0  0  0  0  0  0  0
    6.7286    0.0053   19.8749 C   0  0  0  0  0  0  0  0  0  0  0  0
    5.4911    0.6156   20.1136 C   0  0  0  0  0  0  0  0  0  0  0  0
    4.8496    1.2825   19.0635 C   0  0  0  0  0  0  0  0  0  0  0  0
    5.4552    1.2808   17.8032 C   0  0  0  0  0  0  0  0  0  0  0  0
    6.6239    0.6656   17.5459 N   0  0  0  0  0  0  0  0  0  0  0  0
    7.2450    0.0527   18.5646 C   0  0  0  0  0  0  0  0  0  0  0  0
    8.2007   -0.4260   18.3483 H   0  0  0  0  0  0  0  0  0  0  0  0
    4.9933    1.8026   16.9693 H   0  0  0  0  0  0  0  0  0  0  0  0
    3.9158    1.8240   19.2164 H   0  0  0  0  0  0  0  0  0  0  0  0
    5.0720    0.5714   21.1198 H   0  0  0  0  0  0  0  0  0  0  0  0
    8.1844    0.0208   21.3709 H   0  0  0  0  0  0  0  0  0  0  0  0
    7.0253   -2.2526   23.8313 H   0  0  0  0  0  0  0  0  0  0  0  0
    8.5963   -1.8302   23.1276 H   0  0  0  0  0  0  0  0  0  0  0  0
    6.7329    0.0632   24.4310 H   0  0  0  0  0  0  0  0  0  0  0  0
    7.5735    1.7854   25.2229 H   0  0  0  0  0  0  0  0  0  0  0  0
   10.2335    5.7313   25.6738 H   0  0  0  0  0  0  0  0  0  0  0  0
   10.3169    6.6345   23.3463 H   0  0  0  0  0  0  0  0  0  0  0  0
    8.9420    5.5355   21.5851 H   0  0  0  0  0  0  0  0  0  0  0  0
    5.5910    3.5406   22.9557 H   0  0  0  0  0  0  0  0  0  0  0  0
    5.9557    4.8997   21.8531 H   0  0  0  0  0  0  0  0  0  0  0  0
    5.1347    3.4455   21.2282 H   0  0  0  0  0  0  0  0  0  0  0  0
  1  2  1  0
  2  3  1  0
  3  4  2  0
  4  5  1  0
  5  6  2  0
  6  7  1  0
  7  8  1  0
  8  9  1  0
  8 10  1  0
  8 11  1  0
  7 12  2  0
 12 13  1  0
 13 14  1  0
 14 15  2  0
 14 16  1  0
 16 17  1  0
 17 18  1  0
 18 19  2  0
 18 20  1  0
 20 21  1  0
 21 22  2  0
 22 23  1  0
 23 24  2  0
 24 25  1  0
 25 26  2  0
 26 27  1  0
 24 28  1  0
 23 29  1  0
 22 30  1  0
 20 31  1  0
 17 32  1  0
 17 33  1  0
 16 34  1  0
 13 35  1  0
  6 36  1  0
  5 37  1  0
  4 38  1  0
  1 39  1  0
  1 40  1  0
  1 41  1  0
 12  3  1  0
 26 21  1  0
M  END
>  <plip>  (1) 
-0.14285714285714285

>  <filename>  (1) 
[H][c]1[n][c]([H])[c]([N]([H])[C](=[O])[C]([H])([H])[N]([H])[C](=[O])[N]([H])[c]2[c]([S][C]([H])([H])[H])[c]([H])[c]([H])[c]([H])[c]2[C]([H])([H])[H])[c]([H])[c]1[H]

$$$$
