
     RDKit          3D

 36 36  0  0  0  0  0  0  0  0999 V2000
    4.9224    1.8184   16.9886 H   0  0  0  0  0  0  0  0  0  0  0  0
    5.4027    1.3116   17.8252 C   0  0  0  0  0  0  0  0  0  0  0  0
    6.5702    0.7067   17.5498 N   0  0  0  0  0  0  0  0  0  0  0  0
    7.1837    0.0700   18.5535 C   0  0  0  0  0  0  0  0  0  0  0  0
    8.1366   -0.4101   18.3202 H   0  0  0  0  0  0  0  0  0  0  0  0
    6.6837   -0.0403   19.8749 C   0  0  0  0  0  0  0  0  0  0  0  0
    7.3773   -0.8017   20.8485 N   0  0  0  0  0  0  0  0  0  0  0  0
    8.7497   -0.4198   21.1602 C   0  0  0  0  0  0  0  0  0  0  0  0
    9.0883   -0.9557   22.0513 H   0  0  0  0  0  0  0  0  0  0  0  0
    8.8222    0.6610   21.3584 H   0  0  0  0  0  0  0  0  0  0  0  0
    9.4571   -0.6675   20.3494 H   0  0  0  0  0  0  0  0  0  0  0  0
    6.6461   -1.6226   21.8154 C   0  0  1  0  0  0  0  0  0  0  0  0
    5.6052   -1.6977   21.4364 H   0  0  0  0  0  0  0  0  0  0  0  0
    7.3213   -2.9051   21.7951 N   0  0  0  0  0  0  0  0  0  0  0  0
    7.7369   -2.9126   20.8705 H   0  0  0  0  0  0  0  0  0  0  0  0
    6.5123   -4.0728   22.1174 C   0  0  0  0  0  0  0  0  0  0  0  0
    5.9620   -3.8871   23.0544 H   0  0  0  0  0  0  0  0  0  0  0  0
    5.7463   -4.2815   21.3493 H   0  0  0  0  0  0  0  0  0  0  0  0
    7.3640   -5.3260   22.3139 C   0  0  0  0  0  0  0  0  0  0  0  0
    6.6781   -6.1589   22.5441 H   0  0  0  0  0  0  0  0  0  0  0  0
    7.8439   -5.5790   21.3578 H   0  0  0  0  0  0  0  0  0  0  0  0
    8.4325   -5.2275   23.4136 C   0  0  0  0  0  0  0  0  0  0  0  0
    9.1299   -4.4159   23.1646 H   0  0  0  0  0  0  0  0  0  0  0  0
    9.0120   -6.1576   23.4002 H   0  0  0  0  0  0  0  0  0  0  0  0
    7.8719   -5.0100   24.8234 C   0  0  0  0  0  0  0  0  0  0  0  0
    7.1316   -5.7766   25.0875 H   0  0  0  0  0  0  0  0  0  0  0  0
    8.6667   -5.0499   25.5767 H   0  0  0  0  0  0  0  0  0  0  0  0
    7.3878   -4.0306   24.9242 H   0  0  0  0  0  0  0  0  0  0  0  0
    6.6143   -1.0904   23.2429 C   0  0  0  0  0  0  0  0  0  0  0  0
    7.6168   -1.0739   23.6813 H   0  0  0  0  0  0  0  0  0  0  0  0
    6.1811   -0.0884   23.2782 H   0  0  0  0  0  0  0  0  0  0  0  0
    5.9922   -1.7501   23.8571 H   0  0  0  0  0  0  0  0  0  0  0  0
    5.4604    0.6190   20.1325 C   0  0  0  0  0  0  0  0  0  0  0  0
    5.0389    0.5979   21.1370 H   0  0  0  0  0  0  0  0  0  0  0  0
    4.8153    1.3052   19.0937 C   0  0  0  0  0  0  0  0  0  0  0  0
    3.8751    1.8294   19.2561 H   0  0  0  0  0  0  0  0  0  0  0  0
  1  2  1  0
  2  3  2  0
  3  4  1  0
  4  5  1  0
  4  6  2  0
  6  7  1  0
  7  8  1  0
  8  9  1  0
  8 10  1  0
  8 11  1  0
  7 12  1  0
 12 13  1  6
 12 14  1  0
 14 15  1  0
 14 16  1  0
 16 17  1  0
 16 18  1  0
 16 19  1  0
 19 20  1  0
 19 21  1  0
 19 22  1  0
 22 23  1  0
 22 24  1  0
 22 25  1  0
 25 26  1  0
 25 27  1  0
 25 28  1  0
 12 29  1  0
 29 30  1  0
 29 31  1  0
 29 32  1  0
  6 33  1  0
 33 34  1  0
 33 35  2  0
 35 36  1  0
 35  2  1  0
M  END
>  <plip>  (1) 
-0.06896551724137931

>  <filename>  (1) 
[H][c]1[n][c]([H])[c]([N]([C]([H])([H])[H])[C@@]([H])([N]([H])[C]([H])([H])[C]([H])([H])[C]([H])([H])[C]([H])([H])[H])[C]([H])([H])[H])[c]([H])[c]1[H]

$$$$
