
     RDKit          3D

 29 31  0  0  0  0  0  0  0  0999 V2000
    4.9270    1.7979   16.9831 H   0  0  0  0  0  0  0  0  0  0  0  0
    5.3918    1.2967   17.8305 C   0  0  0  0  0  0  0  0  0  0  0  0
    6.5517    0.6679   17.5818 N   0  0  0  0  0  0  0  0  0  0  0  0
    7.1665    0.0561   18.5999 C   0  0  0  0  0  0  0  0  0  0  0  0
    8.1166   -0.4227   18.3638 H   0  0  0  0  0  0  0  0  0  0  0  0
    6.6638    0.0415   19.9176 C   0  0  0  0  0  0  0  0  0  0  0  0
    7.3567   -0.6366   20.9683 N   0  0  0  0  0  0  0  0  0  0  0  0
    7.7923   -0.2149   22.2123 C   0  0  0  0  0  0  0  0  0  0  0  0
    7.6089    1.0623   22.6490 N   0  0  0  0  0  0  0  0  0  0  0  0
    7.0375    1.6551   22.0798 H   0  0  0  0  0  0  0  0  0  0  0  0
    8.1447    1.5964   23.8037 C   0  0  0  0  0  0  0  0  0  0  0  0
    7.4076    2.5366   24.5159 C   0  0  0  0  0  0  0  0  0  0  0  0
    6.4244    2.8461   24.1831 H   0  0  0  0  0  0  0  0  0  0  0  0
    7.9616    3.0204   25.6942 C   0  0  0  0  0  0  0  0  0  0  0  0
    7.4158    3.7345   26.3115 H   0  0  0  0  0  0  0  0  0  0  0  0
    9.1666    2.6617   26.1532 N   0  0  0  0  0  0  0  0  0  0  0  0
    9.8678    1.7763   25.4296 C   0  0  0  0  0  0  0  0  0  0  0  0
   10.8428    1.4933   25.8309 H   0  0  0  0  0  0  0  0  0  0  0  0
    9.4115    1.2188   24.2466 C   0  0  0  0  0  0  0  0  0  0  0  0
    9.9800    0.4931   23.6792 H   0  0  0  0  0  0  0  0  0  0  0  0
    8.3755   -1.1730   22.8852 N   0  0  0  0  0  0  0  0  0  0  0  0
    8.3010   -2.2798   22.0802 C   0  0  0  0  0  0  0  0  0  0  0  0
    8.7146   -3.2263   22.4047 H   0  0  0  0  0  0  0  0  0  0  0  0
    7.6744   -1.9809   20.9113 C   0  0  0  0  0  0  0  0  0  0  0  0
    7.3067   -2.5719   20.0967 H   0  0  0  0  0  0  0  0  0  0  0  0
    5.4381    0.6726   20.1592 C   0  0  0  0  0  0  0  0  0  0  0  0
    5.0096    0.6286   21.1599 H   0  0  0  0  0  0  0  0  0  0  0  0
    4.7968    1.3176   19.0951 C   0  0  0  0  0  0  0  0  0  0  0  0
    3.8640    1.8475   19.2428 H   0  0  0  0  0  0  0  0  0  0  0  0
  1  2  1  0
  2  3  2  0
  3  4  1  0
  4  5  1  0
  4  6  2  0
  6  7  1  0
  7  8  1  0
  8  9  1  0
  9 10  1  0
  9 11  1  0
 11 12  2  0
 12 13  1  0
 12 14  1  0
 14 15  1  0
 14 16  2  0
 16 17  1  0
 17 18  1  0
 17 19  2  0
 19 20  1  0
  8 21  2  0
 21 22  1  0
 22 23  1  0
 22 24  2  0
 24 25  1  0
  6 26  1  0
 26 27  1  0
 26 28  2  0
 28 29  1  0
 28  2  1  0
 24  7  1  0
 19 11  1  0
M  END
>  <plip>  (1) 
-0.03571428571428571

>  <filename>  (1) 
[H][c]1[n][c]([H])[c](-[n]2[c]([N]([H])[c]3[c]([H])[c]([H])[n][c]([H])[c]3[H])[n][c]([H])[c]2[H])[c]([H])[c]1[H]

$$$$
