
     RDKit          3D

 40 42  0  0  0  0  0  0  0  0999 V2000
   11.2336    6.5765   27.2715 C   0  0  0  0  0  0  0  0  0  0  0  0
   10.7773    7.0775   25.8898 C   0  0  0  0  0  0  0  0  0  0  0  0
    9.5596    8.0117   26.0112 C   0  0  0  0  0  0  0  0  0  0  0  0
    8.6730    7.4914   26.3948 H   0  0  0  0  0  0  0  0  0  0  0  0
    9.7837    8.8454   26.6902 H   0  0  0  0  0  0  0  0  0  0  0  0
    9.2949    8.4370   25.0374 H   0  0  0  0  0  0  0  0  0  0  0  0
   10.5505    5.9394   24.9003 C   0  0  0  0  0  0  0  0  0  0  0  0
   11.3954    5.8453   23.7619 C   0  0  0  0  0  0  0  0  0  0  0  0
   11.2404    4.8427   22.8030 C   0  0  0  0  0  0  0  0  0  0  0  0
   10.2115    3.9256   23.0165 C   0  0  0  0  0  0  0  0  0  0  0  0
    9.7401    2.8551   22.2824 N   0  0  0  0  0  0  0  0  0  0  0  0
    8.7030    2.3439   22.9922 C   0  0  0  0  0  0  0  0  0  0  0  0
    7.9955    1.2523   22.5383 N   0  0  0  0  0  0  0  0  0  0  0  0
    8.4581    0.3939   21.5925 C   0  0  0  0  0  0  0  0  0  0  0  0
    9.5995    0.4580   21.1658 O   0  0  0  0  0  0  0  0  0  0  0  0
    7.4352   -0.5984   21.0500 C   0  0  0  0  0  0  0  0  0  0  0  0
    6.6330   -0.0038   19.8911 C   0  0  0  0  0  0  0  0  0  0  0  0
    5.4191    0.6553   20.1233 C   0  0  0  0  0  0  0  0  0  0  0  0
    4.7897    1.3148   19.0659 C   0  0  0  0  0  0  0  0  0  0  0  0
    5.3928    1.2939   17.8079 C   0  0  0  0  0  0  0  0  0  0  0  0
    6.5399    0.6482   17.5472 N   0  0  0  0  0  0  0  0  0  0  0  0
    7.1336    0.0207   18.5711 C   0  0  0  0  0  0  0  0  0  0  0  0
    8.0802   -0.4750   18.3441 H   0  0  0  0  0  0  0  0  0  0  0  0
    4.9356    1.8220   16.9739 H   0  0  0  0  0  0  0  0  0  0  0  0
    3.8627    1.8561   19.2104 H   0  0  0  0  0  0  0  0  0  0  0  0
    4.9717    0.6671   21.1194 H   0  0  0  0  0  0  0  0  0  0  0  0
    8.0119   -1.4714   20.7314 H   0  0  0  0  0  0  0  0  0  0  0  0
    6.7773   -0.8963   21.8762 H   0  0  0  0  0  0  0  0  0  0  0  0
    7.1264    1.1100   23.0153 H   0  0  0  0  0  0  0  0  0  0  0  0
    8.4001    2.9664   24.0846 N   0  0  0  0  0  0  0  0  0  0  0  0
    9.3498    3.9832   24.1369 C   0  0  0  0  0  0  0  0  0  0  0  0
    9.5292    4.9904   25.0878 C   0  0  0  0  0  0  0  0  0  0  0  0
    8.8503    4.9861   25.9361 H   0  0  0  0  0  0  0  0  0  0  0  0
   10.1767    2.2774   21.5768 H   0  0  0  0  0  0  0  0  0  0  0  0
   11.8762    4.7908   21.9227 H   0  0  0  0  0  0  0  0  0  0  0  0
   12.1895    6.5827   23.6407 H   0  0  0  0  0  0  0  0  0  0  0  0
   11.5917    7.6957   25.4892 H   0  0  0  0  0  0  0  0  0  0  0  0
   11.3290    7.4254   27.9599 H   0  0  0  0  0  0  0  0  0  0  0  0
   10.5216    5.8596   27.7019 H   0  0  0  0  0  0  0  0  0  0  0  0
   12.2120    6.0846   27.2192 H   0  0  0  0  0  0  0  0  0  0  0  0
  1  2  1  0
  2  3  1  0
  3  4  1  0
  3  5  1  0
  3  6  1  0
  2  7  1  0
  7  8  2  0
  8  9  1  0
  9 10  2  0
 10 11  1  0
 11 12  1  0
 12 13  1  0
 13 14  1  0
 14 15  2  0
 14 16  1  0
 16 17  1  0
 17 18  2  0
 18 19  1  0
 19 20  2  0
 20 21  1  0
 21 22  2  0
 22 23  1  0
 20 24  1  0
 19 25  1  0
 18 26  1  0
 16 27  1  0
 16 28  1  0
 13 29  1  0
 12 30  2  0
 30 31  1  0
 31 32  2  0
 32 33  1  0
 11 34  1  0
  9 35  1  0
  8 36  1  0
  2 37  1  0
  1 38  1  0
  1 39  1  0
  1 40  1  0
 32  7  1  0
 31 10  1  0
 22 17  1  0
M  END
>  <plip>  (1) 
-0.14285714285714285

>  <filename>  (1) 
[H][c]1[n][c]([H])[c]([C]([H])([H])[C](=[O])[N]([H])[c]2[n][c]3[c]([H])[c]([C]([H])([C]([H])([H])[H])[C]([H])([H])[H])[c]([H])[c]([H])[c]3[n]2[H])[c]([H])[c]1[H]

$$$$
