
     RDKit          3D

 31 33  0  0  0  0  0  0  0  0999 V2000
    4.9240    1.8096   16.9605 H   0  0  0  0  0  0  0  0  0  0  0  0
    5.3878    1.3066   17.8054 C   0  0  0  0  0  0  0  0  0  0  0  0
    6.5471    0.6732   17.5575 N   0  0  0  0  0  0  0  0  0  0  0  0
    7.1502    0.0617   18.5872 C   0  0  0  0  0  0  0  0  0  0  0  0
    8.0938   -0.4294   18.3438 H   0  0  0  0  0  0  0  0  0  0  0  0
    6.6475    0.0330   19.9074 C   0  0  0  0  0  0  0  0  0  0  0  0
    7.3288   -0.7023   20.9910 C   0  0  0  0  0  0  0  0  0  0  0  0
    7.6294   -0.2235   22.2157 C   0  0  0  0  0  0  0  0  0  0  0  0
    7.4272    1.1829   22.6484 C   0  0  1  0  0  0  0  0  0  0  0  0
    6.4000    1.4092   22.9466 H   0  0  0  0  0  0  0  0  0  0  0  0
    8.4860    1.9441   23.4091 C   0  0  0  0  0  0  0  0  0  0  0  0
    9.4494    1.4441   23.5199 H   0  0  0  0  0  0  0  0  0  0  0  0
    8.1906    2.5702   24.2439 H   0  0  0  0  0  0  0  0  0  0  0  0
    8.1405    2.3492   22.0055 C   0  0  1  0  0  0  0  0  0  0  0  0
    7.5122    3.2377   21.8672 H   0  0  0  0  0  0  0  0  0  0  0  0
    9.1212    2.0449   20.9996 N   0  0  0  0  0  0  0  0  0  0  0  0
    9.8818    2.7183   21.0229 H   0  0  0  0  0  0  0  0  0  0  0  0
    8.6807    2.1041   20.0852 H   0  0  0  0  0  0  0  0  0  0  0  0
    8.3426   -1.2530   23.0707 C   0  0  0  0  0  0  0  0  0  0  0  0
    9.3686   -0.9010   23.2487 H   0  0  0  0  0  0  0  0  0  0  0  0
    7.8813   -1.3567   24.0623 H   0  0  0  0  0  0  0  0  0  0  0  0
    8.3050   -2.5555   22.2237 C   0  0  0  0  0  0  0  0  0  0  0  0
    7.5869   -3.2726   22.6406 H   0  0  0  0  0  0  0  0  0  0  0  0
    9.2735   -3.0698   22.1968 H   0  0  0  0  0  0  0  0  0  0  0  0
    7.8744   -2.0991   20.8076 C   0  0  0  0  0  0  0  0  0  0  0  0
    8.7443   -2.0302   20.1407 H   0  0  0  0  0  0  0  0  0  0  0  0
    7.1264   -2.7562   20.3459 H   0  0  0  0  0  0  0  0  0  0  0  0
    5.4286    0.6972   20.1327 C   0  0  0  0  0  0  0  0  0  0  0  0
    4.9803    0.6719   21.1243 H   0  0  0  0  0  0  0  0  0  0  0  0
    4.7933    1.3376   19.0698 C   0  0  0  0  0  0  0  0  0  0  0  0
    3.8538    1.8549   19.2161 H   0  0  0  0  0  0  0  0  0  0  0  0
  1  2  1  0
  2  3  2  0
  3  4  1  0
  4  5  1  0
  4  6  2  0
  6  7  1  0
  7  8  2  0
  8  9  1  0
  9 10  1  1
  9 11  1  0
 11 12  1  0
 11 13  1  0
 11 14  1  0
 14 15  1  1
 14 16  1  0
 16 17  1  0
 16 18  1  0
  8 19  1  0
 19 20  1  0
 19 21  1  0
 19 22  1  0
 22 23  1  0
 22 24  1  0
 22 25  1  0
 25 26  1  0
 25 27  1  0
  6 28  1  0
 28 29  1  0
 28 30  2  0
 30 31  1  0
 30  2  1  0
 25  7  1  0
 14  9  1  0
M  END
>  <plip>  (1) 
-0.10714285714285714

>  <filename>  (1) 
[H][c]1[n][c]([H])[c]([C]2=[C]([C@@]3([H])[C]([H])([H])[C@@]3([H])[N]([H])[H])[C]([H])([H])[C]([H])([H])[C]2([H])[H])[c]([H])[c]1[H]

$$$$
