
     RDKit          3D

 39 40  0  0  0  0  0  0  0  0999 V2000
    3.1045    3.4748   26.6801 C   0  0  0  0  0  0  0  0  0  0  0  0
    4.1993    3.4581   25.6414 C   0  0  0  0  0  0  0  0  0  0  0  0
    3.8879    3.1613   24.3079 C   0  0  0  0  0  0  0  0  0  0  0  0
    4.8805    3.1680   23.3240 C   0  0  0  0  0  0  0  0  0  0  0  0
    6.2096    3.4701   23.6302 C   0  0  0  0  0  0  0  0  0  0  0  0
    7.1667    3.6456   22.5805 N   0  0  0  0  0  0  0  0  0  0  0  0
    6.9389    4.7818   21.6714 C   0  0  0  0  0  0  0  0  0  0  0  0
    6.3170    4.4963   20.8067 H   0  0  0  0  0  0  0  0  0  0  0  0
    6.4154    5.5833   22.2011 H   0  0  0  0  0  0  0  0  0  0  0  0
    7.9026    5.1506   21.3113 H   0  0  0  0  0  0  0  0  0  0  0  0
    8.0099    2.6424   22.0879 C   0  0  0  0  0  0  0  0  0  0  0  0
    8.8681    2.8624   21.2514 O   0  0  0  0  0  0  0  0  0  0  0  0
    7.8084    1.3707   22.5798 N   0  0  0  0  0  0  0  0  0  0  0  0
    8.3727    0.1996   21.9171 C   0  0  0  0  0  0  0  0  0  0  0  0
    7.4018   -0.6451   21.0538 C   0  0  0  0  0  0  0  0  0  0  0  0
    6.4907   -1.2208   21.9025 F   0  0  0  0  0  0  0  0  0  0  0  0
    8.1556   -1.6714   20.5468 F   0  0  0  0  0  0  0  0  0  0  0  0
    6.6521    0.0349   19.9282 C   0  0  0  0  0  0  0  0  0  0  0  0
    5.4513    0.7270   20.1533 C   0  0  0  0  0  0  0  0  0  0  0  0
    4.8486    1.3769   19.0761 C   0  0  0  0  0  0  0  0  0  0  0  0
    5.4628    1.2995   17.8218 C   0  0  0  0  0  0  0  0  0  0  0  0
    6.5908    0.6165   17.5836 N   0  0  0  0  0  0  0  0  0  0  0  0
    7.1636   -0.0009   18.6225 C   0  0  0  0  0  0  0  0  0  0  0  0
    8.0751   -0.5510   18.4014 H   0  0  0  0  0  0  0  0  0  0  0  0
    5.0133    1.7939   16.9659 H   0  0  0  0  0  0  0  0  0  0  0  0
    3.9226    1.9325   19.1911 H   0  0  0  0  0  0  0  0  0  0  0  0
    4.9998    0.7474   21.1472 H   0  0  0  0  0  0  0  0  0  0  0  0
    8.7761   -0.4971   22.6646 H   0  0  0  0  0  0  0  0  0  0  0  0
    9.1918    0.5382   21.2750 H   0  0  0  0  0  0  0  0  0  0  0  0
    7.0045    1.2689   23.1757 H   0  0  0  0  0  0  0  0  0  0  0  0
    6.5235    3.6693   24.9871 C   0  0  0  0  0  0  0  0  0  0  0  0
    7.7967    3.8705   25.3494 F   0  0  0  0  0  0  0  0  0  0  0  0
    5.5410    3.6780   25.9786 C   0  0  0  0  0  0  0  0  0  0  0  0
    5.8529    3.8587   27.0031 H   0  0  0  0  0  0  0  0  0  0  0  0
    4.6277    2.9619   22.2855 H   0  0  0  0  0  0  0  0  0  0  0  0
    2.8575    2.9376   24.0560 H   0  0  0  0  0  0  0  0  0  0  0  0
    3.3305    4.1250   27.5286 H   0  0  0  0  0  0  0  0  0  0  0  0
    2.9271    2.4709   27.0768 H   0  0  0  0  0  0  0  0  0  0  0  0
    2.1550    3.8162   26.2592 H   0  0  0  0  0  0  0  0  0  0  0  0
  1  2  1  0
  2  3  2  0
  3  4  1  0
  4  5  2  0
  5  6  1  0
  6  7  1  0
  7  8  1  0
  7  9  1  0
  7 10  1  0
  6 11  1  0
 11 12  2  0
 11 13  1  0
 13 14  1  0
 14 15  1  0
 15 16  1  0
 15 17  1  0
 15 18  1  0
 18 19  2  0
 19 20  1  0
 20 21  2  0
 21 22  1  0
 22 23  2  0
 23 24  1  0
 21 25  1  0
 20 26  1  0
 19 27  1  0
 14 28  1  0
 14 29  1  0
 13 30  1  0
  5 31  1  0
 31 32  1  0
 31 33  2  0
 33 34  1  0
  4 35  1  0
  3 36  1  0
  1 37  1  0
  1 38  1  0
  1 39  1  0
 33  2  1  0
 23 18  1  0
M  END
>  <plip>  (1) 
-0.06666666666666667

>  <filename>  (1) 
[H][c]1[n][c]([H])[c]([C]([F])([F])[C]([H])([H])[N]([H])[C](=[O])[N]([c]2[c]([H])[c]([H])[c]([C]([H])([H])[H])[c]([H])[c]2[F])[C]([H])([H])[H])[c]([H])[c]1[H]

$$$$
