
     RDKit          3D

 43 44  0  0  0  0  0  0  0  0999 V2000
    5.6470   -4.0671   20.9467 C   0  0  0  0  0  0  0  0  0  0  0  0
    6.3449   -2.9520   20.4445 O   0  0  0  0  0  0  0  0  0  0  0  0
    6.6266   -1.9986   21.4439 C   0  0  0  0  0  0  0  0  0  0  0  0
    7.4369   -0.8220   20.8570 C   0  0  2  0  0  0  0  0  0  0  0  0
    7.8763    0.0881   21.9107 N   0  0  0  0  0  0  0  0  0  0  0  0
    8.7906   -0.2276   22.8668 C   0  0  0  0  0  0  0  0  0  0  0  0
    9.4743   -1.2343   22.8330 O   0  0  0  0  0  0  0  0  0  0  0  0
    8.8305    0.7561   23.9578 C   0  0  0  0  0  0  0  0  0  0  0  0
    8.8287    1.5180   24.9004 C   0  0  0  0  0  0  0  0  0  0  0  0
    8.9290    2.4519   26.0351 C   0  0  0  0  0  0  0  0  0  0  0  0
    8.6735    3.9276   25.6501 C   0  0  0  0  0  0  0  0  0  0  0  0
    8.9192    4.9102   26.7797 C   0  0  0  0  0  0  0  0  0  0  0  0
   10.1246    5.6254   26.8447 C   0  0  0  0  0  0  0  0  0  0  0  0
   10.4125    6.4666   27.9257 C   0  0  0  0  0  0  0  0  0  0  0  0
    9.4803    6.6226   28.9559 C   0  0  0  0  0  0  0  0  0  0  0  0
    8.2532    5.9539   28.8815 C   0  0  0  0  0  0  0  0  0  0  0  0
    7.9744    5.1059   27.8019 C   0  0  0  0  0  0  0  0  0  0  0  0
    7.0201    4.5835   27.7479 H   0  0  0  0  0  0  0  0  0  0  0  0
    7.5160    6.0776   29.6701 H   0  0  0  0  0  0  0  0  0  0  0  0
    9.7147    7.2428   29.8185 H   0  0  0  0  0  0  0  0  0  0  0  0
   11.3665    6.9851   27.9628 H   0  0  0  0  0  0  0  0  0  0  0  0
   10.8415    5.5054   26.0350 H   0  0  0  0  0  0  0  0  0  0  0  0
    7.6379    4.0022   25.2968 H   0  0  0  0  0  0  0  0  0  0  0  0
    9.3128    4.1788   24.7948 H   0  0  0  0  0  0  0  0  0  0  0  0
    9.9343    2.3400   26.4483 H   0  0  0  0  0  0  0  0  0  0  0  0
    8.2287    2.1678   26.8292 H   0  0  0  0  0  0  0  0  0  0  0  0
    7.4249    0.9810   21.9954 H   0  0  0  0  0  0  0  0  0  0  0  0
    6.6850   -0.0145   19.8107 C   0  0  0  0  0  0  0  0  0  0  0  0
    5.4769    0.6550   20.0710 C   0  0  0  0  0  0  0  0  0  0  0  0
    4.8474    1.3549   19.0349 C   0  0  0  0  0  0  0  0  0  0  0  0
    5.4445    1.3604   17.7676 C   0  0  0  0  0  0  0  0  0  0  0  0
    6.5937    0.7269   17.4936 N   0  0  0  0  0  0  0  0  0  0  0  0
    7.1844    0.0706   18.5024 C   0  0  0  0  0  0  0  0  0  0  0  0
    8.1263   -0.4144   18.2471 H   0  0  0  0  0  0  0  0  0  0  0  0
    4.9820    1.8925   16.9353 H   0  0  0  0  0  0  0  0  0  0  0  0
    3.9139    1.8898   19.1884 H   0  0  0  0  0  0  0  0  0  0  0  0
    5.0229    0.6331   21.0659 H   0  0  0  0  0  0  0  0  0  0  0  0
    8.3216   -1.2770   20.4004 H   0  0  0  0  0  0  0  0  0  0  0  0
    5.7009   -1.6104   21.8898 H   0  0  0  0  0  0  0  0  0  0  0  0
    7.2292   -2.4387   22.2521 H   0  0  0  0  0  0  0  0  0  0  0  0
    4.6838   -3.7796   21.4018 H   0  0  0  0  0  0  0  0  0  0  0  0
    5.4561   -4.7300   20.0991 H   0  0  0  0  0  0  0  0  0  0  0  0
    6.2250   -4.6177   21.7082 H   0  0  0  0  0  0  0  0  0  0  0  0
  1  2  1  0
  2  3  1  0
  3  4  1  0
  4  5  1  0
  5  6  1  0
  6  7  2  0
  6  8  1  0
  8  9  3  0
  9 10  1  0
 10 11  1  0
 11 12  1  0
 12 13  2  0
 13 14  1  0
 14 15  2  0
 15 16  1  0
 16 17  2  0
 17 18  1  0
 16 19  1  0
 15 20  1  0
 14 21  1  0
 13 22  1  0
 11 23  1  0
 11 24  1  0
 10 25  1  0
 10 26  1  0
  5 27  1  0
  4 28  1  0
 28 29  2  0
 29 30  1  0
 30 31  2  0
 31 32  1  0
 32 33  2  0
 33 34  1  0
 31 35  1  0
 30 36  1  0
 29 37  1  0
  4 38  1  6
  3 39  1  0
  3 40  1  0
  1 41  1  0
  1 42  1  0
  1 43  1  0
 17 12  1  0
 33 28  1  0
M  END
>  <plip>  (1) 
-0.10714285714285714

>  <filename>  (1) 
[H][c]1[n][c]([H])[c]([C@@]([H])([N]([H])[C](=[O])[C]#[C][C]([H])([H])[C]([H])([H])[c]2[c]([H])[c]([H])[c]([H])[c]([H])[c]2[H])[C]([H])([H])[O][C]([H])([H])[H])[c]([H])[c]1[H]

$$$$
