
     RDKit          3D

 26 27  0  0  0  0  0  0  0  0999 V2000
    5.6627   -1.6388   21.6957 H   0  0  0  0  0  0  0  0  0  0  0  0
    6.7296   -1.5206   21.8582 C   0  0  0  0  0  0  0  0  0  0  0  0
    7.4011   -0.6961   20.9753 C   0  0  0  0  0  0  0  0  0  0  0  0
    9.3048   -0.4658   21.0549 Br  0  0  0  0  0  0  0  0  0  0  0  0
    6.6671    0.0020   19.9053 C   0  0  0  0  0  0  0  0  0  0  0  0
    7.1906    0.0666   18.5984 C   0  0  0  0  0  0  0  0  0  0  0  0
    8.1326   -0.4328   18.3974 H   0  0  0  0  0  0  0  0  0  0  0  0
    6.5702    0.6808   17.5731 N   0  0  0  0  0  0  0  0  0  0  0  0
    5.3996    1.2945   17.8286 C   0  0  0  0  0  0  0  0  0  0  0  0
    4.8880    1.7933   17.0127 H   0  0  0  0  0  0  0  0  0  0  0  0
    4.8159    1.3013   19.1036 C   0  0  0  0  0  0  0  0  0  0  0  0
    3.8819    1.8335   19.2613 H   0  0  0  0  0  0  0  0  0  0  0  0
    5.4437    0.6338   20.1597 C   0  0  0  0  0  0  0  0  0  0  0  0
    5.0108    0.6292   21.1621 H   0  0  0  0  0  0  0  0  0  0  0  0
    7.3598   -2.2056   22.9024 N   0  0  0  0  0  0  0  0  0  0  0  0
    8.2652   -1.8621   23.2121 H   0  0  0  0  0  0  0  0  0  0  0  0
    6.7692   -3.2049   23.6507 C   0  0  0  0  0  0  0  0  0  0  0  0
    7.2216   -3.4716   24.9276 C   0  0  0  0  0  0  0  0  0  0  0  0
    8.0230   -2.8936   25.3654 H   0  0  0  0  0  0  0  0  0  0  0  0
    6.6194   -4.4856   25.6629 C   0  0  0  0  0  0  0  0  0  0  0  0
    6.9632   -4.6905   26.6703 H   0  0  0  0  0  0  0  0  0  0  0  0
    5.6208   -5.2298   25.1740 N   0  0  0  0  0  0  0  0  0  0  0  0
    5.1950   -4.9804   23.9320 C   0  0  0  0  0  0  0  0  0  0  0  0
    4.3941   -5.5896   23.5303 H   0  0  0  0  0  0  0  0  0  0  0  0
    5.7454   -3.9813   23.1449 C   0  0  0  0  0  0  0  0  0  0  0  0
    5.3865   -3.8233   22.1407 H   0  0  0  0  0  0  0  0  0  0  0  0
  1  2  1  0
  2  3  2  3
  3  4  1  0
  3  5  1  0
  5  6  2  0
  6  7  1  0
  6  8  1  0
  8  9  2  0
  9 10  1  0
  9 11  1  0
 11 12  1  0
 11 13  2  0
 13 14  1  0
  2 15  1  0
 15 16  1  0
 15 17  1  0
 17 18  2  0
 18 19  1  0
 18 20  1  0
 20 21  1  0
 20 22  2  0
 22 23  1  0
 23 24  1  0
 23 25  2  0
 25 26  1  0
 13  5  1  0
 25 17  1  0
M  END
>  <plip>  (1) 
-0.03571428571428571

>  <filename>  (1) 
[H][C](=[C]([Br])[c]1[c]([H])[n][c]([H])[c]([H])[c]1[H])[N]([H])[c]1[c]([H])[c]([H])[n][c]([H])[c]1[H]

$$$$
