
     RDKit          3D

 49 52  0  0  0  0  0  0  0  0999 V2000
    7.3938    8.2447   24.2427 C   0  0  0  0  0  0  0  0  0  0  0  0
    7.3490    6.8921   24.8745 C   0  0  0  0  0  0  0  0  0  0  0  0
    7.3658    6.6540   26.2275 C   0  0  0  0  0  0  0  0  0  0  0  0
    7.4255    5.3099   26.7419 C   0  0  0  0  0  0  0  0  0  0  0  0
    7.4721    4.2435   25.8856 C   0  0  0  0  0  0  0  0  0  0  0  0
    7.4161    4.4707   24.5138 N   0  0  0  0  0  0  0  0  0  0  0  0
    7.3887    3.6306   23.4032 C   0  0  0  0  0  0  0  0  0  0  0  0
    7.4826    2.2356   23.4576 N   0  0  0  0  0  0  0  0  0  0  0  0
    7.8293    1.4726   22.3430 C   0  0  0  0  0  0  0  0  0  0  0  0
    8.4924    1.9038   21.4181 O   0  0  0  0  0  0  0  0  0  0  0  0
    7.2923    0.1974   22.4048 N   0  0  0  0  0  0  0  0  0  0  0  0
    7.2976   -0.5156   23.7044 C   0  0  0  0  0  0  0  0  0  0  0  0
    7.3942   -2.0418   23.6204 C   0  0  0  0  0  0  0  0  0  0  0  0
    8.6851   -2.6193   22.9803 C   0  0  0  0  0  0  0  0  0  0  0  0
    9.4980   -1.6818   22.0598 C   0  0  0  0  0  0  0  0  0  0  0  0
    8.7607   -1.0769   20.8538 C   0  0  0  0  0  0  0  0  0  0  0  0
    7.3223   -0.5966   21.1476 C   0  0  0  0  0  0  0  0  0  0  0  0
    6.6394    0.1006   19.9728 C   0  0  0  0  0  0  0  0  0  0  0  0
    5.3852    0.7156   20.1226 C   0  0  0  0  0  0  0  0  0  0  0  0
    4.7956    1.3256   19.0117 C   0  0  0  0  0  0  0  0  0  0  0  0
    5.4659    1.2903   17.7830 C   0  0  0  0  0  0  0  0  0  0  0  0
    6.6503    0.6938   17.6116 N   0  0  0  0  0  0  0  0  0  0  0  0
    7.2095    0.1305   18.6930 C   0  0  0  0  0  0  0  0  0  0  0  0
    8.1751   -0.3385   18.5138 H   0  0  0  0  0  0  0  0  0  0  0  0
    5.0232    1.7399   16.8953 H   0  0  0  0  0  0  0  0  0  0  0  0
    3.8356    1.8240   19.0812 H   0  0  0  0  0  0  0  0  0  0  0  0
    4.8895    0.7328   21.0969 H   0  0  0  0  0  0  0  0  0  0  0  0
    6.7128   -1.4902   21.3430 H   0  0  0  0  0  0  0  0  0  0  0  0
    8.7060   -1.8003   20.0349 H   0  0  0  0  0  0  0  0  0  0  0  0
    9.3488   -0.2262   20.4911 H   0  0  0  0  0  0  0  0  0  0  0  0
    9.9007   -0.8598   22.6681 H   0  0  0  0  0  0  0  0  0  0  0  0
   10.3779   -2.2274   21.6965 H   0  0  0  0  0  0  0  0  0  0  0  0
    8.4095   -3.5286   22.4295 H   0  0  0  0  0  0  0  0  0  0  0  0
    9.3667   -2.9276   23.7850 H   0  0  0  0  0  0  0  0  0  0  0  0
    7.3111   -2.4046   24.6506 H   0  0  0  0  0  0  0  0  0  0  0  0
    6.4931   -2.4190   23.1210 H   0  0  0  0  0  0  0  0  0  0  0  0
    8.1376   -0.1575   24.3200 H   0  0  0  0  0  0  0  0  0  0  0  0
    6.3807   -0.2729   24.2606 H   0  0  0  0  0  0  0  0  0  0  0  0
    6.8153    1.7529   24.0336 H   0  0  0  0  0  0  0  0  0  0  0  0
    7.2401    4.4439   22.3169 C   0  0  0  0  0  0  0  0  0  0  0  0
    7.1924    5.7533   22.6669 N   0  0  0  0  0  0  0  0  0  0  0  0
    7.3084    5.7647   23.9870 C   0  0  0  0  0  0  0  0  0  0  0  0
    7.1560    4.0923   21.3027 H   0  0  0  0  0  0  0  0  0  0  0  0
    7.5735    3.2060   26.1987 H   0  0  0  0  0  0  0  0  0  0  0  0
    7.4341    5.1337   27.8127 H   0  0  0  0  0  0  0  0  0  0  0  0
    7.3426    7.5018   26.9174 H   0  0  0  0  0  0  0  0  0  0  0  0
    8.2355    8.2881   23.5498 H   0  0  0  0  0  0  0  0  0  0  0  0
    6.4967    8.4135   23.6380 H   0  0  0  0  0  0  0  0  0  0  0  0
    7.5127    9.0384   24.9829 H   0  0  0  0  0  0  0  0  0  0  0  0
  1  2  1  0
  2  3  2  0
  3  4  1  0
  4  5  2  0
  5  6  1  0
  6  7  1  0
  7  8  1  0
  8  9  1  0
  9 10  2  0
  9 11  1  0
 11 12  1  0
 12 13  1  0
 13 14  1  0
 14 15  1  0
 15 16  1  0
 16 17  1  0
 17 18  1  0
 18 19  2  0
 19 20  1  0
 20 21  2  0
 21 22  1  0
 22 23  2  0
 23 24  1  0
 21 25  1  0
 20 26  1  0
 19 27  1  0
 17 28  1  0
 16 29  1  0
 16 30  1  0
 15 31  1  0
 15 32  1  0
 14 33  1  0
 14 34  1  0
 13 35  1  0
 13 36  1  0
 12 37  1  0
 12 38  1  0
  8 39  1  0
  7 40  2  0
 40 41  1  0
 41 42  2  0
 40 43  1  0
  5 44  1  0
  4 45  1  0
  3 46  1  0
  1 47  1  0
  1 48  1  0
  1 49  1  0
 42  2  1  0
 42  6  1  0
 17 11  1  0
 23 18  1  0
M  END
>  <plip>  (1) 
-0.10714285714285714

>  <filename>  (1) 
[H][c]1[n][c]([H])[c]([C]2([H])[N]([C](=[O])[N]([H])[c]3[c]([H])[n][c]4[c]([C]([H])([H])[H])[c]([H])[c]([H])[c]([H])[n]34)[C]([H])([H])[C]([H])([H])[C]([H])([H])[C]([H])([H])[C]2([H])[H])[c]([H])[c]1[H]

$$$$
