
     RDKit          3D

 33 35  0  0  0  0  0  0  0  0999 V2000
    6.9549   -0.8007   22.3042 C   0  0  0  0  0  0  0  0  0  0  0  0
    7.5048   -0.7406   20.8830 C   0  0  2  0  0  0  0  0  0  0  0  0
    8.8963   -0.2796   20.8483 N   0  0  0  0  0  0  0  0  0  0  0  0
    9.3566    0.8825   21.4422 C   0  0  0  0  0  0  0  0  0  0  0  0
    8.5463    1.9979   21.5709 C   0  0  0  0  0  0  0  0  0  0  0  0
    9.0786    3.1896   22.1085 C   0  0  0  0  0  0  0  0  0  0  0  0
   10.3379    3.3364   22.4758 N   0  0  0  0  0  0  0  0  0  0  0  0
   11.1713    2.2657   22.3055 C   0  0  0  0  0  0  0  0  0  0  0  0
   12.5638    2.4097   22.6148 C   0  0  0  0  0  0  0  0  0  0  0  0
   13.3876    1.3055   22.5843 C   0  0  0  0  0  0  0  0  0  0  0  0
   12.8552    0.0411   22.2016 C   0  0  0  0  0  0  0  0  0  0  0  0
   11.5952   -0.1279   21.8424 N   0  0  0  0  0  0  0  0  0  0  0  0
   10.7554    0.9693   21.8656 C   0  0  0  0  0  0  0  0  0  0  0  0
   13.4918   -0.8437   22.1891 H   0  0  0  0  0  0  0  0  0  0  0  0
   14.4349    1.3849   22.8387 H   0  0  0  0  0  0  0  0  0  0  0  0
   12.9165    3.4031   22.8792 H   0  0  0  0  0  0  0  0  0  0  0  0
    8.4283    4.0606   22.2180 H   0  0  0  0  0  0  0  0  0  0  0  0
    7.5075    1.9654   21.2700 H   0  0  0  0  0  0  0  0  0  0  0  0
    9.5598   -1.0270   21.0132 H   0  0  0  0  0  0  0  0  0  0  0  0
    6.6574    0.0173   19.8753 C   0  0  0  0  0  0  0  0  0  0  0  0
    5.4247    0.6399   20.1122 C   0  0  0  0  0  0  0  0  0  0  0  0
    4.7952    1.3023   19.0530 C   0  0  0  0  0  0  0  0  0  0  0  0
    5.4009    1.3092   17.7960 C   0  0  0  0  0  0  0  0  0  0  0  0
    6.5662    0.6946   17.5379 N   0  0  0  0  0  0  0  0  0  0  0  0
    7.1652    0.0830   18.5656 C   0  0  0  0  0  0  0  0  0  0  0  0
    8.1113   -0.4083   18.3466 H   0  0  0  0  0  0  0  0  0  0  0  0
    4.9323    1.8337   16.9652 H   0  0  0  0  0  0  0  0  0  0  0  0
    3.8573    1.8233   19.1946 H   0  0  0  0  0  0  0  0  0  0  0  0
    4.9600    0.6385   21.1024 H   0  0  0  0  0  0  0  0  0  0  0  0
    7.5572   -1.7752   20.5049 H   0  0  0  0  0  0  0  0  0  0  0  0
    7.6647   -1.3162   22.9623 H   0  0  0  0  0  0  0  0  0  0  0  0
    6.0161   -1.3542   22.3027 H   0  0  0  0  0  0  0  0  0  0  0  0
    6.7822    0.2015   22.7123 H   0  0  0  0  0  0  0  0  0  0  0  0
  1  2  1  0
  2  3  1  0
  3  4  1  0
  4  5  2  0
  5  6  1  0
  6  7  2  0
  7  8  1  0
  8  9  2  0
  9 10  1  0
 10 11  2  0
 11 12  1  0
 12 13  2  0
 11 14  1  0
 10 15  1  0
  9 16  1  0
  6 17  1  0
  5 18  1  0
  3 19  1  0
  2 20  1  0
 20 21  2  0
 21 22  1  0
 22 23  2  0
 23 24  1  0
 24 25  2  0
 25 26  1  0
 23 27  1  0
 22 28  1  0
 21 29  1  0
  2 30  1  6
  1 31  1  0
  1 32  1  0
  1 33  1  0
 13  4  1  0
 25 20  1  0
 13  8  1  0
M  END
>  <plip>  (1) 
-0.06896551724137931

>  <filename>  (1) 
[H][c]1[n][c]([H])[c]([C@@]([H])([N]([H])[c]2[c]([H])[c]([H])[n][c]3[c]([H])[c]([H])[c]([H])[n][c]23)[C]([H])([H])[H])[c]([H])[c]1[H]

$$$$
