
     RDKit          3D

 24 25  0  0  0  0  0  0  0  0999 V2000
    4.9642    1.7680   17.0171 H   0  0  0  0  0  0  0  0  0  0  0  0
    5.4416    1.2701   17.8582 C   0  0  0  0  0  0  0  0  0  0  0  0
    6.5992    0.6468   17.5906 N   0  0  0  0  0  0  0  0  0  0  0  0
    7.2247    0.0231   18.6021 C   0  0  0  0  0  0  0  0  0  0  0  0
    8.1594   -0.4782   18.3635 H   0  0  0  0  0  0  0  0  0  0  0  0
    6.7192    0.0032   19.9183 C   0  0  0  0  0  0  0  0  0  0  0  0
    7.3381   -0.5540   21.0123 O   0  0  0  0  0  0  0  0  0  0  0  0
    8.5959   -1.1493   20.7501 N   0  0  0  0  0  0  0  0  0  0  0  0
    9.2268   -0.3826   20.5297 H   0  0  0  0  0  0  0  0  0  0  0  0
    9.1208   -1.8076   21.9056 C   0  0  0  0  0  0  0  0  0  0  0  0
    8.3121   -2.3630   22.9048 C   0  0  0  0  0  0  0  0  0  0  0  0
    7.2437   -2.1817   22.8837 H   0  0  0  0  0  0  0  0  0  0  0  0
    8.8917   -3.1571   23.9068 C   0  0  0  0  0  0  0  0  0  0  0  0
    8.2530   -3.6202   24.6535 H   0  0  0  0  0  0  0  0  0  0  0  0
   10.2736   -3.3862   23.9259 C   0  0  0  0  0  0  0  0  0  0  0  0
   10.7132   -4.0193   24.6921 H   0  0  0  0  0  0  0  0  0  0  0  0
   11.0757   -2.7996   22.9427 C   0  0  0  0  0  0  0  0  0  0  0  0
   12.1430   -3.0036   22.9227 H   0  0  0  0  0  0  0  0  0  0  0  0
   10.5127   -1.9897   21.9569 C   0  0  0  0  0  0  0  0  0  0  0  0
   11.1515   -1.5171   21.2136 H   0  0  0  0  0  0  0  0  0  0  0  0
    5.4899    0.6266   20.1825 C   0  0  0  0  0  0  0  0  0  0  0  0
    5.0801    0.6050   21.1924 H   0  0  0  0  0  0  0  0  0  0  0  0
    4.8443    1.2768   19.1278 C   0  0  0  0  0  0  0  0  0  0  0  0
    3.8981    1.8025   19.2770 H   0  0  0  0  0  0  0  0  0  0  0  0
  1  2  1  0
  2  3  2  0
  3  4  1  0
  4  5  1  0
  4  6  2  0
  6  7  1  0
  7  8  1  0
  8  9  1  0
  8 10  1  0
 10 11  2  0
 11 12  1  0
 11 13  1  0
 13 14  1  0
 13 15  2  0
 15 16  1  0
 15 17  1  0
 17 18  1  0
 17 19  2  0
 19 20  1  0
  6 21  1  0
 21 22  1  0
 21 23  2  0
 23 24  1  0
 23  2  1  0
 19 10  1  0
M  END
>  <plip>  (1) 
-0.10714285714285714

>  <filename>  (1) 
[H][c]1[n][c]([H])[c]([O][N]([H])[c]2[c]([H])[c]([H])[c]([H])[c]([H])[c]2[H])[c]([H])[c]1[H]

$$$$
