
     RDKit          3D

 33 35  0  0  0  0  0  0  0  0999 V2000
    5.1219    2.0893   16.8450 H   0  0  0  0  0  0  0  0  0  0  0  0
    5.5459    1.4833   17.6425 C   0  0  0  0  0  0  0  0  0  0  0  0
    6.7589    0.9580   17.3964 N   0  0  0  0  0  0  0  0  0  0  0  0
    7.3200    0.2149   18.3539 C   0  0  0  0  0  0  0  0  0  0  0  0
    8.3128   -0.1909   18.1703 H   0  0  0  0  0  0  0  0  0  0  0  0
    6.6788   -0.0760   19.5758 C   0  0  0  0  0  0  0  0  0  0  0  0
    7.3479   -0.8777   20.5564 N   0  0  0  0  0  0  0  0  0  0  0  0
    8.6770   -0.5833   20.7097 N   0  0  0  0  0  0  0  0  0  0  0  0
    9.3536   -1.2274   21.6114 C   0  0  0  0  0  0  0  0  0  0  0  0
   10.3990   -0.9453   21.6590 H   0  0  0  0  0  0  0  0  0  0  0  0
    8.8097   -2.2751   22.4507 C   0  0  0  0  0  0  0  0  0  0  0  0
    9.6034   -2.8633   23.6067 C   0  0  0  0  0  0  0  0  0  0  0  0
    9.4304   -3.9457   23.6702 H   0  0  0  0  0  0  0  0  0  0  0  0
   10.6792   -2.7313   23.4210 H   0  0  0  0  0  0  0  0  0  0  0  0
    9.2327   -2.1938   24.9270 C   0  0  0  0  0  0  0  0  0  0  0  0
    9.9430   -1.0485   25.3154 C   0  0  0  0  0  0  0  0  0  0  0  0
   10.8252   -0.7605   24.7548 H   0  0  0  0  0  0  0  0  0  0  0  0
    9.5587   -0.2726   26.4110 C   0  0  0  0  0  0  0  0  0  0  0  0
   10.1051    0.6198   26.6982 H   0  0  0  0  0  0  0  0  0  0  0  0
    8.4260   -0.6560   27.1315 C   0  0  0  0  0  0  0  0  0  0  0  0
    7.8040    0.4047   28.3635 Cl  0  0  0  0  0  0  0  0  0  0  0  0
    7.7329   -1.8277   26.8168 C   0  0  0  0  0  0  0  0  0  0  0  0
    6.8809   -2.1235   27.4253 H   0  0  0  0  0  0  0  0  0  0  0  0
    8.1352   -2.5892   25.7127 C   0  0  0  0  0  0  0  0  0  0  0  0
    7.5742   -3.4893   25.4534 H   0  0  0  0  0  0  0  0  0  0  0  0
    7.5130   -2.6268   22.2146 C   0  0  0  0  0  0  0  0  0  0  0  0
    6.9982   -3.4242   22.7354 H   0  0  0  0  0  0  0  0  0  0  0  0
    6.6731   -1.9480   21.2443 C   0  0  0  0  0  0  0  0  0  0  0  0
    5.5165   -2.2528   21.0147 O   0  0  0  0  0  0  0  0  0  0  0  0
    5.4065    0.4499   19.8147 C   0  0  0  0  0  0  0  0  0  0  0  0
    4.8885    0.2292   20.7467 H   0  0  0  0  0  0  0  0  0  0  0  0
    4.8408    1.2671   18.8304 C   0  0  0  0  0  0  0  0  0  0  0  0
    3.8797    1.7488   18.9783 H   0  0  0  0  0  0  0  0  0  0  0  0
  1  2  1  0
  2  3  2  0
  3  4  1  0
  4  5  1  0
  4  6  2  0
  6  7  1  0
  7  8  1  0
  8  9  2  0
  9 10  1  0
  9 11  1  0
 11 12  1  0
 12 13  1  0
 12 14  1  0
 12 15  1  0
 15 16  2  0
 16 17  1  0
 16 18  1  0
 18 19  1  0
 18 20  2  0
 20 21  1  0
 20 22  1  0
 22 23  1  0
 22 24  2  0
 24 25  1  0
 11 26  2  0
 26 27  1  0
 26 28  1  0
 28 29  2  0
  6 30  1  0
 30 31  1  0
 30 32  2  0
 32 33  1  0
 32  2  1  0
 28  7  1  0
 24 15  1  0
M  END
>  <plip>  (1) 
-0.10344827586206896

>  <filename>  (1) 
[H][c]1[n][c]([H])[c](-[n]2[n][c]([H])[c]([C]([H])([H])[c]3[c]([H])[c]([H])[c]([Cl])[c]([H])[c]3[H])[c]([H])[c]2=[O])[c]([H])[c]1[H]

$$$$
