
     RDKit          3D

 27 27  0  0  0  0  0  0  0  0999 V2000
    9.0459   -2.9194   21.8435 C   0  0  0  0  0  0  0  0  0  0  0  0
    9.2860   -1.4353   22.0999 C   0  0  0  0  0  0  0  0  0  0  0  0
   10.7464   -1.0675   21.9091 C   0  0  0  0  0  0  0  0  0  0  0  0
   11.2956    0.0701   22.3422 C   0  0  0  0  0  0  0  0  0  0  0  0
   10.5096    1.3129   22.8529 C   0  0  0  0  0  0  0  0  0  0  0  0
    9.4481    1.6117   22.2536 O   0  0  0  0  0  0  0  0  0  0  0  0
   11.0513    1.9049   23.7961 O   0  0  0  0  0  1  0  0  0  0  0  0
   12.3695    0.2163   22.3795 H   0  0  0  0  0  0  0  0  0  0  0  0
   11.3786   -1.7883   21.3852 H   0  0  0  0  0  0  0  0  0  0  0  0
    8.5300   -0.5844   21.1987 N   0  0  0  0  0  0  0  0  0  0  0  0
    7.1943   -0.7659   20.9862 C   0  0  0  0  0  0  0  0  0  0  0  0
    6.4878   -1.5772   21.5668 O   0  0  0  0  0  0  0  0  0  0  0  0
    6.6545    0.1038   19.9088 C   0  0  0  0  0  0  0  0  0  0  0  0
    5.4401    0.8000   20.0209 C   0  0  0  0  0  0  0  0  0  0  0  0
    4.9744    1.4632   18.8856 C   0  0  0  0  0  0  0  0  0  0  0  0
    5.7227    1.3918   17.7041 C   0  0  0  0  0  0  0  0  0  0  0  0
    6.8765    0.7173   17.5870 N   0  0  0  0  0  0  0  0  0  0  0  0
    7.3282    0.1070   18.6878 C   0  0  0  0  0  0  0  0  0  0  0  0
    8.2734   -0.4266   18.6040 H   0  0  0  0  0  0  0  0  0  0  0  0
    5.3775    1.8910   16.8023 H   0  0  0  0  0  0  0  0  0  0  0  0
    4.0522    2.0379   18.9007 H   0  0  0  0  0  0  0  0  0  0  0  0
    4.8856    0.8285   20.9635 H   0  0  0  0  0  0  0  0  0  0  0  0
    8.8489    0.4002   21.3232 H   0  0  0  0  0  0  0  0  0  0  0  0
    9.0067   -1.2159   23.1491 H   0  0  0  0  0  0  0  0  0  0  0  0
    8.0207   -3.1807   22.0935 H   0  0  0  0  0  0  0  0  0  0  0  0
    9.2156   -3.1758   20.7932 H   0  0  0  0  0  0  0  0  0  0  0  0
    9.7146   -3.4999   22.4813 H   0  0  0  0  0  0  0  0  0  0  0  0
  1  2  1  0
  2  3  1  0
  3  4  2  3
  4  5  1  0
  5  6  2  0
  5  7  1  0
  4  8  1  0
  3  9  1  0
  2 10  1  0
 10 11  1  0
 11 12  2  0
 11 13  1  0
 13 14  2  0
 14 15  1  0
 15 16  2  0
 16 17  1  0
 17 18  2  0
 18 19  1  0
 16 20  1  0
 15 21  1  0
 14 22  1  0
 10 23  1  0
  2 24  1  0
  1 25  1  0
  1 26  1  0
  1 27  1  0
 18 13  1  0
M  CHG  1   7  -1
M  END
>  <plip>  (1) 
-0.07142857142857142

>  <filename>  (1) 
[H][C]([C](=[O])[O-])=[C]([H])[C]([H])([N]([H])[C](=[O])[c]1[c]([H])[n][c]([H])[c]([H])[c]1[H])[C]([H])([H])[H]

$$$$
