
     RDKit          3D

 39 41  0  0  0  0  0  0  0  0999 V2000
    8.0460    1.0381   22.4928 C   0  0  0  0  0  0  0  0  0  0  0  0
    8.5253    0.1191   21.3690 C   0  0  0  0  0  0  0  0  0  0  0  0
    7.4240   -0.5988   20.7043 N   0  0  0  0  0  0  0  0  0  0  0  0
    6.7890   -1.6963   21.3096 C   0  0  0  0  0  0  0  0  0  0  0  0
    5.6121   -1.9503   21.1498 O   0  0  0  0  0  0  0  0  0  0  0  0
    7.6829   -2.5726   22.2026 C   0  0  0  0  0  0  0  0  0  0  0  0
    7.5424   -2.3116   23.7220 C   0  0  0  0  0  0  0  0  0  0  0  0
    7.9417   -3.5972   24.4092 C   0  0  0  0  0  0  0  0  0  0  0  0
    8.2390   -3.7440   25.7693 C   0  0  0  0  0  0  0  0  0  0  0  0
    8.5478   -5.0051   26.3052 C   0  0  0  0  0  0  0  0  0  0  0  0
    8.7444   -5.2228   27.7862 C   0  0  0  0  0  0  0  0  0  0  0  0
    9.8035   -5.2106   28.0682 H   0  0  0  0  0  0  0  0  0  0  0  0
    8.2221   -4.4666   28.3788 H   0  0  0  0  0  0  0  0  0  0  0  0
    8.3441   -6.1976   28.0874 H   0  0  0  0  0  0  0  0  0  0  0  0
    8.6324   -6.1015   25.4256 C   0  0  0  0  0  0  0  0  0  0  0  0
    8.3254   -5.9767   24.0709 C   0  0  0  0  0  0  0  0  0  0  0  0
    7.9325   -4.7268   23.5770 C   0  0  0  0  0  0  0  0  0  0  0  0
    7.3708   -4.3619   21.9470 S   0  0  0  0  0  0  0  0  0  0  0  0
    8.3507   -6.8490   23.4240 H   0  0  0  0  0  0  0  0  0  0  0  0
    8.9231   -7.0761   25.8151 H   0  0  0  0  0  0  0  0  0  0  0  0
    8.2063   -2.8730   26.4244 H   0  0  0  0  0  0  0  0  0  0  0  0
    6.5012   -2.0651   23.9813 H   0  0  0  0  0  0  0  0  0  0  0  0
    8.1710   -1.4747   24.0585 H   0  0  0  0  0  0  0  0  0  0  0  0
    8.7299   -2.4383   21.9236 H   0  0  0  0  0  0  0  0  0  0  0  0
    6.7175    0.1203   19.6648 C   0  0  0  0  0  0  0  0  0  0  0  0
    5.4800    0.7221   19.9238 C   0  0  0  0  0  0  0  0  0  0  0  0
    4.8490    1.4430   18.9003 C   0  0  0  0  0  0  0  0  0  0  0  0
    5.4646    1.5248   17.6464 C   0  0  0  0  0  0  0  0  0  0  0  0
    6.6431    0.9447   17.3711 N   0  0  0  0  0  0  0  0  0  0  0  0
    7.2524    0.2788   18.3640 C   0  0  0  0  0  0  0  0  0  0  0  0
    8.2085   -0.1738   18.1118 H   0  0  0  0  0  0  0  0  0  0  0  0
    4.9882    2.0691   16.8308 H   0  0  0  0  0  0  0  0  0  0  0  0
    3.8940    1.9352   19.0583 H   0  0  0  0  0  0  0  0  0  0  0  0
    5.0202    0.6192   20.9066 H   0  0  0  0  0  0  0  0  0  0  0  0
    9.0544    0.6849   20.5948 H   0  0  0  0  0  0  0  0  0  0  0  0
    9.2556   -0.6015   21.7531 H   0  0  0  0  0  0  0  0  0  0  0  0
    7.5591    0.4720   23.2909 H   0  0  0  0  0  0  0  0  0  0  0  0
    8.8953    1.5680   22.9389 H   0  0  0  0  0  0  0  0  0  0  0  0
    7.3128    1.7653   22.1220 H   0  0  0  0  0  0  0  0  0  0  0  0
  1  2  1  0
  2  3  1  0
  3  4  1  0
  4  5  2  0
  4  6  1  0
  6  7  1  0
  7  8  1  0
  8  9  2  0
  9 10  1  0
 10 11  1  0
 11 12  1  0
 11 13  1  0
 11 14  1  0
 10 15  2  0
 15 16  1  0
 16 17  2  0
 17 18  1  0
 16 19  1  0
 15 20  1  0
  9 21  1  0
  7 22  1  0
  7 23  1  0
  6 24  1  0
  3 25  1  0
 25 26  2  0
 26 27  1  0
 27 28  2  0
 28 29  1  0
 29 30  2  0
 30 31  1  0
 28 32  1  0
 27 33  1  0
 26 34  1  0
  2 35  1  0
  2 36  1  0
  1 37  1  0
  1 38  1  0
  1 39  1  0
 18  6  1  0
 30 25  1  0
 17  8  1  0
M  END
>  <plip>  (1) 
-0.10714285714285714

>  <filename>  (1) 
[H][c]1[n][c]([H])[c]([N]([C](=[O])[C]2([H])[S][c]3[c]([H])[c]([H])[c]([C]([H])([H])[H])[c]([H])[c]3[C]2([H])[H])[C]([H])([H])[C]([H])([H])[H])[c]([H])[c]1[H]

$$$$
