
     RDKit          3D

 24 26  0  0  0  0  0  0  0  0999 V2000
    4.9586    1.8170   16.9876 H   0  0  0  0  0  0  0  0  0  0  0  0
    5.4105    1.3059   17.8336 C   0  0  0  0  0  0  0  0  0  0  0  0
    6.5787    0.6897   17.5953 N   0  0  0  0  0  0  0  0  0  0  0  0
    7.1762    0.0702   18.6199 C   0  0  0  0  0  0  0  0  0  0  0  0
    8.1349   -0.4071   18.4043 H   0  0  0  0  0  0  0  0  0  0  0  0
    6.6374    0.0346   19.9290 C   0  0  0  0  0  0  0  0  0  0  0  0
    7.2945   -0.6599   21.0123 N   0  0  0  0  0  0  0  0  0  0  0  0
    7.6056   -2.0039   21.0510 C   0  0  0  0  0  0  0  0  0  0  0  0
    7.3652   -2.6864   20.2499 H   0  0  0  0  0  0  0  0  0  0  0  0
    8.1372   -2.3410   22.1838 N   0  0  0  0  0  0  0  0  0  0  0  0
    8.1604   -1.2229   22.9798 N   0  0  0  0  0  0  0  0  0  0  0  0
    7.6455   -0.2469   22.2886 C   0  0  0  0  0  0  0  0  0  0  0  0
    7.4053    1.0308   22.7955 N   0  0  0  0  0  0  0  0  0  0  0  0
    7.1001    1.2746   24.1096 C   0  0  0  0  0  0  0  0  0  0  0  0
    7.0173    0.4649   24.8319 H   0  0  0  0  0  0  0  0  0  0  0  0
    6.9392    2.5445   24.3395 N   0  0  0  0  0  0  0  0  0  0  0  0
    7.1510    3.1828   23.1341 C   0  0  0  0  0  0  0  0  0  0  0  0
    7.0971    4.2640   23.0498 H   0  0  0  0  0  0  0  0  0  0  0  0
    7.4370    2.2683   22.1645 C   0  0  0  0  0  0  0  0  0  0  0  0
    7.6248    2.3397   21.1029 H   0  0  0  0  0  0  0  0  0  0  0  0
    5.4118    0.6744   20.1593 C   0  0  0  0  0  0  0  0  0  0  0  0
    4.9822    0.6836   21.1638 H   0  0  0  0  0  0  0  0  0  0  0  0
    4.7891    1.3176   19.0848 C   0  0  0  0  0  0  0  0  0  0  0  0
    3.8440    1.8309   19.2134 H   0  0  0  0  0  0  0  0  0  0  0  0
  1  2  1  0
  2  3  2  0
  3  4  1  0
  4  5  1  0
  4  6  2  0
  6  7  1  0
  7  8  1  0
  8  9  1  0
  8 10  2  0
 10 11  1  0
 11 12  2  0
 12 13  1  0
 13 14  1  0
 14 15  1  0
 14 16  2  0
 16 17  1  0
 17 18  1  0
 17 19  2  0
 19 20  1  0
  6 21  1  0
 21 22  1  0
 21 23  2  0
 23 24  1  0
 23  2  1  0
 12  7  1  0
 19 13  1  0
M  END
>  <plip>  (1) 
-0.0

>  <filename>  (1) 
[H][c]1[n][c]([H])[c](-[n]2[c]([H])[n][n][c]2-[n]2[c]([H])[n][c]([H])[c]2[H])[c]([H])[c]1[H]

$$$$
