
     RDKit          3D

 32 34  0  0  0  0  0  0  0  0999 V2000
    7.5911    2.1850   21.1780 H   0  0  0  0  0  0  0  0  0  0  0  0
    7.3146    2.1670   22.2306 C   0  0  0  0  0  0  0  0  0  0  0  0
    7.2653    0.9950   22.8710 C   0  0  0  0  0  0  0  0  0  0  0  0
    6.9997    0.9040   23.9211 H   0  0  0  0  0  0  0  0  0  0  0  0
    7.5365   -0.2489   22.2661 N   0  0  0  0  0  0  0  0  0  0  0  0
    7.3890   -0.6570   20.9481 C   0  0  0  0  0  0  0  0  0  0  0  0
    6.6235    0.0455   19.9091 C   0  0  0  0  0  0  0  0  0  0  0  0
    7.1443    0.0237   18.6063 C   0  0  0  0  0  0  0  0  0  0  0  0
    8.0652   -0.5195   18.3983 H   0  0  0  0  0  0  0  0  0  0  0  0
    6.5810    0.6516   17.5702 N   0  0  0  0  0  0  0  0  0  0  0  0
    5.4305    1.3057   17.7993 C   0  0  0  0  0  0  0  0  0  0  0  0
    4.9995    1.8316   16.9494 H   0  0  0  0  0  0  0  0  0  0  0  0
    4.7885    1.3209   19.0422 C   0  0  0  0  0  0  0  0  0  0  0  0
    3.8470    1.8428   19.1514 H   0  0  0  0  0  0  0  0  0  0  0  0
    5.3818    0.6713   20.1224 C   0  0  0  0  0  0  0  0  0  0  0  0
    4.9152    0.6703   21.1104 H   0  0  0  0  0  0  0  0  0  0  0  0
    7.9389   -1.8284   20.7511 N   0  0  0  0  0  0  0  0  0  0  0  0
    8.4000   -2.2454   21.9735 C   0  0  0  0  0  0  0  0  0  0  0  0
    8.8534   -3.2197   22.1125 H   0  0  0  0  0  0  0  0  0  0  0  0
    8.1594   -1.2989   22.9218 C   0  0  0  0  0  0  0  0  0  0  0  0
    8.3548   -1.2691   23.9837 H   0  0  0  0  0  0  0  0  0  0  0  0
    6.9887    3.4782   22.8286 C   0  0  0  0  0  0  0  0  0  0  0  0
    6.9977    3.6976   24.2202 C   0  0  0  0  0  0  0  0  0  0  0  0
    7.2172    2.8741   24.9023 H   0  0  0  0  0  0  0  0  0  0  0  0
    6.7339    4.9745   24.7259 C   0  0  0  0  0  0  0  0  0  0  0  0
    6.6965    5.1225   25.8019 H   0  0  0  0  0  0  0  0  0  0  0  0
    6.4980    6.0584   23.8683 C   0  0  0  0  0  0  0  0  0  0  0  0
    6.3190    7.0541   24.2745 H   0  0  0  0  0  0  0  0  0  0  0  0
    6.4661    5.8501   22.4827 C   0  0  0  0  0  0  0  0  0  0  0  0
    6.2866    6.6912   21.8109 H   0  0  0  0  0  0  0  0  0  0  0  0
    6.6635    4.5578   21.9794 C   0  0  0  0  0  0  0  0  0  0  0  0
    6.4963    4.3535   20.9253 H   0  0  0  0  0  0  0  0  0  0  0  0
  1  2  1  0
  2  3  2  3
  3  4  1  0
  3  5  1  0
  5  6  1  0
  6  7  1  0
  7  8  2  0
  8  9  1  0
  8 10  1  0
 10 11  2  0
 11 12  1  0
 11 13  1  0
 13 14  1  0
 13 15  2  0
 15 16  1  0
  6 17  2  0
 17 18  1  0
 18 19  1  0
 18 20  2  0
 20 21  1  0
  2 22  1  0
 22 23  2  0
 23 24  1  0
 23 25  1  0
 25 26  1  0
 25 27  2  0
 27 28  1  0
 27 29  1  0
 29 30  1  0
 29 31  2  0
 31 32  1  0
 20  5  1  0
 31 22  1  0
 15  7  1  0
M  END
>  <plip>  (1) 
-0.0

>  <filename>  (1) 
[H][C](=[C]([H])[n]1[c](-[c]2[c]([H])[n][c]([H])[c]([H])[c]2[H])[n][c]([H])[c]1[H])[c]1[c]([H])[c]([H])[c]([H])[c]([H])[c]1[H]

$$$$
