
     RDKit          3D

 13 13  0  0  0  0  0  0  0  0999 V2000
    4.9060    1.7723   17.0049 H   0  0  0  0  0  0  0  0  0  0  0  0
    5.4010    1.2909   17.8452 C   0  0  0  0  0  0  0  0  0  0  0  0
    6.5690    0.6823   17.5816 N   0  0  0  0  0  0  0  0  0  0  0  0
    7.1866    0.0689   18.5945 C   0  0  0  0  0  0  0  0  0  0  0  0
    8.1326   -0.4370   18.3809 H   0  0  0  0  0  0  0  0  0  0  0  0
    6.6645    0.0379   19.8977 C   0  0  0  0  0  0  0  0  0  0  0  0
    7.4993   -0.8852   21.1730 S   0  0  0  0  0  0  0  0  0  0  0  0
    6.7225   -2.3661   20.8819 C   0  0  0  0  0  0  0  0  0  0  0  0
    6.1675   -3.3539   20.6389 N   0  0  0  0  0  0  0  0  0  0  0  0
    5.4428    0.6582   20.1630 C   0  0  0  0  0  0  0  0  0  0  0  0
    5.0100    0.6266   21.1597 H   0  0  0  0  0  0  0  0  0  0  0  0
    4.8037    1.3133   19.1111 C   0  0  0  0  0  0  0  0  0  0  0  0
    3.8689    1.8466   19.2677 H   0  0  0  0  0  0  0  0  0  0  0  0
  1  2  1  0
  2  3  2  0
  3  4  1  0
  4  5  1  0
  4  6  2  0
  6  7  1  0
  7  8  1  0
  8  9  3  0
  6 10  1  0
 10 11  1  0
 10 12  2  0
 12 13  1  0
 12  2  1  0
M  END
>  <plip>  (1) 
-0.07142857142857142

>  <filename>  (1) 
[H][c]1[n][c]([H])[c]([S][C]#[N])[c]([H])[c]1[H]

$$$$
