
     RDKit          3D

 20 20  0  0  0  0  0  0  0  0999 V2000
    5.0124    1.7728   17.0025 H   0  0  0  0  0  0  0  0  0  0  0  0
    5.4503    1.2829   17.8661 C   0  0  0  0  0  0  0  0  0  0  0  0
    6.6125    0.6440   17.6383 N   0  0  0  0  0  0  0  0  0  0  0  0
    7.1563   -0.0119   18.6671 C   0  0  0  0  0  0  0  0  0  0  0  0
    8.1106   -0.5172   18.5083 H   0  0  0  0  0  0  0  0  0  0  0  0
    6.5556   -0.0591   19.9249 C   0  0  0  0  0  0  0  0  0  0  0  0
    7.4513   -0.9390   21.1985 S   0  0  0  0  0  4  0  0  0  0  0  0
    8.4613   -1.7371   20.4824 O   0  0  0  0  0  0  0  0  0  0  0  0
    8.2166    0.4216   21.7878 O   0  0  0  0  0  0  0  0  0  0  0  0
    9.5172    0.7219   21.2388 C   0  0  0  0  0  0  0  0  0  0  0  0
    9.5532    0.4682   20.1751 H   0  0  0  0  0  0  0  0  0  0  0  0
    9.6319    1.8003   21.3748 H   0  0  0  0  0  0  0  0  0  0  0  0
   10.6615   -0.0133   21.9205 C   0  0  0  0  0  0  0  0  0  0  0  0
   10.6686    0.1328   23.0058 H   0  0  0  0  0  0  0  0  0  0  0  0
   10.6346   -1.0828   21.6928 H   0  0  0  0  0  0  0  0  0  0  0  0
   11.8067    0.5385   21.3673 F   0  0  0  0  0  0  0  0  0  0  0  0
    5.3833    0.6528   20.1911 C   0  0  0  0  0  0  0  0  0  0  0  0
    4.9495    0.7089   21.1937 H   0  0  0  0  0  0  0  0  0  0  0  0
    4.8058    1.3205   19.1107 C   0  0  0  0  0  0  0  0  0  0  0  0
    3.8683    1.8638   19.2166 H   0  0  0  0  0  0  0  0  0  0  0  0
  1  2  1  0
  2  3  2  0
  3  4  1  0
  4  5  1  0
  4  6  2  0
  6  7  1  0
  7  8  2  0
  7  9  1  1
  9 10  1  0
 10 11  1  0
 10 12  1  0
 10 13  1  0
 13 14  1  0
 13 15  1  0
 13 16  1  0
  6 17  1  0
 17 18  1  0
 17 19  2  0
 19 20  1  0
 19  2  1  0
M  END
>  <plip>  (1) 
-0.03333333333333333

>  <filename>  (1) 
[H][c]1[n][c]([H])[c]([S@@](=[O])[O][C]([H])([H])[C]([H])([H])[F])[c]([H])[c]1[H]

$$$$
