
     RDKit          3D

 31 32  0  0  0  0  0  0  0  0999 V2000
    5.9764    1.9784   25.6043 C   0  0  0  0  0  0  0  0  0  0  0  0
    7.3449    1.6595   25.1103 C   0  0  0  0  0  0  0  0  0  0  0  0
    8.3788    2.2475   25.5824 N   0  0  0  0  0  0  0  0  0  0  0  0
    9.5128    1.7569   24.8818 O   0  0  0  0  0  0  0  0  0  0  0  0
    9.1343    0.8565   23.9368 C   0  0  0  0  0  0  0  0  0  0  0  0
    9.8961    0.3647   23.1469 O   0  0  0  0  0  0  0  0  0  0  0  0
    7.6400    0.6518   24.0454 C   0  0  0  0  0  0  0  0  0  0  0  0
    7.1870   -0.8026   24.2982 C   0  0  0  0  0  0  0  0  0  0  0  0
    7.6027   -1.7534   23.1485 C   0  0  0  0  0  0  0  0  0  0  0  0
    6.8654   -1.5354   21.8363 C   0  0  0  0  0  0  0  0  0  0  0  0
    5.8705   -2.1610   21.5291 O   0  0  0  0  0  0  0  0  0  0  0  0
    7.4317   -0.5819   21.0161 N   0  0  0  0  0  0  0  0  0  0  0  0
    6.7501    0.0293   19.9160 C   0  0  0  0  0  0  0  0  0  0  0  0
    5.5050    0.6257   20.1427 C   0  0  0  0  0  0  0  0  0  0  0  0
    4.8694    1.2844   19.0846 C   0  0  0  0  0  0  0  0  0  0  0  0
    5.4658    1.2864   17.8193 C   0  0  0  0  0  0  0  0  0  0  0  0
    6.6424    0.6864   17.5697 N   0  0  0  0  0  0  0  0  0  0  0  0
    7.2656    0.0835   18.5952 C   0  0  0  0  0  0  0  0  0  0  0  0
    8.2055   -0.4086   18.3490 H   0  0  0  0  0  0  0  0  0  0  0  0
    4.9754    1.7791   16.9789 H   0  0  0  0  0  0  0  0  0  0  0  0
    3.9150    1.7711   19.2359 H   0  0  0  0  0  0  0  0  0  0  0  0
    5.0636    0.5560   21.1395 H   0  0  0  0  0  0  0  0  0  0  0  0
    8.3384   -0.2335   21.2930 H   0  0  0  0  0  0  0  0  0  0  0  0
    8.6733   -1.6326   22.9688 H   0  0  0  0  0  0  0  0  0  0  0  0
    7.4198   -2.7900   23.4456 H   0  0  0  0  0  0  0  0  0  0  0  0
    6.0996   -0.8208   24.4799 H   0  0  0  0  0  0  0  0  0  0  0  0
    7.6477   -1.1763   25.2250 H   0  0  0  0  0  0  0  0  0  0  0  0
    7.2167    0.9882   23.0915 H   0  0  0  0  0  0  0  0  0  0  0  0
    5.2265    1.4990   24.9717 H   0  0  0  0  0  0  0  0  0  0  0  0
    5.8456    1.6131   26.6256 H   0  0  0  0  0  0  0  0  0  0  0  0
    5.7940    3.0545   25.6004 H   0  0  0  0  0  0  0  0  0  0  0  0
  1  2  1  0
  2  3  2  0
  3  4  1  0
  4  5  1  0
  5  6  2  0
  5  7  1  0
  7  8  1  0
  8  9  1  0
  9 10  1  0
 10 11  2  0
 10 12  1  0
 12 13  1  0
 13 14  2  0
 14 15  1  0
 15 16  2  0
 16 17  1  0
 17 18  2  0
 18 19  1  0
 16 20  1  0
 15 21  1  0
 14 22  1  0
 12 23  1  0
  9 24  1  0
  9 25  1  0
  8 26  1  0
  8 27  1  0
  7 28  1  0
  1 29  1  0
  1 30  1  0
  1 31  1  0
  7  2  1  0
 18 13  1  0
M  END
>  <plip>  (1) 
-0.07142857142857142

>  <filename>  (1) 
[H][c]1[n][c]([H])[c]([N]([H])[C](=[O])[C]([H])([H])[C]([H])([H])[C]2([H])[C](=[O])[O][N]=[C]2[C]([H])([H])[H])[c]([H])[c]1[H]

$$$$
