
     RDKit          3D

 19 20  0  0  0  0  0  0  0  0999 V2000
    4.9586    1.8436   17.0000 H   0  0  0  0  0  0  0  0  0  0  0  0
    5.4217    1.3318   17.8386 C   0  0  0  0  0  0  0  0  0  0  0  0
    6.5900    0.7176   17.5847 N   0  0  0  0  0  0  0  0  0  0  0  0
    7.1646    0.0307   18.5849 C   0  0  0  0  0  0  0  0  0  0  0  0
    8.1398   -0.4181   18.3923 H   0  0  0  0  0  0  0  0  0  0  0  0
    6.5863   -0.1134   19.8715 C   0  0  0  0  0  0  0  0  0  0  0  0
    7.1104   -0.9179   20.9121 N   0  0  0  0  0  0  0  0  0  0  0  0
    6.6810   -0.7226   21.8109 H   0  0  0  0  0  0  0  0  0  0  0  0
    8.7568   -1.3756   21.0092 S   0  0  0  0  0  0  0  0  0  0  0  0
    9.6236    0.1187   21.4281 C   0  0  0  0  0  0  0  0  0  0  0  0
    9.8693    1.1401   20.6470 N   0  0  0  0  0  0  0  0  0  0  0  0
   10.5935    2.0131   21.3807 N   0  0  0  0  0  0  0  0  0  0  0  0
   10.8130    1.5591   22.5581 N   0  0  0  0  0  0  0  0  0  0  0  0
   10.2122    0.3615   22.6162 N   0  0  0  0  0  0  0  0  0  0  0  0
   10.1907   -0.1767   23.4693 H   0  0  0  0  0  0  0  0  0  0  0  0
    5.3938    0.5842   20.1242 C   0  0  0  0  0  0  0  0  0  0  0  0
    4.9805    0.5987   21.1340 H   0  0  0  0  0  0  0  0  0  0  0  0
    4.8016    1.3089   19.0919 C   0  0  0  0  0  0  0  0  0  0  0  0
    3.8828    1.8675   19.2481 H   0  0  0  0  0  0  0  0  0  0  0  0
  1  2  1  0
  2  3  2  0
  3  4  1  0
  4  5  1  0
  4  6  2  0
  6  7  1  0
  7  8  1  0
  7  9  1  0
  9 10  1  0
 10 11  2  0
 11 12  1  0
 12 13  2  0
 13 14  1  0
 14 15  1  0
  6 16  1  0
 16 17  1  0
 16 18  2  0
 18 19  1  0
 18  2  1  0
 14 10  1  0
M  END
>  <plip>  (1) 
-0.07142857142857142

>  <filename>  (1) 
[H][c]1[n][c]([H])[c]([N]([H])[S][c]2[n][n][n][n]2[H])[c]([H])[c]1[H]

$$$$
