
     RDKit          3D

 48 51  0  0  0  0  0  0  0  0999 V2000
    4.9163    1.7868   16.9898 H   0  0  0  0  0  0  0  0  0  0  0  0
    5.3963    1.2966   17.8331 C   0  0  0  0  0  0  0  0  0  0  0  0
    6.5602    0.6817   17.5717 N   0  0  0  0  0  0  0  0  0  0  0  0
    7.1605    0.0674   18.5966 C   0  0  0  0  0  0  0  0  0  0  0  0
    8.1120   -0.4165   18.3745 H   0  0  0  0  0  0  0  0  0  0  0  0
    6.6415    0.0092   19.9008 C   0  0  0  0  0  0  0  0  0  0  0  0
    7.4201   -0.6637   21.0043 C   0  0  0  0  0  0  0  0  0  0  0  0
    6.7542   -0.9362   21.8310 H   0  0  0  0  0  0  0  0  0  0  0  0
    7.8729   -1.5952   20.6484 H   0  0  0  0  0  0  0  0  0  0  0  0
    8.4999    0.1783   21.5139 N   0  0  0  0  0  0  0  0  0  0  0  0
    8.3575    1.3361   22.2536 C   0  0  0  0  0  0  0  0  0  0  0  0
    7.1405    1.7129   22.7962 N   0  0  0  0  0  0  0  0  0  0  0  0
    6.7234    3.1110   22.7180 C   0  0  0  0  0  0  0  0  0  0  0  0
    5.6568    3.1352   22.4371 H   0  0  0  0  0  0  0  0  0  0  0  0
    7.2690    3.5947   21.9051 H   0  0  0  0  0  0  0  0  0  0  0  0
    6.9261    3.8692   24.0335 C   0  0  0  0  0  0  0  0  0  0  0  0
    8.0001    3.9623   24.2247 H   0  0  0  0  0  0  0  0  0  0  0  0
    6.5212    4.8828   23.9255 H   0  0  0  0  0  0  0  0  0  0  0  0
    6.2530    3.1439   25.2097 C   0  0  0  0  0  0  0  0  0  0  0  0
    5.1558    3.1243   25.0091 H   0  0  0  0  0  0  0  0  0  0  0  0
    6.4903    3.8367   26.4806 N   0  0  0  0  0  0  0  0  0  0  0  0
    5.8617    3.1842   27.6355 C   0  0  0  0  0  0  0  0  0  0  0  0
    6.4758    2.3540   28.0038 H   0  0  0  0  0  0  0  0  0  0  0  0
    4.8742    2.7632   27.3695 H   0  0  0  0  0  0  0  0  0  0  0  0
    5.6878    4.2697   28.7065 C   0  0  0  0  0  0  0  0  0  0  0  0
    6.4567    4.1916   29.4788 H   0  0  0  0  0  0  0  0  0  0  0  0
    4.7254    4.1567   29.2139 H   0  0  0  0  0  0  0  0  0  0  0  0
    5.7990    5.6076   27.9551 C   0  0  0  0  0  0  0  0  0  0  0  0
    6.6238    6.2072   28.3473 H   0  0  0  0  0  0  0  0  0  0  0  0
    4.8965    6.2174   28.0559 H   0  0  0  0  0  0  0  0  0  0  0  0
    6.0325    5.2319   26.4854 C   0  0  0  0  0  0  0  0  0  0  0  0
    5.0902    5.3472   25.9180 H   0  0  0  0  0  0  0  0  0  0  0  0
    6.7713    5.8925   26.0166 H   0  0  0  0  0  0  0  0  0  0  0  0
    6.7400    1.6860   25.2566 C   0  0  0  0  0  0  0  0  0  0  0  0
    6.2024    1.1258   26.0296 H   0  0  0  0  0  0  0  0  0  0  0  0
    7.8002    1.6755   25.5302 H   0  0  0  0  0  0  0  0  0  0  0  0
    6.5509    0.9727   23.9104 C   0  0  0  0  0  0  0  0  0  0  0  0
    5.4714    0.8469   23.7196 H   0  0  0  0  0  0  0  0  0  0  0  0
    6.9833   -0.0315   23.9568 H   0  0  0  0  0  0  0  0  0  0  0  0
    9.4829    2.0066   22.3319 N   0  0  0  0  0  0  0  0  0  0  0  0
   10.3864    1.2809   21.5973 C   0  0  0  0  0  0  0  0  0  0  0  0
   11.4174    1.5916   21.4851 H   0  0  0  0  0  0  0  0  0  0  0  0
    9.8048    0.1772   21.0491 C   0  0  0  0  0  0  0  0  0  0  0  0
   10.1797   -0.5851   20.3787 H   0  0  0  0  0  0  0  0  0  0  0  0
    5.4248    0.6495   20.1491 C   0  0  0  0  0  0  0  0  0  0  0  0
    4.9982    0.6370   21.1576 H   0  0  0  0  0  0  0  0  0  0  0  0
    4.7956    1.3155   19.0955 C   0  0  0  0  0  0  0  0  0  0  0  0
    3.8665    1.8495   19.2485 H   0  0  0  0  0  0  0  0  0  0  0  0
  1  2  1  0
  2  3  2  0
  3  4  1  0
  4  5  1  0
  4  6  2  0
  6  7  1  0
  7  8  1  0
  7  9  1  0
  7 10  1  0
 10 11  1  0
 11 12  1  0
 12 13  1  0
 13 14  1  0
 13 15  1  0
 13 16  1  0
 16 17  1  0
 16 18  1  0
 16 19  1  0
 19 20  1  0
 19 21  1  0
 21 22  1  0
 22 23  1  0
 22 24  1  0
 22 25  1  0
 25 26  1  0
 25 27  1  0
 25 28  1  0
 28 29  1  0
 28 30  1  0
 28 31  1  0
 31 32  1  0
 31 33  1  0
 19 34  1  0
 34 35  1  0
 34 36  1  0
 34 37  1  0
 37 38  1  0
 37 39  1  0
 11 40  2  0
 40 41  1  0
 41 42  1  0
 41 43  2  0
 43 44  1  0
  6 45  1  0
 45 46  1  0
 45 47  2  0
 47 48  1  0
 47  2  1  0
 43 10  1  0
 37 12  1  0
 31 21  1  0
M  END
>  <plip>  (1) 
-0.03571428571428571

>  <filename>  (1) 
[H][c]1[n][c]([H])[c]([C]([H])([H])[n]2[c]([N]3[C]([H])([H])[C]([H])([H])[C]([H])([N]4[C]([H])([H])[C]([H])([H])[C]([H])([H])[C]4([H])[H])[C]([H])([H])[C]3([H])[H])[n][c]([H])[c]2[H])[c]([H])[c]1[H]

$$$$
