
     RDKit          3D

 28 30  0  0  0  0  0  0  0  0999 V2000
    1.6857    1.8348   24.2264 H   0  0  0  0  0  0  0  0  0  0  0  0
    2.5781    1.9847   24.8301 C   0  0  0  0  0  0  0  0  0  0  0  0
    3.7283    1.9886   24.1561 N   0  0  0  0  0  0  0  0  0  0  0  0
    4.8786    2.1130   24.8409 C   0  0  0  0  0  0  0  0  0  0  0  0
    6.0793    1.9255   24.0438 C   0  0  0  0  0  0  0  0  0  0  0  0
    7.0215    1.6616   23.3388 C   0  0  0  0  0  0  0  0  0  0  0  0
    8.1452    1.5600   22.5495 N   0  0  0  0  0  0  0  0  0  0  0  0
    9.1401    2.5041   22.5176 N   0  0  0  0  0  0  0  0  0  0  0  0
   10.0251    2.0564   21.7212 N   0  0  0  0  0  0  0  0  0  0  0  0
    9.6914    0.8493   21.2028 N   0  0  0  0  0  0  0  0  0  0  0  0
    8.5203    0.5584   21.7158 C   0  0  0  0  0  0  0  0  0  0  0  0
    7.5346   -0.8153   21.2014 S   0  0  0  0  0  0  0  0  0  0  0  0
    6.6291   -0.0039   19.8816 C   0  0  0  0  0  0  0  0  0  0  0  0
    7.1438    0.0333   18.5688 C   0  0  0  0  0  0  0  0  0  0  0  0
    8.0935   -0.4552   18.3395 H   0  0  0  0  0  0  0  0  0  0  0  0
    6.5385    0.6646   17.5567 N   0  0  0  0  0  0  0  0  0  0  0  0
    5.3840    1.2990   17.8137 C   0  0  0  0  0  0  0  0  0  0  0  0
    4.9258    1.8230   16.9745 H   0  0  0  0  0  0  0  0  0  0  0  0
    4.7883    1.3105   19.0767 C   0  0  0  0  0  0  0  0  0  0  0  0
    3.8615    1.8487   19.2245 H   0  0  0  0  0  0  0  0  0  0  0  0
    5.4132    0.6426   20.1324 C   0  0  0  0  0  0  0  0  0  0  0  0
    4.9726    0.6287   21.1311 H   0  0  0  0  0  0  0  0  0  0  0  0
    4.9024    2.3341   26.2309 C   0  0  0  0  0  0  0  0  0  0  0  0
    5.8453    2.4372   26.7564 H   0  0  0  0  0  0  0  0  0  0  0  0
    3.6814    2.3650   26.9142 C   0  0  0  0  0  0  0  0  0  0  0  0
    3.6491    2.5190   27.9897 H   0  0  0  0  0  0  0  0  0  0  0  0
    2.4922    2.1446   26.2126 C   0  0  0  0  0  0  0  0  0  0  0  0
    1.5212    2.0780   26.6998 H   0  0  0  0  0  0  0  0  0  0  0  0
  1  2  1  0
  2  3  2  0
  3  4  1  0
  4  5  1  0
  5  6  3  0
  6  7  1  0
  7  8  1  0
  8  9  2  0
  9 10  1  0
 10 11  2  0
 11 12  1  0
 12 13  1  0
 13 14  2  0
 14 15  1  0
 14 16  1  0
 16 17  2  0
 17 18  1  0
 17 19  1  0
 19 20  1  0
 19 21  2  0
 21 22  1  0
  4 23  2  0
 23 24  1  0
 23 25  1  0
 25 26  1  0
 25 27  2  0
 27 28  1  0
 27  2  1  0
 11  7  1  0
 21 13  1  0
M  END
>  <plip>  (1) 
-0.07142857142857142

>  <filename>  (1) 
[H][c]1[n][c]([C]#[C][n]2[n][n][n][c]2[S][c]2[c]([H])[n][c]([H])[c]([H])[c]2[H])[c]([H])[c]([H])[c]1[H]

$$$$
