
     RDKit          3D

 28 29  0  0  0  0  0  0  0  0999 V2000
   10.1514    1.6315   21.3165 H   0  0  0  0  0  0  0  0  0  0  0  0
    9.6962    0.7584   21.0108 N   0  0  0  0  0  0  0  0  0  0  0  0
    8.6044    0.6515   21.6569 C   0  0  0  0  0  0  0  0  0  0  0  0
    7.5689   -0.7788   21.2098 S   0  0  0  0  0  0  0  0  0  0  0  0
    6.6321   -0.0150   19.8880 C   0  0  0  0  0  0  0  0  0  0  0  0
    7.1512    0.0367   18.5798 C   0  0  0  0  0  0  0  0  0  0  0  0
    8.1091   -0.4298   18.3545 H   0  0  0  0  0  0  0  0  0  0  0  0
    6.5436    0.6623   17.5665 N   0  0  0  0  0  0  0  0  0  0  0  0
    5.3877    1.2924   17.8243 C   0  0  0  0  0  0  0  0  0  0  0  0
    4.9284    1.8080   16.9823 H   0  0  0  0  0  0  0  0  0  0  0  0
    4.7882    1.3036   19.0867 C   0  0  0  0  0  0  0  0  0  0  0  0
    3.8660    1.8515   19.2401 H   0  0  0  0  0  0  0  0  0  0  0  0
    5.4187    0.6335   20.1368 C   0  0  0  0  0  0  0  0  0  0  0  0
    4.9921    0.6299   21.1415 H   0  0  0  0  0  0  0  0  0  0  0  0
    8.0270    1.6203   22.7060 C   0  0  0  0  0  0  0  0  0  0  0  0
    8.6759    2.8025   22.8466 N   0  0  0  0  0  0  0  0  0  0  0  0
    8.2187    3.6595   23.7452 C   0  0  0  0  0  0  0  0  0  0  0  0
    8.8367    4.8347   23.9578 O   0  0  0  0  0  0  0  0  0  0  0  0
    9.9468    5.1886   23.1487 C   0  0  0  0  0  0  0  0  0  0  0  0
   10.2530    6.1691   23.5118 H   0  0  0  0  0  0  0  0  0  0  0  0
   10.7628    4.4609   23.2402 H   0  0  0  0  0  0  0  0  0  0  0  0
    9.6451    5.2581   22.1040 H   0  0  0  0  0  0  0  0  0  0  0  0
    7.1024    3.4319   24.5644 C   0  0  0  0  0  0  0  0  0  0  0  0
    6.8436    4.2137   25.2653 H   0  0  0  0  0  0  0  0  0  0  0  0
    6.4373    2.2288   24.4303 C   0  0  0  0  0  0  0  0  0  0  0  0
    5.5756    1.9891   25.0503 H   0  0  0  0  0  0  0  0  0  0  0  0
    6.9084    1.3038   23.4806 C   0  0  0  0  0  0  0  0  0  0  0  0
    6.4087    0.3540   23.3568 H   0  0  0  0  0  0  0  0  0  0  0  0
  1  2  1  0
  2  3  2  3
  3  4  1  0
  4  5  1  0
  5  6  2  0
  6  7  1  0
  6  8  1  0
  8  9  2  0
  9 10  1  0
  9 11  1  0
 11 12  1  0
 11 13  2  0
 13 14  1  0
  3 15  1  0
 15 16  2  0
 16 17  1  0
 17 18  1  0
 18 19  1  0
 19 20  1  0
 19 21  1  0
 19 22  1  0
 17 23  2  0
 23 24  1  0
 23 25  1  0
 25 26  1  0
 25 27  2  0
 27 28  1  0
 13  5  1  0
 27 15  1  0
M  END
>  <plip>  (1) 
-0.034482758620689655

>  <filename>  (1) 
[H][N]=[C]([S][c]1[c]([H])[n][c]([H])[c]([H])[c]1[H])[c]1[n][c]([O][C]([H])([H])[H])[c]([H])[c]([H])[c]1[H]

$$$$
