
     RDKit          3D

 25 27  0  0  0  0  0  0  0  0999 V2000
    9.0827   -3.0534   22.8675 H   0  0  0  0  0  0  0  0  0  0  0  0
    8.5385   -2.1959   22.4684 C   0  0  0  0  0  0  0  0  0  0  0  0
    8.1814   -1.1653   23.1627 N   0  0  0  0  0  0  0  0  0  0  0  0
    7.5471   -0.2792   22.3442 C   0  0  0  0  0  0  0  0  0  0  0  0
    7.1718    0.9024   22.8773 N   0  0  0  0  0  0  0  0  0  0  0  0
    7.0406    1.7220   22.3101 H   0  0  0  0  0  0  0  0  0  0  0  0
    6.9881    1.1426   24.2010 C   0  0  0  0  0  0  0  0  0  0  0  0
    6.7957    2.3790   24.5305 N   0  0  0  0  0  0  0  0  0  0  0  0
    6.5669    2.4641   25.8811 C   0  0  0  0  0  0  0  0  0  0  0  0
    6.4186    3.4433   26.3274 H   0  0  0  0  0  0  0  0  0  0  0  0
    6.5555    1.2958   26.5632 C   0  0  0  0  0  0  0  0  0  0  0  0
    6.4050    1.1337   27.6204 H   0  0  0  0  0  0  0  0  0  0  0  0
    6.8812   -0.0226   25.4966 S   0  0  0  0  0  0  0  0  0  0  0  0
    7.3709   -0.6330   21.0176 C   0  0  0  0  0  0  0  0  0  0  0  0
    6.6672    0.0482   19.9204 C   0  0  0  0  0  0  0  0  0  0  0  0
    7.1675    0.0694   18.5928 C   0  0  0  0  0  0  0  0  0  0  0  0
    8.1134   -0.4164   18.3548 H   0  0  0  0  0  0  0  0  0  0  0  0
    6.5526    0.6756   17.5713 N   0  0  0  0  0  0  0  0  0  0  0  0
    5.3906    1.3004   17.8266 C   0  0  0  0  0  0  0  0  0  0  0  0
    4.9255    1.8028   16.9802 H   0  0  0  0  0  0  0  0  0  0  0  0
    4.7895    1.3217   19.0870 C   0  0  0  0  0  0  0  0  0  0  0  0
    3.8537    1.8496   19.2309 H   0  0  0  0  0  0  0  0  0  0  0  0
    5.4325    0.6779   20.1456 C   0  0  0  0  0  0  0  0  0  0  0  0
    4.9894    0.6347   21.1399 H   0  0  0  0  0  0  0  0  0  0  0  0
    8.0942   -2.1790   20.8144 S   0  0  0  0  0  0  0  0  0  0  0  0
  1  2  1  0
  2  3  2  0
  3  4  1  0
  4  5  1  0
  5  6  1  0
  5  7  1  0
  7  8  2  0
  8  9  1  0
  9 10  1  0
  9 11  2  0
 11 12  1  0
 11 13  1  0
  4 14  2  0
 14 15  1  0
 15 16  2  0
 16 17  1  0
 16 18  1  0
 18 19  2  0
 19 20  1  0
 19 21  1  0
 21 22  1  0
 21 23  2  0
 23 24  1  0
 14 25  1  0
 25  2  1  0
 13  7  1  0
 23 15  1  0
M  END
>  <plip>  (1) 
-0.03571428571428571

>  <filename>  (1) 
[H][c]1[n][c]([N]([H])[c]2[n][c]([H])[c]([H])[s]2)[c](-[c]2[c]([H])[n][c]([H])[c]([H])[c]2[H])[s]1

$$$$
