
     RDKit          3D

 31 33  0  0  0  0  0  0  0  0999 V2000
    4.9183    1.7796   16.9990 H   0  0  0  0  0  0  0  0  0  0  0  0
    5.4027    1.2945   17.8413 C   0  0  0  0  0  0  0  0  0  0  0  0
    6.5685    0.6823   17.5801 N   0  0  0  0  0  0  0  0  0  0  0  0
    7.1704    0.0578   18.5946 C   0  0  0  0  0  0  0  0  0  0  0  0
    8.1188   -0.4311   18.3761 H   0  0  0  0  0  0  0  0  0  0  0  0
    6.6441    0.0165   19.8894 C   0  0  0  0  0  0  0  0  0  0  0  0
    7.3721   -0.7225   20.9099 C   0  0  0  0  0  0  0  0  0  0  0  0
    7.5244   -2.0121   20.8992 N   0  0  0  0  0  0  0  0  0  0  0  0
    8.2431   -2.2487   22.0320 N   0  0  0  0  0  0  0  0  0  0  0  0
    8.5429   -3.1681   22.3044 H   0  0  0  0  0  0  0  0  0  0  0  0
    8.5685   -1.1475   22.7322 C   0  0  0  0  0  0  0  0  0  0  0  0
    9.4560   -1.0673   24.1366 S   0  0  0  0  0  0  0  0  0  0  0  0
    8.0027   -0.1382   21.9891 N   0  0  0  0  0  0  0  0  0  0  0  0
    8.0741    1.2899   22.2970 C   0  0  0  0  0  0  0  0  0  0  0  0
    8.3000    1.8404   21.3807 H   0  0  0  0  0  0  0  0  0  0  0  0
    8.9180    1.4406   22.9756 H   0  0  0  0  0  0  0  0  0  0  0  0
    6.8142    1.8568   22.9320 C   0  0  0  0  0  0  0  0  0  0  0  0
    6.1882    3.0032   22.4134 C   0  0  0  0  0  0  0  0  0  0  0  0
    6.5930    3.4934   21.5277 H   0  0  0  0  0  0  0  0  0  0  0  0
    5.0158    3.4983   22.9925 C   0  0  0  0  0  0  0  0  0  0  0  0
    4.5289    4.3728   22.5671 H   0  0  0  0  0  0  0  0  0  0  0  0
    4.4650    2.8756   24.1177 C   0  0  0  0  0  0  0  0  0  0  0  0
    3.5598    3.2532   24.5827 H   0  0  0  0  0  0  0  0  0  0  0  0
    5.1099    1.7559   24.6488 C   0  0  0  0  0  0  0  0  0  0  0  0
    4.4429    0.9790   26.0562 Cl  0  0  0  0  0  0  0  0  0  0  0  0
    6.2760    1.2475   24.0756 C   0  0  0  0  0  0  0  0  0  0  0  0
    6.7616    0.3793   24.5169 H   0  0  0  0  0  0  0  0  0  0  0  0
    5.4256    0.6521   20.1531 C   0  0  0  0  0  0  0  0  0  0  0  0
    5.0091    0.6275   21.1650 H   0  0  0  0  0  0  0  0  0  0  0  0
    4.7997    1.3149   19.1041 C   0  0  0  0  0  0  0  0  0  0  0  0
    3.8688    1.8475   19.2562 H   0  0  0  0  0  0  0  0  0  0  0  0
  1  2  1  0
  2  3  2  0
  3  4  1  0
  4  5  1  0
  4  6  2  0
  6  7  1  0
  7  8  2  0
  8  9  1  0
  9 10  1  0
  9 11  1  0
 11 12  2  0
 11 13  1  0
 13 14  1  0
 14 15  1  0
 14 16  1  0
 14 17  1  0
 17 18  2  0
 18 19  1  0
 18 20  1  0
 20 21  1  0
 20 22  2  0
 22 23  1  0
 22 24  1  0
 24 25  1  0
 24 26  2  0
 26 27  1  0
  6 28  1  0
 28 29  1  0
 28 30  2  0
 30 31  1  0
 30  2  1  0
 13  7  1  0
 26 17  1  0
M  END
>  <plip>  (1) 
-0.034482758620689655

>  <filename>  (1) 
[H][c]1[n][c]([H])[c](-[c]2[n][n]([H])[c](=[S])[n]2[C]([H])([H])[c]2[c]([H])[c]([H])[c]([H])[c]([Cl])[c]2[H])[c]([H])[c]1[H]

$$$$
