
     RDKit          3D

 26 28  0  0  0  0  0  0  0  0999 V2000
    9.0127   -3.1276   22.0140 H   0  0  0  0  0  0  0  0  0  0  0  0
    8.4791   -2.1861   21.9562 C   0  0  0  0  0  0  0  0  0  0  0  0
    8.2690   -1.3277   22.8974 N   0  0  0  0  0  0  0  0  0  0  0  0
    7.5556   -0.3368   22.2737 C   0  0  0  0  0  0  0  0  0  0  0  0
    7.1745    0.8004   22.9179 N   0  0  0  0  0  0  0  0  0  0  0  0
    6.8122    1.5440   22.3502 H   0  0  0  0  0  0  0  0  0  0  0  0
    7.3553    1.0381   24.3015 C   0  0  0  0  0  0  0  0  0  0  0  0
    6.7123    0.4634   24.9669 H   0  0  0  0  0  0  0  0  0  0  0  0
    8.7459    1.3480   24.7640 C   0  0  0  0  0  0  0  0  0  0  0  0
    9.0599    0.9671   25.7273 H   0  0  0  0  0  0  0  0  0  0  0  0
    9.5012    1.3650   23.9881 H   0  0  0  0  0  0  0  0  0  0  0  0
    7.7110    2.4278   24.7195 C   0  0  0  0  0  0  0  0  0  0  0  0
    7.8081    3.1878   23.9522 H   0  0  0  0  0  0  0  0  0  0  0  0
    7.3416    2.7968   25.6699 H   0  0  0  0  0  0  0  0  0  0  0  0
    7.3471   -0.6732   20.9539 C   0  0  0  0  0  0  0  0  0  0  0  0
    6.6481   -0.0058   19.8803 C   0  0  0  0  0  0  0  0  0  0  0  0
    7.1718    0.0476   18.5764 C   0  0  0  0  0  0  0  0  0  0  0  0
    8.1262   -0.4311   18.3646 H   0  0  0  0  0  0  0  0  0  0  0  0
    6.5680    0.6822   17.5683 N   0  0  0  0  0  0  0  0  0  0  0  0
    5.4014    1.2929   17.8396 C   0  0  0  0  0  0  0  0  0  0  0  0
    4.9146    1.7794   16.9996 H   0  0  0  0  0  0  0  0  0  0  0  0
    4.8016    1.3129   19.1046 C   0  0  0  0  0  0  0  0  0  0  0  0
    3.8704    1.8457   19.2606 H   0  0  0  0  0  0  0  0  0  0  0  0
    5.4403    0.6583   20.1526 C   0  0  0  0  0  0  0  0  0  0  0  0
    5.0136    0.6232   21.1595 H   0  0  0  0  0  0  0  0  0  0  0  0
    7.9809   -1.8743   20.7477 O   0  0  0  0  0  0  0  0  0  0  0  0
  1  2  1  0
  2  3  2  0
  3  4  1  0
  4  5  1  0
  5  6  1  0
  5  7  1  0
  7  8  1  0
  7  9  1  0
  9 10  1  0
  9 11  1  0
  9 12  1  0
 12 13  1  0
 12 14  1  0
  4 15  2  0
 15 16  1  0
 16 17  2  0
 17 18  1  0
 17 19  1  0
 19 20  2  0
 20 21  1  0
 20 22  1  0
 22 23  1  0
 22 24  2  0
 24 25  1  0
 15 26  1  0
 26  2  1  0
 12  7  1  0
 24 16  1  0
M  END
>  <plip>  (1) 
-0.034482758620689655

>  <filename>  (1) 
[H][c]1[n][c]([N]([H])[C]2([H])[C]([H])([H])[C]2([H])[H])[c](-[c]2[c]([H])[n][c]([H])[c]([H])[c]2[H])[o]1

$$$$
