
     RDKit          3D

 27 28  0  0  0  0  0  0  0  0999 V2000
    9.0871   -1.5785   21.3638 H   0  0  0  0  0  0  0  0  0  0  0  0
    8.6701   -1.1702   20.5343 N   0  0  0  0  0  0  0  0  0  0  0  0
    7.5532   -0.6780   20.8653 C   0  0  0  0  0  0  0  0  0  0  0  0
    6.9796   -0.9890   22.5441 S   0  0  0  0  0  0  0  0  0  0  0  0
    6.2404   -2.5864   22.0601 C   0  0  0  0  0  0  0  0  0  0  0  0
    5.2130   -2.5638   21.4273 O   0  0  0  0  0  0  0  0  0  0  0  0
    6.9419   -3.8778   22.3620 C   0  0  0  0  0  0  0  0  0  0  0  0
    8.1179   -3.9896   23.1210 C   0  0  0  0  0  0  0  0  0  0  0  0
    8.5972   -3.1110   23.5478 H   0  0  0  0  0  0  0  0  0  0  0  0
    8.7024   -5.2387   23.3409 C   0  0  0  0  0  0  0  0  0  0  0  0
    9.5735   -5.3553   23.9759 H   0  0  0  0  0  0  0  0  0  0  0  0
    8.1500   -6.3582   22.7212 C   0  0  0  0  0  0  0  0  0  0  0  0
    8.7929   -7.5295   22.8026 F   0  0  0  0  0  0  0  0  0  0  0  0
    6.9830   -6.2850   21.9628 C   0  0  0  0  0  0  0  0  0  0  0  0
    6.5627   -7.1755   21.5086 H   0  0  0  0  0  0  0  0  0  0  0  0
    6.3784   -5.0456   21.7957 C   0  0  0  0  0  0  0  0  0  0  0  0
    5.4626   -4.9552   21.2156 H   0  0  0  0  0  0  0  0  0  0  0  0
    6.6891   -0.0026   19.8754 C   0  0  0  0  0  0  0  0  0  0  0  0
    7.1852    0.0300   18.5601 C   0  0  0  0  0  0  0  0  0  0  0  0
    8.1207   -0.4679   18.3330 H   0  0  0  0  0  0  0  0  0  0  0  0
    6.5822    0.6489   17.5468 N   0  0  0  0  0  0  0  0  0  0  0  0
    5.4312    1.2786   17.8144 C   0  0  0  0  0  0  0  0  0  0  0  0
    4.9673    1.7805   16.9687 H   0  0  0  0  0  0  0  0  0  0  0  0
    4.8305    1.2873   19.0773 C   0  0  0  0  0  0  0  0  0  0  0  0
    3.8928    1.8152   19.2138 H   0  0  0  0  0  0  0  0  0  0  0  0
    5.4639    0.6301   20.1347 C   0  0  0  0  0  0  0  0  0  0  0  0
    5.0016    0.6288   21.1234 H   0  0  0  0  0  0  0  0  0  0  0  0
  1  2  1  0
  2  3  2  3
  3  4  1  0
  4  5  1  0
  5  6  2  0
  5  7  1  0
  7  8  2  0
  8  9  1  0
  8 10  1  0
 10 11  1  0
 10 12  2  0
 12 13  1  0
 12 14  1  0
 14 15  1  0
 14 16  2  0
 16 17  1  0
  3 18  1  0
 18 19  2  0
 19 20  1  0
 19 21  1  0
 21 22  2  0
 22 23  1  0
 22 24  1  0
 24 25  1  0
 24 26  2  0
 26 27  1  0
 16  7  1  0
 26 18  1  0
M  END
>  <plip>  (1) 
-0.06666666666666667

>  <filename>  (1) 
[H][N]=[C]([S][C](=[O])[c]1[c]([H])[c]([H])[c]([F])[c]([H])[c]1[H])[c]1[c]([H])[n][c]([H])[c]([H])[c]1[H]

$$$$
