
     RDKit          3D

 34 35  0  0  0  0  0  0  0  0999 V2000
    6.3609   -2.2896   27.0665 H   0  0  0  0  0  0  0  0  0  0  0  0
    5.5765   -2.0554   26.5351 O   0  0  0  0  0  0  0  0  0  0  0  0
    5.8744   -0.8457   25.8957 N   0  0  0  0  0  0  0  0  0  0  0  0
    5.0504   -0.2656   25.9130 H   0  0  0  0  0  0  0  0  0  0  0  0
    6.4868   -0.8448   24.6334 C   0  0  0  0  0  0  0  0  0  0  0  0
    7.1613   -1.7616   24.2111 O   0  0  0  0  0  0  0  0  0  0  0  0
    6.3110    0.4777   23.9836 C   0  0  0  0  0  0  0  0  0  0  0  0
    5.6225    1.1276   24.5142 H   0  0  0  0  0  0  0  0  0  0  0  0
    6.9671    0.9408   22.9131 C   0  0  0  0  0  0  0  0  0  0  0  0
    6.7440    1.9622   22.5860 H   0  0  0  0  0  0  0  0  0  0  0  0
    8.0169    0.2379   22.0835 C   0  0  0  0  0  0  0  0  0  0  0  0
    7.4150   -0.7133   20.9839 C   0  0  1  0  0  0  0  0  0  0  0  0
    8.2696   -1.2167   20.5042 H   0  0  0  0  0  0  0  0  0  0  0  0
    6.6179   -1.7643   21.4837 O   0  0  0  0  0  0  0  0  0  0  0  0
    5.9600   -1.3626   22.0729 H   0  0  0  0  0  0  0  0  0  0  0  0
    6.6519    0.0261   19.8972 C   0  0  0  0  0  0  0  0  0  0  0  0
    7.1447    0.0472   18.5841 C   0  0  0  0  0  0  0  0  0  0  0  0
    8.0874   -0.4565   18.3523 H   0  0  0  0  0  0  0  0  0  0  0  0
    6.5491    0.6640   17.5525 N   0  0  0  0  0  0  0  0  0  0  0  0
    5.3964    1.3002   17.8115 C   0  0  0  0  0  0  0  0  0  0  0  0
    4.9359    1.8149   16.9718 H   0  0  0  0  0  0  0  0  0  0  0  0
    4.7869    1.3242   19.0725 C   0  0  0  0  0  0  0  0  0  0  0  0
    3.8471    1.8559   19.2099 H   0  0  0  0  0  0  0  0  0  0  0  0
    5.4230    0.6724   20.1293 C   0  0  0  0  0  0  0  0  0  0  0  0
    4.9722    0.6707   21.1243 H   0  0  0  0  0  0  0  0  0  0  0  0
    9.0382    1.2418   21.4570 C   0  0  0  0  0  0  0  0  0  0  0  0
    9.1136    1.1502   20.3719 H   0  0  0  0  0  0  0  0  0  0  0  0
    8.8383    2.2870   21.7044 H   0  0  0  0  0  0  0  0  0  0  0  0
   10.2028    0.5844   22.2219 C   0  0  0  0  0  0  0  0  0  0  0  0
   10.9313    0.0977   21.5688 H   0  0  0  0  0  0  0  0  0  0  0  0
   10.7454    1.2471   22.9021 H   0  0  0  0  0  0  0  0  0  0  0  0
    9.2097   -0.3844   22.8956 C   0  0  0  0  0  0  0  0  0  0  0  0
    9.3694   -1.4457   22.6907 H   0  0  0  0  0  0  0  0  0  0  0  0
    9.1271   -0.2594   23.9780 H   0  0  0  0  0  0  0  0  0  0  0  0
  1  2  1  0
  2  3  1  0
  3  4  1  0
  3  5  1  0
  5  6  2  0
  5  7  1  0
  7  8  1  0
  7  9  2  3
  9 10  1  0
  9 11  1  0
 11 12  1  0
 12 13  1  6
 12 14  1  0
 14 15  1  0
 12 16  1  0
 16 17  2  0
 17 18  1  0
 17 19  1  0
 19 20  2  0
 20 21  1  0
 20 22  1  0
 22 23  1  0
 22 24  2  0
 24 25  1  0
 11 26  1  0
 26 27  1  0
 26 28  1  0
 26 29  1  0
 29 30  1  0
 29 31  1  0
 29 32  1  0
 32 33  1  0
 32 34  1  0
 32 11  1  0
 24 16  1  0
M  END
>  <plip>  (1) 
-0.07142857142857142

>  <filename>  (1) 
[H][O][N]([H])[C](=[O])[C]([H])=[C]([H])[C]1([C@@]([H])([O][H])[c]2[c]([H])[n][c]([H])[c]([H])[c]2[H])[C]([H])([H])[C]([H])([H])[C]1([H])[H]

$$$$
