
     RDKit          3D

 40 43  0  0  0  0  0  0  0  0999 V2000
    4.9841    2.1088   16.7860 H   0  0  0  0  0  0  0  0  0  0  0  0
    5.2980    1.4783   17.6153 C   0  0  0  0  0  0  0  0  0  0  0  0
    6.3024    0.6269   17.3563 N   0  0  0  0  0  0  0  0  0  0  0  0
    6.7106   -0.1515   18.3620 C   0  0  0  0  0  0  0  0  0  0  0  0
    7.5030   -0.8614   18.1287 H   0  0  0  0  0  0  0  0  0  0  0  0
    6.1651   -0.1192   19.6537 C   0  0  0  0  0  0  0  0  0  0  0  0
    6.7053   -1.0368   20.6664 C   0  0  0  0  0  0  0  0  0  0  0  0
    6.0307   -1.9580   21.3199 N   0  0  0  0  0  0  0  0  0  0  0  0
    6.9411   -2.6646   22.0234 N   0  0  0  0  0  0  0  0  0  0  0  0
    8.1258   -2.2157   21.8274 N   0  0  0  0  0  0  0  0  0  0  0  0
    8.0172   -1.1629   20.9843 N   0  0  0  0  0  0  0  0  0  0  0  0
    9.1932   -0.3389   20.7097 C   0  0  0  0  0  0  0  0  0  0  0  0
    8.9855    0.3075   19.8510 H   0  0  0  0  0  0  0  0  0  0  0  0
   10.0051   -1.0197   20.4242 H   0  0  0  0  0  0  0  0  0  0  0  0
    9.6544    0.4642   21.8026 N   0  0  0  0  0  0  0  0  0  0  0  0
    8.8333    1.5250   22.3713 C   0  0  0  0  0  0  0  0  0  0  0  0
    7.8288    1.1734   22.6556 H   0  0  0  0  0  0  0  0  0  0  0  0
    8.6912    2.3339   21.6426 H   0  0  0  0  0  0  0  0  0  0  0  0
    9.6558    1.9682   23.5901 C   0  0  0  0  0  0  0  0  0  0  0  0
   10.4564    2.6305   23.2319 H   0  0  0  0  0  0  0  0  0  0  0  0
    9.0768    2.5141   24.3450 H   0  0  0  0  0  0  0  0  0  0  0  0
   10.2732    0.6580   24.1117 C   0  0  2  0  0  0  0  0  0  0  0  0
    9.5746    0.1338   24.7774 H   0  0  0  0  0  0  0  0  0  0  0  0
   11.6749    0.7727   24.7512 C   0  0  0  0  0  0  0  0  0  0  0  0
   11.6932    0.3877   25.7808 H   0  0  0  0  0  0  0  0  0  0  0  0
   11.9696    1.8358   24.8263 H   0  0  0  0  0  0  0  0  0  0  0  0
   12.5734    0.0019   23.8814 N   0  0  0  0  0  0  0  0  0  0  0  0
   13.9591    0.4128   23.8173 C   0  0  0  0  0  0  0  0  0  0  0  0
   14.0922    1.4674   23.5106 H   0  0  0  0  0  0  0  0  0  0  0  0
   14.4721   -0.2024   23.0716 H   0  0  0  0  0  0  0  0  0  0  0  0
   14.4799    0.2444   24.7651 H   0  0  0  0  0  0  0  0  0  0  0  0
   11.9706   -0.0607   22.5534 C   0  0  0  0  0  0  0  0  0  0  0  0
   12.1657    0.8537   21.9542 H   0  0  0  0  0  0  0  0  0  0  0  0
   12.3581   -0.9242   21.9924 H   0  0  0  0  0  0  0  0  0  0  0  0
   10.4728   -0.1716   22.8265 C   0  0  2  0  0  0  0  0  0  0  0  0
   10.2016   -1.2237   22.9962 H   0  0  0  0  0  0  0  0  0  0  0  0
    5.0896    0.7440   19.9019 C   0  0  0  0  0  0  0  0  0  0  0  0
    4.6090    0.7677   20.8835 H   0  0  0  0  0  0  0  0  0  0  0  0
    4.6581    1.5632   18.8569 C   0  0  0  0  0  0  0  0  0  0  0  0
    3.8455    2.2703   18.9890 H   0  0  0  0  0  0  0  0  0  0  0  0
  1  2  1  0
  2  3  2  0
  3  4  1  0
  4  5  1  0
  4  6  2  0
  6  7  1  0
  7  8  2  0
  8  9  1  0
  9 10  2  0
 10 11  1  0
 11 12  1  0
 12 13  1  0
 12 14  1  0
 12 15  1  0
 15 16  1  0
 16 17  1  0
 16 18  1  0
 16 19  1  0
 19 20  1  0
 19 21  1  0
 19 22  1  0
 22 23  1  1
 22 24  1  0
 24 25  1  0
 24 26  1  0
 24 27  1  0
 27 28  1  0
 28 29  1  0
 28 30  1  0
 28 31  1  0
 27 32  1  0
 32 33  1  0
 32 34  1  0
 32 35  1  0
 35 36  1  1
  6 37  1  0
 37 38  1  0
 37 39  2  0
 39 40  1  0
 39  2  1  0
 11  7  1  0
 35 15  1  0
 35 22  1  0
M  END
>  <plip>  (1) 
-0.13793103448275862

>  <filename>  (1) 
[H][c]1[n][c]([H])[c](-[c]2[n][n][n][n]2[C]([H])([H])[N]2[C]([H])([H])[C]([H])([H])[C@]3([H])[C]([H])([H])[N]([C]([H])([H])[H])[C]([H])([H])[C@]23[H])[c]([H])[c]1[H]

$$$$
