
     RDKit          3D

 29 31  0  0  0  0  0  0  0  0999 V2000
    4.8187    1.3443   19.0493 C   0  0  0  0  0  0  0  0  0  0  0  0
    5.4307    1.2884   17.7927 C   0  0  0  0  0  0  0  0  0  0  0  0
    6.5900    0.6531   17.5577 N   0  0  0  0  0  0  0  0  0  0  0  0
    7.1954    0.0826   18.6053 C   0  0  0  0  0  0  0  0  0  0  0  0
    6.7138    0.1567   19.9180 C   0  0  0  0  0  0  0  0  0  0  0  0
    7.4616   -0.5236   21.0257 C   0  0  0  0  0  0  0  0  0  0  0  0
    6.9792   -1.8642   21.0117 O   0  0  0  0  0  0  0  0  0  0  0  0
    7.4582   -2.8205   21.8440 C   0  0  0  0  0  0  0  0  0  0  0  0
    8.3439   -2.6175   22.8850 C   0  0  0  0  0  0  0  0  0  0  0  0
    8.7339   -3.5924   23.7530 N   0  0  0  0  0  0  0  0  0  0  0  0
    8.2871   -4.8164   23.5732 C   0  0  0  0  0  0  0  0  0  0  0  0
    7.4223   -5.1875   22.5074 C   0  0  0  0  0  0  0  0  0  0  0  0
    6.9424   -6.5130   22.2914 C   0  0  0  0  0  0  0  0  0  0  0  0
    5.9931   -6.7053   21.3262 C   0  0  0  0  0  0  0  0  0  0  0  0
    5.6251   -5.6275   20.4861 C   0  0  0  0  0  0  0  0  0  0  0  0
    6.0808   -4.4069   20.6239 N   0  0  0  0  0  0  0  0  0  0  0  0
    6.9648   -4.1596   21.6353 C   0  0  0  0  0  0  0  0  0  0  0  0
    4.9480   -5.8021   19.6559 H   0  0  0  0  0  0  0  0  0  0  0  0
    5.5240   -7.6596   21.1640 H   0  0  0  0  0  0  0  0  0  0  0  0
    7.3337   -7.3451   22.8681 H   0  0  0  0  0  0  0  0  0  0  0  0
    8.5988   -5.5787   24.2840 H   0  0  0  0  0  0  0  0  0  0  0  0
    8.7874   -1.6341   23.0453 H   0  0  0  0  0  0  0  0  0  0  0  0
    7.2565   -0.0569   21.9986 H   0  0  0  0  0  0  0  0  0  0  0  0
    8.5457   -0.5195   20.8498 H   0  0  0  0  0  0  0  0  0  0  0  0
    5.4699    0.7542   20.1329 C   0  0  0  0  0  0  0  0  0  0  0  0
    5.0168    0.7329   21.1260 H   0  0  0  0  0  0  0  0  0  0  0  0
    8.1062   -0.4789   18.3876 H   0  0  0  0  0  0  0  0  0  0  0  0
    4.9720    1.7701   16.9316 H   0  0  0  0  0  0  0  0  0  0  0  0
    3.8642    1.8450   19.1652 H   0  0  0  0  0  0  0  0  0  0  0  0
  1  2  2  0
  2  3  1  0
  3  4  2  0
  4  5  1  0
  5  6  1  0
  6  7  1  0
  7  8  1  0
  8  9  2  0
  9 10  1  0
 10 11  2  0
 11 12  1  0
 12 13  2  0
 13 14  1  0
 14 15  2  0
 15 16  1  0
 16 17  2  0
 15 18  1  0
 14 19  1  0
 13 20  1  0
 11 21  1  0
  9 22  1  0
  6 23  1  0
  6 24  1  0
  5 25  2  0
 25 26  1  0
  4 27  1  0
  2 28  1  0
  1 29  1  0
 25  1  1  0
 17  8  1  0
 17 12  1  0
M  END
>  <plip>  (1) 
-0.13333333333333333

>  <filename>  (1) 
[H][c]1[n][c]([H])[c]([C]([H])([H])[O][c]2[c]([H])[n][c]([H])[c]3[c]([H])[c]([H])[c]([H])[n][c]23)[c]([H])[c]1[H]

$$$$
