
     RDKit          3D

 24 25  0  0  0  0  0  0  0  0999 V2000
    7.6325   -2.1862   19.9098 H   0  0  0  0  0  0  0  0  0  0  0  0
    7.8481   -1.8904   20.8647 N   0  0  0  0  0  0  0  0  0  0  0  0
    7.3943   -0.7069   21.0098 C   0  0  0  0  0  0  0  0  0  0  0  0
    7.5980   -0.0109   22.3220 C   0  0  0  0  0  0  0  0  0  0  0  0
    7.3684    1.3343   22.3980 N   0  0  0  0  0  0  0  0  0  0  0  0
    7.5810    1.9077   23.5725 C   0  0  0  0  0  0  0  0  0  0  0  0
    7.3918    2.9716   23.6646 H   0  0  0  0  0  0  0  0  0  0  0  0
    8.0252    1.1625   24.7135 C   0  0  0  0  0  0  0  0  0  0  0  0
    8.2397    1.7190   25.9226 N   0  0  0  0  0  0  0  0  0  0  0  0
    8.0886    2.6956   26.0705 H   0  0  0  0  0  0  0  0  0  0  0  0
    8.5642    1.0769   26.6279 H   0  0  0  0  0  0  0  0  0  0  0  0
    8.2559   -0.1567   24.6499 N   0  0  0  0  0  0  0  0  0  0  0  0
    8.0465   -0.7366   23.4494 C   0  0  0  0  0  0  0  0  0  0  0  0
    8.2284   -1.8049   23.3736 H   0  0  0  0  0  0  0  0  0  0  0  0
    6.6433   -0.0263   19.9042 C   0  0  0  0  0  0  0  0  0  0  0  0
    7.1661    0.0186   18.6033 C   0  0  0  0  0  0  0  0  0  0  0  0
    8.1285   -0.4231   18.3429 H   0  0  0  0  0  0  0  0  0  0  0  0
    6.5717    0.6593   17.5927 N   0  0  0  0  0  0  0  0  0  0  0  0
    5.4078    1.2788   17.8351 C   0  0  0  0  0  0  0  0  0  0  0  0
    4.9424    1.7906   16.9914 H   0  0  0  0  0  0  0  0  0  0  0  0
    4.8006    1.2839   19.0907 C   0  0  0  0  0  0  0  0  0  0  0  0
    3.8804    1.8322   19.2410 H   0  0  0  0  0  0  0  0  0  0  0  0
    5.4258    0.6211   20.1425 C   0  0  0  0  0  0  0  0  0  0  0  0
    4.9970    0.6432   21.1425 H   0  0  0  0  0  0  0  0  0  0  0  0
  1  2  1  0
  2  3  2  3
  3  4  1  0
  4  5  2  0
  5  6  1  0
  6  7  1  0
  6  8  2  0
  8  9  1  0
  9 10  1  0
  9 11  1  0
  8 12  1  0
 12 13  2  0
 13 14  1  0
  3 15  1  0
 15 16  2  0
 16 17  1  0
 16 18  1  0
 18 19  2  0
 19 20  1  0
 19 21  1  0
 21 22  1  0
 21 23  2  0
 23 24  1  0
 13  4  1  0
 23 15  1  0
M  END
>  <plip>  (1) 
-0.03333333333333333

>  <filename>  (1) 
[H][N]=[C]([c]1[n][c]([H])[c]([N]([H])[H])[n][c]1[H])[c]1[c]([H])[n][c]([H])[c]([H])[c]1[H]

$$$$
