
     RDKit          3D

 38 39  0  0  0  0  0  0  0  0999 V2000
    4.9491    1.7097   17.0008 H   0  0  0  0  0  0  0  0  0  0  0  0
    5.4173    1.2465   17.8659 C   0  0  0  0  0  0  0  0  0  0  0  0
    6.5827    0.6195   17.6432 N   0  0  0  0  0  0  0  0  0  0  0  0
    7.1979    0.0764   18.7023 C   0  0  0  0  0  0  0  0  0  0  0  0
    8.1287   -0.4418   18.4973 H   0  0  0  0  0  0  0  0  0  0  0  0
    6.7225    0.1299   20.0452 C   0  0  0  0  0  0  0  0  0  0  0  0
    7.4719   -0.3423   21.1334 N   0  0  0  0  0  0  0  0  0  0  0  0
    8.6178   -1.2128   20.9075 C   0  0  0  0  0  0  0  0  0  0  0  0
    9.4602   -0.6680   20.4682 H   0  0  0  0  0  0  0  0  0  0  0  0
    8.3343   -2.0282   20.2353 H   0  0  0  0  0  0  0  0  0  0  0  0
    8.9165   -1.7363   22.3041 C   0  0  0  0  0  0  0  0  0  0  0  0
    9.1625   -2.8010   22.2918 H   0  0  0  0  0  0  0  0  0  0  0  0
    9.7329   -1.1862   22.7832 H   0  0  0  0  0  0  0  0  0  0  0  0
    7.7105   -1.5667   23.0388 O   0  0  0  0  0  0  0  0  0  0  0  0
    6.8520   -0.6562   22.3946 C   0  0  1  0  0  0  0  0  0  0  0  0
    5.8701   -1.1500   22.2893 H   0  0  0  0  0  0  0  0  0  0  0  0
    6.7049    0.5954   23.0637 N   0  0  0  0  0  0  0  0  0  0  0  0
    7.4421    1.2505   22.8775 H   0  0  0  0  0  0  0  0  0  0  0  0
    6.3385    0.5998   24.3628 C   0  0  0  0  0  0  0  0  0  0  0  0
    5.8390   -0.3327   24.9514 O   0  0  0  0  0  0  0  0  0  0  0  0
    6.5883    1.8292   24.8456 O   0  0  0  0  0  0  0  0  0  0  0  0
    6.0630    2.2163   26.1422 C   0  0  0  0  0  0  0  0  0  0  0  0
    6.7762    1.3923   27.2124 C   0  0  0  0  0  0  0  0  0  0  0  0
    6.5162    0.3342   27.1060 H   0  0  0  0  0  0  0  0  0  0  0  0
    7.8610    1.5060   27.1008 H   0  0  0  0  0  0  0  0  0  0  0  0
    6.4836    1.7413   28.2075 H   0  0  0  0  0  0  0  0  0  0  0  0
    6.4185    3.6990   26.2538 C   0  0  0  0  0  0  0  0  0  0  0  0
    5.9262    4.2731   25.4579 H   0  0  0  0  0  0  0  0  0  0  0  0
    7.5036    3.8420   26.1794 H   0  0  0  0  0  0  0  0  0  0  0  0
    6.0814    4.0913   27.2209 H   0  0  0  0  0  0  0  0  0  0  0  0
    4.5427    2.0269   26.1795 C   0  0  0  0  0  0  0  0  0  0  0  0
    4.0742    2.5789   25.3559 H   0  0  0  0  0  0  0  0  0  0  0  0
    4.2899    0.9664   26.0873 H   0  0  0  0  0  0  0  0  0  0  0  0
    4.1500    2.4106   27.1262 H   0  0  0  0  0  0  0  0  0  0  0  0
    5.4569    0.7319   20.2304 C   0  0  0  0  0  0  0  0  0  0  0  0
    5.0168    0.7652   21.2253 H   0  0  0  0  0  0  0  0  0  0  0  0
    4.8118    1.2989   19.1274 C   0  0  0  0  0  0  0  0  0  0  0  0
    3.8513    1.7974   19.2333 H   0  0  0  0  0  0  0  0  0  0  0  0
  1  2  1  0
  2  3  2  0
  3  4  1  0
  4  5  1  0
  4  6  2  0
  6  7  1  0
  7  8  1  0
  8  9  1  0
  8 10  1  0
  8 11  1  0
 11 12  1  0
 11 13  1  0
 11 14  1  0
 14 15  1  0
 15 16  1  6
 15 17  1  0
 17 18  1  0
 17 19  1  0
 19 20  2  0
 19 21  1  0
 21 22  1  0
 22 23  1  0
 23 24  1  0
 23 25  1  0
 23 26  1  0
 22 27  1  0
 27 28  1  0
 27 29  1  0
 27 30  1  0
 22 31  1  0
 31 32  1  0
 31 33  1  0
 31 34  1  0
  6 35  1  0
 35 36  1  0
 35 37  2  0
 37 38  1  0
 37  2  1  0
 15  7  1  0
M  END
>  <plip>  (1) 
-0.03571428571428571

>  <filename>  (1) 
[H][c]1[n][c]([H])[c]([N]2[C]([H])([H])[C]([H])([H])[O][C@@]2([H])[N]([H])[C](=[O])[O][C]([C]([H])([H])[H])([C]([H])([H])[H])[C]([H])([H])[H])[c]([H])[c]1[H]

$$$$
