
     RDKit          3D

 45 47  0  0  0  0  0  0  0  0999 V2000
    8.3163    3.2215   22.9039 C   0  0  0  0  0  0  0  0  0  0  0  0
    8.1410    1.7240   22.6867 C   0  0  0  0  0  0  0  0  0  0  0  0
    8.8936    1.2076   21.4636 C   0  0  0  0  0  0  0  0  0  0  0  0
    8.7398   -0.3021   21.2336 C   0  0  0  0  0  0  0  0  0  0  0  0
    7.3528   -0.7193   20.9535 N   0  0  0  0  0  0  0  0  0  0  0  0
    6.6591   -1.8043   21.5213 C   0  0  0  0  0  0  0  0  0  0  0  0
    5.6139   -2.1985   21.0490 O   0  0  0  0  0  0  0  0  0  0  0  0
    7.2864   -2.4574   22.7852 C   0  0  0  0  0  0  0  0  0  0  0  0
    7.2275   -1.5913   24.0547 C   0  0  0  0  0  0  0  0  0  0  0  0
    6.3975   -2.4693   24.9629 C   0  0  0  0  0  0  0  0  0  0  0  0
    6.0356   -3.5571   24.3943 N   0  0  0  0  0  0  0  0  0  0  0  0
    6.5708   -3.6426   23.1346 O   0  0  0  0  0  0  0  0  0  0  0  0
    6.0345   -2.0878   26.3464 C   0  0  0  0  0  0  0  0  0  0  0  0
    6.4518   -0.8505   26.8855 C   0  0  0  0  0  0  0  0  0  0  0  0
    6.1082   -0.5020   28.1845 C   0  0  0  0  0  0  0  0  0  0  0  0
    6.5171    0.6790   28.6741 F   0  0  0  0  0  0  0  0  0  0  0  0
    5.3528   -1.3388   28.9999 C   0  0  0  0  0  0  0  0  0  0  0  0
    4.9343   -2.5662   28.4861 C   0  0  0  0  0  0  0  0  0  0  0  0
    5.2728   -2.9278   27.1813 C   0  0  0  0  0  0  0  0  0  0  0  0
    4.8448   -4.1127   26.7418 F   0  0  0  0  0  0  0  0  0  0  0  0
    4.3485   -3.2572   29.0822 H   0  0  0  0  0  0  0  0  0  0  0  0
    5.1136   -1.0349   30.0126 H   0  0  0  0  0  0  0  0  0  0  0  0
    7.0433   -0.1414   26.3121 H   0  0  0  0  0  0  0  0  0  0  0  0
    8.2155   -1.3877   24.4853 H   0  0  0  0  0  0  0  0  0  0  0  0
    6.7291   -0.6252   23.8931 H   0  0  0  0  0  0  0  0  0  0  0  0
    8.2918   -2.8116   22.5467 H   0  0  0  0  0  0  0  0  0  0  0  0
    6.6751    0.0027   19.9057 C   0  0  0  0  0  0  0  0  0  0  0  0
    5.4574    0.6481   20.1662 C   0  0  0  0  0  0  0  0  0  0  0  0
    4.8212    1.3130   19.1104 C   0  0  0  0  0  0  0  0  0  0  0  0
    5.4034    1.2959   17.8377 C   0  0  0  0  0  0  0  0  0  0  0  0
    6.5674    0.6809   17.5753 N   0  0  0  0  0  0  0  0  0  0  0  0
    7.1828    0.0699   18.5959 C   0  0  0  0  0  0  0  0  0  0  0  0
    8.1207   -0.4298   18.3675 H   0  0  0  0  0  0  0  0  0  0  0  0
    4.9156    1.7833   16.9947 H   0  0  0  0  0  0  0  0  0  0  0  0
    3.8829    1.8368   19.2623 H   0  0  0  0  0  0  0  0  0  0  0  0
    5.0152    0.6060   21.1653 H   0  0  0  0  0  0  0  0  0  0  0  0
    9.1112   -0.8246   22.1199 H   0  0  0  0  0  0  0  0  0  0  0  0
    9.3888   -0.6005   20.3972 H   0  0  0  0  0  0  0  0  0  0  0  0
    9.9620    1.4330   21.5770 H   0  0  0  0  0  0  0  0  0  0  0  0
    8.5701    1.7623   20.5741 H   0  0  0  0  0  0  0  0  0  0  0  0
    7.0736    1.4959   22.5739 H   0  0  0  0  0  0  0  0  0  0  0  0
    8.4849    1.1848   23.5798 H   0  0  0  0  0  0  0  0  0  0  0  0
    7.7678    3.5663   23.7867 H   0  0  0  0  0  0  0  0  0  0  0  0
    9.3713    3.4842   23.0412 H   0  0  0  0  0  0  0  0  0  0  0  0
    7.9489    3.7885   22.0415 H   0  0  0  0  0  0  0  0  0  0  0  0
  1  2  1  0
  2  3  1  0
  3  4  1  0
  4  5  1  0
  5  6  1  0
  6  7  2  0
  6  8  1  0
  8  9  1  0
  9 10  1  0
 10 11  2  0
 11 12  1  0
 10 13  1  0
 13 14  2  0
 14 15  1  0
 15 16  1  0
 15 17  2  0
 17 18  1  0
 18 19  2  0
 19 20  1  0
 18 21  1  0
 17 22  1  0
 14 23  1  0
  9 24  1  0
  9 25  1  0
  8 26  1  0
  5 27  1  0
 27 28  2  0
 28 29  1  0
 29 30  2  0
 30 31  1  0
 31 32  2  0
 32 33  1  0
 30 34  1  0
 29 35  1  0
 28 36  1  0
  4 37  1  0
  4 38  1  0
  3 39  1  0
  3 40  1  0
  2 41  1  0
  2 42  1  0
  1 43  1  0
  1 44  1  0
  1 45  1  0
 12  8  1  0
 19 13  1  0
 32 27  1  0
M  END
>  <plip>  (1) 
-0.07142857142857142

>  <filename>  (1) 
[H][c]1[n][c]([H])[c]([N]([C](=[O])[C]2([H])[O][N]=[C]([c]3[c]([H])[c]([F])[c]([H])[c]([H])[c]3[F])[C]2([H])[H])[C]([H])([H])[C]([H])([H])[C]([H])([H])[C]([H])([H])[H])[c]([H])[c]1[H]

$$$$
