
     RDKit          3D

 32 33  0  0  0  0  0  0  0  0999 V2000
    5.8136   -2.5870   21.0619 O   0  0  0  0  0  0  0  0  0  0  0  0
    6.6077   -1.8170   21.5627 C   0  0  0  0  0  0  0  0  0  0  0  0
    7.1841   -2.0707   22.9716 C   0  0  0  0  0  0  0  0  0  0  0  0
    7.5707   -0.8803   23.6508 O   0  0  0  0  0  0  0  0  0  0  0  0
    8.7458   -0.9776   24.4538 C   0  0  0  0  0  0  0  0  0  0  0  0
   10.0347   -0.9257   23.6406 C   0  0  0  0  0  0  0  0  0  0  0  0
   10.5947    0.2788   23.3164 C   0  0  0  0  0  0  0  0  0  0  0  0
   11.8499    0.3623   22.5888 C   0  0  0  0  0  0  0  0  0  0  0  0
   12.5004    1.3633   22.3504 O   0  0  0  0  0  0  0  0  0  0  0  0
   12.3670   -0.8568   22.1674 N   0  0  0  0  0  0  0  0  0  0  0  0
   11.8386   -2.0758   22.4824 C   0  0  0  0  0  0  0  0  0  0  0  0
   10.6940   -2.1383   23.2165 C   0  0  0  0  0  0  0  0  0  0  0  0
   10.3207   -3.1048   23.5360 H   0  0  0  0  0  0  0  0  0  0  0  0
   12.4074   -2.9541   22.2170 H   0  0  0  0  0  0  0  0  0  0  0  0
   13.2644   -0.6893   21.7342 H   0  0  0  0  0  0  0  0  0  0  0  0
   10.1690    1.2247   23.6155 H   0  0  0  0  0  0  0  0  0  0  0  0
    8.7272   -1.8889   25.0710 H   0  0  0  0  0  0  0  0  0  0  0  0
    8.6841   -0.1062   25.1134 H   0  0  0  0  0  0  0  0  0  0  0  0
    8.0419   -2.7465   22.8402 H   0  0  0  0  0  0  0  0  0  0  0  0
    6.4101   -2.6107   23.5288 H   0  0  0  0  0  0  0  0  0  0  0  0
    7.1560   -0.7226   20.9273 N   0  0  0  0  0  0  0  0  0  0  0  0
    6.5721   -0.0563   19.7977 C   0  0  0  0  0  0  0  0  0  0  0  0
    5.3583    0.6312   19.9163 C   0  0  0  0  0  0  0  0  0  0  0  0
    4.8823    1.3461   18.8051 C   0  0  0  0  0  0  0  0  0  0  0  0
    5.6287    1.3436   17.6231 C   0  0  0  0  0  0  0  0  0  0  0  0
    6.7891    0.6776   17.4925 N   0  0  0  0  0  0  0  0  0  0  0  0
    7.2460    0.0101   18.5622 C   0  0  0  0  0  0  0  0  0  0  0  0
    8.2078   -0.4914   18.4679 H   0  0  0  0  0  0  0  0  0  0  0  0
    5.2884    1.8980   16.7472 H   0  0  0  0  0  0  0  0  0  0  0  0
    3.9636    1.9212   18.8476 H   0  0  0  0  0  0  0  0  0  0  0  0
    4.8138    0.6290   20.8604 H   0  0  0  0  0  0  0  0  0  0  0  0
    7.6311   -0.1136   21.5784 H   0  0  0  0  0  0  0  0  0  0  0  0
  1  2  2  0
  2  3  1  0
  3  4  1  0
  4  5  1  0
  5  6  1  0
  6  7  2  0
  7  8  1  0
  8  9  2  0
  8 10  1  0
 10 11  1  0
 11 12  2  0
 12 13  1  0
 11 14  1  0
 10 15  1  0
  7 16  1  0
  5 17  1  0
  5 18  1  0
  3 19  1  0
  3 20  1  0
  2 21  1  0
 21 22  1  0
 22 23  2  0
 23 24  1  0
 24 25  2  0
 25 26  1  0
 26 27  2  0
 27 28  1  0
 25 29  1  0
 24 30  1  0
 23 31  1  0
 21 32  1  0
 12  6  1  0
 27 22  1  0
M  END
>  <plip>  (1) 
-0.07142857142857142

>  <filename>  (1) 
[H][c]1[n][c]([H])[c]([N]([H])[C](=[O])[C]([H])([H])[O][C]([H])([H])[c]2[c]([H])[c]([H])[n]([H])[c](=[O])[c]2[H])[c]([H])[c]1[H]

$$$$
