
     RDKit          3D

 21 22  0  0  0  0  0  0  0  0999 V2000
    9.1645   -2.9375   22.0471 H   0  0  0  0  0  0  0  0  0  0  0  0
    8.5359   -2.0668   21.9139 C   0  0  0  0  0  0  0  0  0  0  0  0
    8.1815   -1.2301   22.9385 N   0  0  0  0  0  0  0  0  0  0  0  0
    7.4700   -0.3507   22.2933 C   0  0  0  0  0  0  0  0  0  0  0  0
    6.8849    0.7306   22.7905 O   0  0  0  0  0  0  0  0  0  0  0  0
    7.0353    0.9840   24.1587 C   0  0  0  0  0  0  0  0  0  0  0  0
    6.6787    0.1694   24.8041 H   0  0  0  0  0  0  0  0  0  0  0  0
    6.2902    2.0731   24.3735 F   0  0  0  0  0  0  0  0  0  0  0  0
    8.3041    1.3054   24.4417 F   0  0  0  0  0  0  0  0  0  0  0  0
    7.3595   -0.6371   20.9646 N   0  0  0  0  0  0  0  0  0  0  0  0
    6.6553    0.0164   19.9141 C   0  0  0  0  0  0  0  0  0  0  0  0
    7.1792    0.0472   18.6037 C   0  0  0  0  0  0  0  0  0  0  0  0
    8.1245   -0.4390   18.3758 H   0  0  0  0  0  0  0  0  0  0  0  0
    6.5723    0.6698   17.5917 N   0  0  0  0  0  0  0  0  0  0  0  0
    5.4060    1.2888   17.8423 C   0  0  0  0  0  0  0  0  0  0  0  0
    4.9213    1.7788   16.9979 H   0  0  0  0  0  0  0  0  0  0  0  0
    4.8083    1.3020   19.1077 C   0  0  0  0  0  0  0  0  0  0  0  0
    3.8773    1.8394   19.2611 H   0  0  0  0  0  0  0  0  0  0  0  0
    5.4369    0.6514   20.1717 C   0  0  0  0  0  0  0  0  0  0  0  0
    5.0116    0.6395   21.1758 H   0  0  0  0  0  0  0  0  0  0  0  0
    8.0830   -1.7659   20.7235 N   0  0  0  0  0  0  0  0  0  0  0  0
  1  2  1  0
  2  3  1  0
  3  4  2  0
  4  5  1  0
  5  6  1  0
  6  7  1  0
  6  8  1  0
  6  9  1  0
  4 10  1  0
 10 11  1  0
 11 12  2  0
 12 13  1  0
 12 14  1  0
 14 15  2  0
 15 16  1  0
 15 17  1  0
 17 18  1  0
 17 19  2  0
 19 20  1  0
 10 21  1  0
 21  2  2  0
 19 11  1  0
M  END
>  <plip>  (1) 
-0.0

>  <filename>  (1) 
[H][c]1[n][c]([O][C]([H])([F])[F])[n](-[c]2[c]([H])[n][c]([H])[c]([H])[c]2[H])[n]1

$$$$
