
     RDKit          3D

 31 33  0  0  0  0  0  0  0  0999 V2000
    5.0255    1.7891   16.9207 H   0  0  0  0  0  0  0  0  0  0  0  0
    5.4556    1.2792   17.7829 C   0  0  0  0  0  0  0  0  0  0  0  0
    6.6186    0.6483   17.5796 N   0  0  0  0  0  0  0  0  0  0  0  0
    7.1769    0.0287   18.6290 C   0  0  0  0  0  0  0  0  0  0  0  0
    8.1190   -0.4811   18.4430 H   0  0  0  0  0  0  0  0  0  0  0  0
    6.6182    0.0120   19.9037 C   0  0  0  0  0  0  0  0  0  0  0  0
    7.3466   -0.7679   20.9655 C   0  0  0  0  0  0  0  0  0  0  0  0
    8.7520   -0.6601   20.8312 O   0  0  0  0  0  0  0  0  0  0  0  0
    9.4299    0.4548   21.2577 C   0  0  0  0  0  0  0  0  0  0  0  0
    8.8293    1.6852   21.5604 C   0  0  0  0  0  0  0  0  0  0  0  0
    7.7501    1.7707   21.6312 H   0  0  0  0  0  0  0  0  0  0  0  0
    9.6393    2.7918   21.8243 C   0  0  0  0  0  0  0  0  0  0  0  0
    9.1947    3.7557   22.0572 H   0  0  0  0  0  0  0  0  0  0  0  0
   11.0293    2.6683   21.8210 C   0  0  0  0  0  0  0  0  0  0  0  0
   12.0017    4.0894   22.0827 Cl  0  0  0  0  0  0  0  0  0  0  0  0
   11.6320    1.4204   21.6273 C   0  0  0  0  0  0  0  0  0  0  0  0
   12.7142    1.3279   21.6823 H   0  0  0  0  0  0  0  0  0  0  0  0
   10.8243    0.3118   21.3569 C   0  0  0  0  0  0  0  0  0  0  0  0
   11.2599   -0.6695   21.1963 H   0  0  0  0  0  0  0  0  0  0  0  0
    6.9178   -0.3631   22.2366 O   0  0  0  0  0  0  0  0  0  0  0  0
    6.9631   -1.5159   23.0641 C   0  0  0  0  0  0  0  0  0  0  0  0
    6.2493   -1.3999   23.8852 H   0  0  0  0  0  0  0  0  0  0  0  0
    7.9734   -1.6710   23.4606 H   0  0  0  0  0  0  0  0  0  0  0  0
    6.5478   -2.5916   22.0749 C   0  0  0  0  0  0  0  0  0  0  0  0
    6.9468   -3.5832   22.3026 H   0  0  0  0  0  0  0  0  0  0  0  0
    5.4550   -2.6459   21.9991 H   0  0  0  0  0  0  0  0  0  0  0  0
    7.1057   -2.1334   20.8516 O   0  0  0  0  0  0  0  0  0  0  0  0
    5.4044    0.6782   20.1115 C   0  0  0  0  0  0  0  0  0  0  0  0
    4.9483    0.7047   21.1040 H   0  0  0  0  0  0  0  0  0  0  0  0
    4.8108    1.3178   19.0258 C   0  0  0  0  0  0  0  0  0  0  0  0
    3.8774    1.8583   19.1280 H   0  0  0  0  0  0  0  0  0  0  0  0
  1  2  1  0
  2  3  2  0
  3  4  1  0
  4  5  1  0
  4  6  2  0
  6  7  1  0
  7  8  1  0
  8  9  1  0
  9 10  2  0
 10 11  1  0
 10 12  1  0
 12 13  1  0
 12 14  2  0
 14 15  1  0
 14 16  1  0
 16 17  1  0
 16 18  2  0
 18 19  1  0
  7 20  1  0
 20 21  1  0
 21 22  1  0
 21 23  1  0
 21 24  1  0
 24 25  1  0
 24 26  1  0
 24 27  1  0
  6 28  1  0
 28 29  1  0
 28 30  2  0
 30 31  1  0
 30  2  1  0
 27  7  1  0
 18  9  1  0
M  END
>  <plip>  (1) 
-0.10714285714285714

>  <filename>  (1) 
[H][c]1[n][c]([H])[c]([C]2([O][c]3[c]([H])[c]([H])[c]([Cl])[c]([H])[c]3[H])[O][C]([H])([H])[C]([H])([H])[O]2)[c]([H])[c]1[H]

$$$$
