
     RDKit          3D

 38 40  0  0  0  0  0  0  0  0999 V2000
    4.7538   -5.2877   21.4998 O   0  0  0  0  0  0  0  0  0  0  0  0
    5.5862   -4.3682   22.1938 C   0  0  0  0  0  0  0  0  0  0  0  0
    6.3719   -3.6381   21.0922 C   0  0  0  0  0  0  0  0  0  0  0  0
    7.2950   -2.5664   21.6778 N   0  0  0  0  0  4  0  0  0  0  0  0
    8.1534   -1.7017   20.7280 C   0  0  0  0  0  0  0  0  0  0  0  0
    7.4096   -0.3827   21.0757 C   0  0  0  0  0  0  0  0  0  0  0  0
    8.2400    0.5741   21.6574 F   0  0  0  0  0  0  0  0  0  0  0  0
    6.6439    0.2527   19.9444 C   0  0  0  0  0  0  0  0  0  0  0  0
    5.4010    0.8763   20.1262 C   0  0  0  0  0  0  0  0  0  0  0  0
    4.7646    1.4367   19.0171 C   0  0  0  0  0  0  0  0  0  0  0  0
    5.3951    1.3710   17.7717 C   0  0  0  0  0  0  0  0  0  0  0  0
    6.5902    0.7920   17.5787 N   0  0  0  0  0  0  0  0  0  0  0  0
    7.1882    0.2649   18.6475 C   0  0  0  0  0  0  0  0  0  0  0  0
    8.1570   -0.2035   18.4723 H   0  0  0  0  0  0  0  0  0  0  0  0
    4.9293    1.8008   16.8864 H   0  0  0  0  0  0  0  0  0  0  0  0
    3.7997    1.9252   19.1058 H   0  0  0  0  0  0  0  0  0  0  0  0
    4.9440    0.9231   21.1166 H   0  0  0  0  0  0  0  0  0  0  0  0
    6.6003   -1.2122   22.1192 C   0  0  0  0  0  0  0  0  0  0  0  0
    5.5351   -1.2728   21.9306 H   0  0  0  0  0  0  0  0  0  0  0  0
    6.8322   -0.9723   23.1521 H   0  0  0  0  0  0  0  0  0  0  0  0
    9.1986   -1.6999   21.0211 H   0  0  0  0  0  0  0  0  0  0  0  0
    8.0199   -1.9835   19.6957 H   0  0  0  0  0  0  0  0  0  0  0  0
    7.8353   -3.0198   22.4507 H   0  0  0  0  0  0  0  0  0  0  0  0
    6.9586   -4.3616   20.5225 H   0  0  0  0  0  0  0  0  0  0  0  0
    5.6572   -3.1830   20.4060 H   0  0  0  0  0  0  0  0  0  0  0  0
    6.5249   -5.0749   23.1646 C   0  0  0  0  0  0  0  0  0  0  0  0
    7.4177   -6.0415   22.6621 C   0  0  0  0  0  0  0  0  0  0  0  0
    8.4915   -6.5097   23.4123 C   0  0  0  0  0  0  0  0  0  0  0  0
    8.6596   -6.0651   24.7299 C   0  0  0  0  0  0  0  0  0  0  0  0
    7.7250   -5.1903   25.2925 C   0  0  0  0  0  0  0  0  0  0  0  0
    6.6629   -4.7105   24.5157 C   0  0  0  0  0  0  0  0  0  0  0  0
    5.5856   -3.5454   25.2547 Cl  0  0  0  0  0  0  0  0  0  0  0  0
    7.7853   -4.8978   26.3366 H   0  0  0  0  0  0  0  0  0  0  0  0
    9.5133   -6.3860   25.3250 H   0  0  0  0  0  0  0  0  0  0  0  0
    9.1718   -7.2273   22.9539 H   0  0  0  0  0  0  0  0  0  0  0  0
    7.2800   -6.4085   21.6490 H   0  0  0  0  0  0  0  0  0  0  0  0
    4.9907   -3.6303   22.7485 H   0  0  0  0  0  0  0  0  0  0  0  0
    4.3434   -5.8629   22.1643 H   0  0  0  0  0  0  0  0  0  0  0  0
  1  2  1  0
  2  3  1  0
  3  4  1  0
  4  5  1  0
  5  6  1  0
  6  7  1  0
  6  8  1  0
  8  9  2  0
  9 10  1  0
 10 11  2  0
 11 12  1  0
 12 13  2  0
 13 14  1  0
 11 15  1  0
 10 16  1  0
  9 17  1  0
  6 18  1  0
 18 19  1  0
 18 20  1  0
  5 21  1  0
  5 22  1  0
  4 23  1  0
  3 24  1  0
  3 25  1  0
  2 26  1  0
 26 27  2  0
 27 28  1  0
 28 29  2  0
 29 30  1  0
 30 31  2  0
 31 32  1  0
 30 33  1  0
 29 34  1  0
 28 35  1  0
 27 36  1  0
  2 37  1  0
  1 38  1  0
 18  4  1  0
 31 26  1  0
 13  8  1  0
M  CHG  1   4   1
M  END
>  <plip>  (1) 
-0.1

>  <filename>  (1) 
[H][O][C]([H])([c]1[c]([H])[c]([H])[c]([H])[c]([H])[c]1[Cl])[C]([H])([H])[N+]1([H])[C]([H])([H])[C]([F])([c]2[c]([H])[n][c]([H])[c]([H])[c]2[H])[C]1([H])[H]

$$$$
