
     RDKit          3D

 34 36  0  0  0  0  0  0  0  0999 V2000
    4.9513    1.7842   16.9955 H   0  0  0  0  0  0  0  0  0  0  0  0
    5.4077    1.2889   17.8469 C   0  0  0  0  0  0  0  0  0  0  0  0
    6.5782    0.6760   17.6131 N   0  0  0  0  0  0  0  0  0  0  0  0
    7.1962    0.0986   18.6461 C   0  0  0  0  0  0  0  0  0  0  0  0
    8.1425   -0.3965   18.4216 H   0  0  0  0  0  0  0  0  0  0  0  0
    6.6809    0.0990   19.9598 C   0  0  0  0  0  0  0  0  0  0  0  0
    7.3811   -0.5587   21.0157 N   0  0  0  0  0  0  0  0  0  0  0  0
    7.8807   -1.8336   20.9406 C   0  0  0  0  0  0  0  0  0  0  0  0
    7.6619   -2.4096   20.0701 H   0  0  0  0  0  0  0  0  0  0  0  0
    8.4437   -2.2558   22.0380 N   0  0  0  0  0  0  0  0  0  0  0  0
    8.2659   -1.2172   22.9200 C   0  0  0  0  0  0  0  0  0  0  0  0
    8.6233   -1.2822   23.9358 H   0  0  0  0  0  0  0  0  0  0  0  0
    7.5942   -0.1673   22.3303 C   0  0  0  0  0  0  0  0  0  0  0  0
    7.1042    1.0197   22.8301 N   0  0  0  0  0  0  0  0  0  0  0  0
    7.1432    1.8270   22.2237 H   0  0  0  0  0  0  0  0  0  0  0  0
    6.8973    1.2573   24.1930 C   0  0  0  0  0  0  0  0  0  0  0  0
    6.3761    0.2605   25.0241 C   0  0  0  0  0  0  0  0  0  0  0  0
    6.1531   -0.7066   24.5764 H   0  0  0  0  0  0  0  0  0  0  0  0
    6.1720    0.5182   26.3848 C   0  0  0  0  0  0  0  0  0  0  0  0
    5.7856   -0.2613   27.0306 H   0  0  0  0  0  0  0  0  0  0  0  0
    6.4864    1.7808   26.9058 C   0  0  0  0  0  0  0  0  0  0  0  0
    6.3342    2.1602   28.2032 O   0  0  0  0  0  0  0  0  0  0  0  0
    5.8162    1.2220   29.1185 C   0  0  0  0  0  0  0  0  0  0  0  0
    5.7687    1.7365   30.0773 H   0  0  0  0  0  0  0  0  0  0  0  0
    4.8091    0.8933   28.8279 H   0  0  0  0  0  0  0  0  0  0  0  0
    6.4695    0.3432   29.2036 H   0  0  0  0  0  0  0  0  0  0  0  0
    7.0074    2.7759   26.0665 C   0  0  0  0  0  0  0  0  0  0  0  0
    7.2448    3.7292   26.5218 H   0  0  0  0  0  0  0  0  0  0  0  0
    7.2040    2.5185   24.7154 C   0  0  0  0  0  0  0  0  0  0  0  0
    7.6183    3.2698   24.0484 H   0  0  0  0  0  0  0  0  0  0  0  0
    5.4349    0.7048   20.1839 C   0  0  0  0  0  0  0  0  0  0  0  0
    4.9736    0.6640   21.1721 H   0  0  0  0  0  0  0  0  0  0  0  0
    4.7945    1.3167   19.1038 C   0  0  0  0  0  0  0  0  0  0  0  0
    3.8452    1.8267   19.2275 H   0  0  0  0  0  0  0  0  0  0  0  0
  1  2  1  0
  2  3  2  0
  3  4  1  0
  4  5  1  0
  4  6  2  0
  6  7  1  0
  7  8  1  0
  8  9  1  0
  8 10  2  0
 10 11  1  0
 11 12  1  0
 11 13  2  0
 13 14  1  0
 14 15  1  0
 14 16  1  0
 16 17  2  0
 17 18  1  0
 17 19  1  0
 19 20  1  0
 19 21  2  0
 21 22  1  0
 22 23  1  0
 23 24  1  0
 23 25  1  0
 23 26  1  0
 21 27  1  0
 27 28  1  0
 27 29  2  0
 29 30  1  0
  6 31  1  0
 31 32  1  0
 31 33  2  0
 33 34  1  0
 33  2  1  0
 13  7  1  0
 29 16  1  0
M  END
>  <plip>  (1) 
-0.034482758620689655

>  <filename>  (1) 
[H][c]1[n][c]([H])[c](-[n]2[c]([H])[n][c]([H])[c]2[N]([H])[c]2[c]([H])[c]([H])[c]([O][C]([H])([H])[H])[c]([H])[c]2[H])[c]([H])[c]1[H]

$$$$
