
     RDKit          3D

 29 31  0  0  0  0  0  0  0  0999 V2000
    4.9819    1.7556   17.0239 H   0  0  0  0  0  0  0  0  0  0  0  0
    5.4329    1.2536   17.8755 C   0  0  0  0  0  0  0  0  0  0  0  0
    6.5931    0.6278   17.6394 N   0  0  0  0  0  0  0  0  0  0  0  0
    7.1935    0.0153   18.6562 C   0  0  0  0  0  0  0  0  0  0  0  0
    8.1545   -0.4453   18.4348 H   0  0  0  0  0  0  0  0  0  0  0  0
    6.6193   -0.0183   19.9174 C   0  0  0  0  0  0  0  0  0  0  0  0
    7.5426   -0.7865   21.1615 S   0  0  0  0  0  0  0  0  0  0  0  0
    7.1397   -0.1393   22.4020 O   0  0  0  0  0  0  0  0  0  0  0  0
    8.9273   -0.7531   20.7036 O   0  0  0  0  0  0  0  0  0  0  0  0
    6.9865   -2.5098   21.2142 C   0  0  0  0  0  0  0  0  0  0  0  0
    6.0677   -3.0026   20.3093 C   0  0  0  0  0  0  0  0  0  0  0  0
    5.5923   -2.3710   19.5619 H   0  0  0  0  0  0  0  0  0  0  0  0
    5.7183   -4.3761   20.3239 C   0  0  0  0  0  0  0  0  0  0  0  0
    5.1040   -4.7651   19.5218 H   0  0  0  0  0  0  0  0  0  0  0  0
    6.1761   -5.2354   21.2912 C   0  0  0  0  0  0  0  0  0  0  0  0
    5.8689   -6.2738   21.3707 H   0  0  0  0  0  0  0  0  0  0  0  0
    7.1237   -4.7822   22.2497 C   0  0  0  0  0  0  0  0  0  0  0  0
    7.6054   -5.7104   23.1398 N   0  0  0  0  0  0  0  0  0  0  0  0
    8.5084   -5.3032   24.0063 C   0  0  0  0  0  0  0  0  0  0  0  0
    8.8741   -6.0544   24.7094 H   0  0  0  0  0  0  0  0  0  0  0  0
    9.0057   -3.9737   24.0573 C   0  0  0  0  0  0  0  0  0  0  0  0
    9.7472   -3.7214   24.8034 H   0  0  0  0  0  0  0  0  0  0  0  0
    8.5330   -3.0337   23.1644 C   0  0  0  0  0  0  0  0  0  0  0  0
    8.8866   -2.0035   23.1753 H   0  0  0  0  0  0  0  0  0  0  0  0
    7.5525   -3.4070   22.2063 C   0  0  0  0  0  0  0  0  0  0  0  0
    5.4162    0.6329   20.1969 C   0  0  0  0  0  0  0  0  0  0  0  0
    4.9818    0.6570   21.2005 H   0  0  0  0  0  0  0  0  0  0  0  0
    4.8137    1.2816   19.1283 C   0  0  0  0  0  0  0  0  0  0  0  0
    3.8916    1.8314   19.2557 H   0  0  0  0  0  0  0  0  0  0  0  0
  1  2  1  0
  2  3  2  0
  3  4  1  0
  4  5  1  0
  4  6  2  0
  6  7  1  0
  7  8  2  0
  7  9  2  0
  7 10  1  0
 10 11  2  0
 11 12  1  0
 11 13  1  0
 13 14  1  0
 13 15  2  0
 15 16  1  0
 15 17  1  0
 17 18  2  0
 18 19  1  0
 19 20  1  0
 19 21  2  0
 21 22  1  0
 21 23  1  0
 23 24  1  0
 23 25  2  0
  6 26  1  0
 26 27  1  0
 26 28  2  0
 28 29  1  0
 28  2  1  0
 25 10  1  0
 25 17  1  0
M  END
>  <plip>  (1) 
-0.0

>  <filename>  (1) 
[H][c]1[n][c]([H])[c]([S](=[O])(=[O])[c]2[c]([H])[c]([H])[c]([H])[c]3[n][c]([H])[c]([H])[c]([H])[c]23)[c]([H])[c]1[H]

$$$$
