
     RDKit          3D

 35 38  0  0  0  0  0  0  0  0999 V2000
    4.9467    1.7865   17.0078 H   0  0  0  0  0  0  0  0  0  0  0  0
    5.4141    1.2787   17.8445 C   0  0  0  0  0  0  0  0  0  0  0  0
    6.5749    0.6575   17.5814 N   0  0  0  0  0  0  0  0  0  0  0  0
    7.1908    0.0479   18.6036 C   0  0  0  0  0  0  0  0  0  0  0  0
    8.1377   -0.4254   18.3447 H   0  0  0  0  0  0  0  0  0  0  0  0
    6.7026   -0.0035   19.9497 C   0  0  0  0  0  0  0  0  0  0  0  0
    7.3866   -0.6220   20.9788 N   0  0  0  0  0  0  0  0  0  0  0  0
    8.6349   -1.3440   20.7758 C   0  0  0  0  0  0  0  0  0  0  0  0
    9.4248   -0.6988   20.3706 H   0  0  0  0  0  0  0  0  0  0  0  0
    8.4863   -2.1662   20.0933 H   0  0  0  0  0  0  0  0  0  0  0  0
    8.9902   -1.9428   22.1187 C   0  0  1  0  0  0  0  0  0  0  0  0
    9.4652   -2.9187   22.0981 H   0  0  0  0  0  0  0  0  0  0  0  0
    9.3127   -0.9956   23.2433 C   0  0  1  0  0  0  0  0  0  0  0  0
    9.9275   -1.4451   24.0198 H   0  0  0  0  0  0  0  0  0  0  0  0
    9.6607    0.4463   22.9835 C   0  0  0  0  0  0  0  0  0  0  0  0
    8.9235    1.4720   23.5833 C   0  0  0  0  0  0  0  0  0  0  0  0
    8.1029    1.1789   24.2308 H   0  0  0  0  0  0  0  0  0  0  0  0
    9.2128    2.8092   23.3264 C   0  0  0  0  0  0  0  0  0  0  0  0
    8.5870    3.5832   23.7606 H   0  0  0  0  0  0  0  0  0  0  0  0
   10.2829    3.1441   22.4896 C   0  0  0  0  0  0  0  0  0  0  0  0
   10.5034    4.1887   22.2998 H   0  0  0  0  0  0  0  0  0  0  0  0
   11.0779    2.1420   21.9273 C   0  0  0  0  0  0  0  0  0  0  0  0
   11.9104    2.3954   21.2748 H   0  0  0  0  0  0  0  0  0  0  0  0
   10.7893    0.7954   22.2010 C   0  0  0  0  0  0  0  0  0  0  0  0
   11.6451   -0.2604   21.6930 C   0  0  0  0  0  0  0  0  0  0  0  0
   12.3095   -1.1347   21.3197 N   0  0  0  0  0  0  0  0  0  0  0  0
    7.9179   -1.5561   23.0930 C   0  0  1  0  0  0  0  0  0  0  0  0
    7.5503   -2.2212   23.8691 H   0  0  0  0  0  0  0  0  0  0  0  0
    6.8660   -0.7672   22.3336 C   0  0  0  0  0  0  0  0  0  0  0  0
    6.6617    0.2088   22.7907 H   0  0  0  0  0  0  0  0  0  0  0  0
    5.9350   -1.3444   22.3337 H   0  0  0  0  0  0  0  0  0  0  0  0
    5.4614    0.6388   20.1751 C   0  0  0  0  0  0  0  0  0  0  0  0
    5.0170    0.6298   21.1675 H   0  0  0  0  0  0  0  0  0  0  0  0
    4.8287    1.2887   19.1131 C   0  0  0  0  0  0  0  0  0  0  0  0
    3.8934    1.8178   19.2688 H   0  0  0  0  0  0  0  0  0  0  0  0
  1  2  1  0
  2  3  2  0
  3  4  1  0
  4  5  1  0
  4  6  2  0
  6  7  1  0
  7  8  1  0
  8  9  1  0
  8 10  1  0
  8 11  1  0
 11 12  1  6
 11 13  1  0
 13 14  1  1
 13 15  1  0
 15 16  2  0
 16 17  1  0
 16 18  1  0
 18 19  1  0
 18 20  2  0
 20 21  1  0
 20 22  1  0
 22 23  1  0
 22 24  2  0
 24 25  1  0
 25 26  3  0
 13 27  1  0
 27 28  1  1
 27 29  1  0
 29 30  1  0
 29 31  1  0
  6 32  1  0
 32 33  1  0
 32 34  2  0
 34 35  1  0
 34  2  1  0
 29  7  1  0
 27 11  1  0
 24 15  1  0
M  END
>  <plip>  (1) 
-0.03571428571428571

>  <filename>  (1) 
[H][c]1[n][c]([H])[c]([N]2[C]([H])([H])[C@@]3([H])[C@@]([H])([c]4[c]([H])[c]([H])[c]([H])[c]([H])[c]4[C]#[N])[C@@]3([H])[C]2([H])[H])[c]([H])[c]1[H]

$$$$
