
     RDKit          3D

 40 42  0  0  0  0  0  0  0  0999 V2000
    4.8957    1.3818   18.9727 C   0  0  0  0  0  0  0  0  0  0  0  0
    5.5971    1.2938   17.7645 C   0  0  0  0  0  0  0  0  0  0  0  0
    6.6990    0.5483   17.6002 N   0  0  0  0  0  0  0  0  0  0  0  0
    7.1487   -0.1207   18.6687 C   0  0  0  0  0  0  0  0  0  0  0  0
    6.5387   -0.0929   19.9348 C   0  0  0  0  0  0  0  0  0  0  0  0
    7.1704   -0.8258   21.0450 C   0  0  0  0  0  0  0  0  0  0  0  0
    6.4827   -1.6510   21.8276 N   0  0  0  0  0  0  0  0  0  0  0  0
    7.3890   -2.1874   22.6540 N   0  0  0  0  0  0  0  0  0  0  0  0
    8.6431   -1.7166   22.4536 C   0  0  0  0  0  0  0  0  0  0  0  0
    8.5445   -0.7916   21.4304 C   0  0  0  0  0  0  0  0  0  0  0  0
    9.6234    0.0518   20.8542 C   0  0  0  0  0  0  0  0  0  0  0  0
   10.4965    0.4138   22.0265 N   0  0  0  0  0  4  0  0  0  0  0  0
   11.6648    1.2815   21.7440 C   0  0  0  0  0  0  0  0  0  0  0  0
   11.4834    2.8124   21.7622 C   0  0  1  0  0  0  0  0  0  0  0  0
   11.4901    3.5768   23.0982 C   0  0  0  0  0  0  0  0  0  0  0  0
   12.1312    4.9561   22.7751 C   0  0  0  0  0  0  0  0  0  0  0  0
   12.6152    4.8574   21.3116 C   0  0  0  0  0  0  0  0  0  0  0  0
   12.7013    3.4087   21.1208 N   0  0  0  0  0  4  0  0  0  0  0  0
   13.5231    3.0994   21.7229 H   0  0  0  0  0  0  0  0  0  0  0  0
   12.9123    3.0939   20.1647 H   0  0  0  0  0  0  0  0  0  0  0  0
   13.5720    5.3565   21.1261 H   0  0  0  0  0  0  0  0  0  0  0  0
   11.8749    5.3124   20.6413 H   0  0  0  0  0  0  0  0  0  0  0  0
   11.4206    5.7826   22.8821 H   0  0  0  0  0  0  0  0  0  0  0  0
   12.9731    5.1585   23.4524 H   0  0  0  0  0  0  0  0  0  0  0  0
   10.4846    3.6705   23.5201 H   0  0  0  0  0  0  0  0  0  0  0  0
   12.1004    3.0367   23.8349 H   0  0  0  0  0  0  0  0  0  0  0  0
   10.5821    3.0839   21.1993 H   0  0  0  0  0  0  0  0  0  0  0  0
   11.9980    1.0637   20.7224 H   0  0  0  0  0  0  0  0  0  0  0  0
   12.4932    1.0507   22.4252 H   0  0  0  0  0  0  0  0  0  0  0  0
    9.8404    0.8152   22.7432 H   0  0  0  0  0  0  0  0  0  0  0  0
   10.7897   -0.5194   22.3897 H   0  0  0  0  0  0  0  0  0  0  0  0
   10.2045   -0.4904   20.0926 H   0  0  0  0  0  0  0  0  0  0  0  0
    9.2432    0.9575   20.3722 H   0  0  0  0  0  0  0  0  0  0  0  0
    9.4822   -2.1234   23.0074 H   0  0  0  0  0  0  0  0  0  0  0  0
    7.0636   -2.7707   23.4105 H   0  0  0  0  0  0  0  0  0  0  0  0
    5.3557    0.6522   20.0736 C   0  0  0  0  0  0  0  0  0  0  0  0
    4.8109    0.6673   21.0210 H   0  0  0  0  0  0  0  0  0  0  0  0
    8.0453   -0.7154   18.5089 H   0  0  0  0  0  0  0  0  0  0  0  0
    5.2567    1.8550   16.8941 H   0  0  0  0  0  0  0  0  0  0  0  0
    4.0176    2.0197   19.0338 H   0  0  0  0  0  0  0  0  0  0  0  0
  1  2  2  0
  2  3  1  0
  3  4  2  0
  4  5  1  0
  5  6  1  0
  6  7  2  0
  7  8  1  0
  8  9  1  0
  9 10  2  0
 10 11  1  0
 11 12  1  0
 12 13  1  0
 13 14  1  0
 14 15  1  0
 15 16  1  0
 16 17  1  0
 17 18  1  0
 18 19  1  0
 18 20  1  0
 17 21  1  0
 17 22  1  0
 16 23  1  0
 16 24  1  0
 15 25  1  0
 15 26  1  0
 14 27  1  6
 13 28  1  0
 13 29  1  0
 12 30  1  0
 12 31  1  0
 11 32  1  0
 11 33  1  0
  9 34  1  0
  8 35  1  0
  5 36  2  0
 36 37  1  0
  4 38  1  0
  2 39  1  0
  1 40  1  0
 36  1  1  0
 10  6  1  0
 18 14  1  0
M  CHG  2  12   1  18   1
M  END
>  <plip>  (1) 
-0.03571428571428571

>  <filename>  (1) 
[H][c]1[n][c]([H])[c](-[c]2[n][n]([H])[c]([H])[c]2[C]([H])([H])[N+]([H])([H])[C]([H])([H])[C@@]2([H])[C]([H])([H])[C]([H])([H])[C]([H])([H])[N+]2([H])[H])[c]([H])[c]1[H]

$$$$
