
     RDKit          3D

 32 34  0  0  0  0  0  0  0  0999 V2000
    6.0840   -2.4471   27.3158 C   0  0  0  0  0  0  0  0  0  0  0  0
    7.1348   -3.1060   26.5690 N   0  0  0  0  0  0  0  0  0  0  0  0
    8.0474   -4.0065   27.1166 C   0  0  0  0  0  0  0  0  0  0  0  0
    8.0930   -4.4601   28.2386 O   0  0  0  0  0  0  0  0  0  0  0  0
    8.9181   -4.3263   26.1051 N   0  0  0  0  0  0  0  0  0  0  0  0
    8.5547   -3.7095   24.9226 C   0  0  0  0  0  0  0  0  0  0  0  0
    9.0806   -3.7556   23.6408 C   0  0  0  0  0  0  0  0  0  0  0  0
    8.4665   -2.9849   22.6534 C   0  0  0  0  0  0  0  0  0  0  0  0
    7.3460   -2.1881   22.9559 C   0  0  0  0  0  0  0  0  0  0  0  0
    6.7687   -1.3920   21.9442 N   0  0  0  0  0  0  0  0  0  0  0  0
    7.4520   -0.7324   20.9620 C   0  0  0  0  0  0  0  0  0  0  0  0
    8.6682   -0.7337   20.8665 O   0  0  0  0  0  0  0  0  0  0  0  0
    6.6062   -0.0290   19.9544 C   0  0  0  0  0  0  0  0  0  0  0  0
    5.3895    0.6319   20.1891 C   0  0  0  0  0  0  0  0  0  0  0  0
    4.7872    1.2990   19.1198 C   0  0  0  0  0  0  0  0  0  0  0  0
    5.4066    1.2732   17.8656 C   0  0  0  0  0  0  0  0  0  0  0  0
    6.5669    0.6445   17.6327 N   0  0  0  0  0  0  0  0  0  0  0  0
    7.1507    0.0306   18.6634 C   0  0  0  0  0  0  0  0  0  0  0  0
    8.1160   -0.4245   18.4515 H   0  0  0  0  0  0  0  0  0  0  0  0
    4.9665    1.7759   17.0052 H   0  0  0  0  0  0  0  0  0  0  0  0
    3.8645    1.8555   19.2390 H   0  0  0  0  0  0  0  0  0  0  0  0
    4.9334    0.6915   21.1818 H   0  0  0  0  0  0  0  0  0  0  0  0
    5.7761   -1.2497   21.9732 H   0  0  0  0  0  0  0  0  0  0  0  0
    6.7893   -2.1627   24.2385 C   0  0  0  0  0  0  0  0  0  0  0  0
    7.4169   -2.9254   25.2205 C   0  0  0  0  0  0  0  0  0  0  0  0
    5.9293   -1.5373   24.4612 H   0  0  0  0  0  0  0  0  0  0  0  0
    8.8413   -2.9472   21.6388 H   0  0  0  0  0  0  0  0  0  0  0  0
    9.9618   -4.3475   23.4275 H   0  0  0  0  0  0  0  0  0  0  0  0
    9.6613   -4.9554   26.3365 H   0  0  0  0  0  0  0  0  0  0  0  0
    5.1536   -2.4771   26.7387 H   0  0  0  0  0  0  0  0  0  0  0  0
    6.3489   -1.4032   27.5295 H   0  0  0  0  0  0  0  0  0  0  0  0
    5.9196   -2.9873   28.2493 H   0  0  0  0  0  0  0  0  0  0  0  0
  1  2  1  0
  2  3  1  0
  3  4  2  0
  3  5  1  0
  5  6  1  0
  6  7  2  0
  7  8  1  0
  8  9  2  0
  9 10  1  0
 10 11  1  0
 11 12  2  0
 11 13  1  0
 13 14  2  0
 14 15  1  0
 15 16  2  0
 16 17  1  0
 17 18  2  0
 18 19  1  0
 16 20  1  0
 15 21  1  0
 14 22  1  0
 10 23  1  0
  9 24  1  0
 24 25  2  0
 24 26  1  0
  8 27  1  0
  7 28  1  0
  5 29  1  0
  1 30  1  0
  1 31  1  0
  1 32  1  0
 25  2  1  0
 25  6  1  0
 18 13  1  0
M  END
>  <plip>  (1) 
-0.07142857142857142

>  <filename>  (1) 
[H][c]1[n][c]([H])[c]([C](=[O])[N]([H])[c]2[c]([H])[c]([H])[c]3[c]([c]2[H])[n]([C]([H])([H])[H])[c](=[O])[n]3[H])[c]([H])[c]1[H]

$$$$
