
     RDKit          3D

 40 42  0  0  0  0  0  0  0  0999 V2000
    8.9055    1.8312   21.6257 C   0  0  0  0  0  0  0  0  0  0  0  0
    8.8452    0.3538   21.2270 C   0  0  0  0  0  0  0  0  0  0  0  0
    7.4121   -0.1883   21.0531 C   0  0  0  0  0  0  0  0  0  0  0  0
    7.3854   -1.6412   20.9421 N   0  0  0  0  0  0  0  0  0  0  0  0
    7.4807   -2.4167   22.0452 C   0  0  0  0  0  0  0  0  0  0  0  0
    7.8441   -1.9399   23.1120 O   0  0  0  0  0  0  0  0  0  0  0  0
    7.1296   -3.8717   21.8924 C   0  0  0  0  0  0  0  0  0  0  0  0
    6.1018   -4.3759   21.0650 C   0  0  0  0  0  0  0  0  0  0  0  0
    5.8737   -5.7570   20.9595 C   0  0  0  0  0  0  0  0  0  0  0  0
    6.6702   -6.6664   21.6610 C   0  0  0  0  0  0  0  0  0  0  0  0
    7.7021   -6.1525   22.4422 C   0  0  0  0  0  0  0  0  0  0  0  0
    7.8476   -4.7849   22.6723 C   0  0  0  0  0  0  0  0  0  0  0  0
    8.8303   -4.5368   23.8003 C   0  0  0  0  0  0  0  0  0  0  0  0
    9.1438   -5.9468   24.3287 C   0  0  0  0  0  0  0  0  0  0  0  0
    8.8035   -6.8524   23.1418 C   0  0  0  0  0  0  0  0  0  0  0  0
    9.3430   -7.8762   22.7932 O   0  0  0  0  0  0  0  0  0  0  0  0
    8.4375   -6.2267   25.1246 H   0  0  0  0  0  0  0  0  0  0  0  0
   10.1576   -6.0871   24.7097 H   0  0  0  0  0  0  0  0  0  0  0  0
    9.7137   -4.0412   23.3859 H   0  0  0  0  0  0  0  0  0  0  0  0
    8.4309   -3.8649   24.5643 H   0  0  0  0  0  0  0  0  0  0  0  0
    6.4826   -7.7382   21.6376 H   0  0  0  0  0  0  0  0  0  0  0  0
    5.1006   -6.1378   20.2973 H   0  0  0  0  0  0  0  0  0  0  0  0
    5.4374   -3.6995   20.5367 H   0  0  0  0  0  0  0  0  0  0  0  0
    7.1190   -2.0664   20.0717 H   0  0  0  0  0  0  0  0  0  0  0  0
    6.6840    0.3650   19.8591 C   0  0  0  0  0  0  0  0  0  0  0  0
    5.4363    0.9928   19.9684 C   0  0  0  0  0  0  0  0  0  0  0  0
    4.8185    1.4651   18.8083 C   0  0  0  0  0  0  0  0  0  0  0  0
    5.4688    1.2872   17.5818 C   0  0  0  0  0  0  0  0  0  0  0  0
    6.6512    0.6673   17.4541 N   0  0  0  0  0  0  0  0  0  0  0  0
    7.2292    0.2171   18.5746 C   0  0  0  0  0  0  0  0  0  0  0  0
    8.1808   -0.2967   18.4267 H   0  0  0  0  0  0  0  0  0  0  0  0
    5.0233    1.6544   16.6594 H   0  0  0  0  0  0  0  0  0  0  0  0
    3.8642    1.9820   18.8434 H   0  0  0  0  0  0  0  0  0  0  0  0
    4.9601    1.1040   20.9468 H   0  0  0  0  0  0  0  0  0  0  0  0
    6.8676    0.0806   21.9725 H   0  0  0  0  0  0  0  0  0  0  0  0
    9.4088    0.1860   20.3022 H   0  0  0  0  0  0  0  0  0  0  0  0
    9.3223   -0.2561   21.9990 H   0  0  0  0  0  0  0  0  0  0  0  0
    8.3731    2.0112   22.5684 H   0  0  0  0  0  0  0  0  0  0  0  0
    8.4654    2.4889   20.8676 H   0  0  0  0  0  0  0  0  0  0  0  0
    9.9458    2.1396   21.7749 H   0  0  0  0  0  0  0  0  0  0  0  0
  1  2  1  0
  2  3  1  0
  3  4  1  0
  4  5  1  0
  5  6  2  0
  5  7  1  0
  7  8  2  0
  8  9  1  0
  9 10  2  0
 10 11  1  0
 11 12  2  0
 12 13  1  0
 13 14  1  0
 14 15  1  0
 15 16  2  0
 14 17  1  0
 14 18  1  0
 13 19  1  0
 13 20  1  0
 10 21  1  0
  9 22  1  0
  8 23  1  0
  4 24  1  0
  3 25  1  0
 25 26  2  0
 26 27  1  0
 27 28  2  0
 28 29  1  0
 29 30  2  0
 30 31  1  0
 28 32  1  0
 27 33  1  0
 26 34  1  0
  3 35  1  0
  2 36  1  0
  2 37  1  0
  1 38  1  0
  1 39  1  0
  1 40  1  0
 12  7  1  0
 30 25  1  0
 15 11  1  0
M  END
>  <plip>  (1) 
-0.06666666666666667

>  <filename>  (1) 
[H][c]1[n][c]([H])[c]([C]([H])([N]([H])[C](=[O])[c]2[c]([H])[c]([H])[c]([H])[c]3[c]2[C]([H])([H])[C]([H])([H])[C]3=[O])[C]([H])([H])[C]([H])([H])[H])[c]([H])[c]1[H]

$$$$
