
     RDKit          3D

 36 39  0  0  0  0  0  0  0  0999 V2000
    5.0436    1.8660   16.9363 H   0  0  0  0  0  0  0  0  0  0  0  0
    5.4712    1.3159   17.7729 C   0  0  0  0  0  0  0  0  0  0  0  0
    6.6156    0.6608   17.5201 N   0  0  0  0  0  0  0  0  0  0  0  0
    7.1727   -0.0060   18.5400 C   0  0  0  0  0  0  0  0  0  0  0  0
    8.0982   -0.5454   18.3469 H   0  0  0  0  0  0  0  0  0  0  0  0
    6.6353   -0.0456   19.8321 C   0  0  0  0  0  0  0  0  0  0  0  0
    7.3435   -0.7781   20.9410 C   0  0  0  0  0  0  0  0  0  0  0  0
    8.0176   -0.1035   22.0494 C   0  0  0  0  0  0  0  0  0  0  0  0
    7.7987    1.2933   22.4144 C   0  0  1  0  0  0  0  0  0  0  0  0
    8.1277    2.0054   21.6486 H   0  0  0  0  0  0  0  0  0  0  0  0
    6.5488    1.7320   23.1433 C   0  0  0  0  0  0  0  0  0  0  0  0
    6.1342    2.6933   22.8527 H   0  0  0  0  0  0  0  0  0  0  0  0
    5.8164    0.9658   23.3888 H   0  0  0  0  0  0  0  0  0  0  0  0
    7.8778    1.7329   23.8529 C   0  0  2  0  0  0  0  0  0  0  0  0
    8.0465    0.9087   24.5403 H   0  0  0  0  0  0  0  0  0  0  0  0
    8.5127    3.0241   24.2557 C   0  0  0  0  0  0  0  0  0  0  0  0
    8.7075    4.0725   23.3384 C   0  0  0  0  0  0  0  0  0  0  0  0
    8.4375    3.9513   22.2887 H   0  0  0  0  0  0  0  0  0  0  0  0
    9.2182    5.3032   23.7600 C   0  0  0  0  0  0  0  0  0  0  0  0
    9.3454    6.1041   23.0318 H   0  0  0  0  0  0  0  0  0  0  0  0
    9.5485    5.5102   25.1055 C   0  0  0  0  0  0  0  0  0  0  0  0
    9.9434    6.4702   25.4318 H   0  0  0  0  0  0  0  0  0  0  0  0
    9.3644    4.4750   26.0237 C   0  0  0  0  0  0  0  0  0  0  0  0
    9.6332    4.6221   27.0648 H   0  0  0  0  0  0  0  0  0  0  0  0
    8.8556    3.2436   25.6024 C   0  0  0  0  0  0  0  0  0  0  0  0
    8.6979    2.4534   26.3315 H   0  0  0  0  0  0  0  0  0  0  0  0
    8.8599   -1.1398   22.6817 C   0  0  0  0  0  0  0  0  0  0  0  0
    9.3568   -1.2532   23.7779 O   0  0  0  0  0  0  0  0  0  0  0  0
    9.0188   -2.2031   21.7290 N   0  0  0  0  0  0  0  0  0  0  0  0
    9.0813   -3.0867   22.2087 H   0  0  0  0  0  0  0  0  0  0  0  0
    7.9715   -2.0318   20.8736 C   0  0  0  0  0  0  0  0  0  0  0  0
    6.7384   -2.2589   21.2799 O   0  0  0  0  0  0  0  0  0  0  0  0
    5.4278    0.6175   20.0736 C   0  0  0  0  0  0  0  0  0  0  0  0
    4.9675    0.5726   21.0637 H   0  0  0  0  0  0  0  0  0  0  0  0
    4.8328    1.3138   19.0207 C   0  0  0  0  0  0  0  0  0  0  0  0
    3.9047    1.8631   19.1494 H   0  0  0  0  0  0  0  0  0  0  0  0
  1  2  1  0
  2  3  2  0
  3  4  1  0
  4  5  1  0
  4  6  2  0
  6  7  1  0
  7  8  2  0
  8  9  1  0
  9 10  1  6
  9 11  1  0
 11 12  1  0
 11 13  1  0
 11 14  1  0
 14 15  1  1
 14 16  1  0
 16 17  2  0
 17 18  1  0
 17 19  1  0
 19 20  1  0
 19 21  2  0
 21 22  1  0
 21 23  1  0
 23 24  1  0
 23 25  2  0
 25 26  1  0
  8 27  1  0
 27 28  2  0
 27 29  1  0
 29 30  1  0
 29 31  1  0
 31 32  2  0
  6 33  1  0
 33 34  1  0
 33 35  2  0
 35 36  1  0
 35  2  1  0
 31  7  1  0
 14  9  1  0
 25 16  1  0
M  END
>  <plip>  (1) 
-0.07142857142857142

>  <filename>  (1) 
[H][c]1[n][c]([H])[c]([C]2=[C]([C@@]3([H])[C]([H])([H])[C@]3([H])[c]3[c]([H])[c]([H])[c]([H])[c]([H])[c]3[H])[C](=[O])[N]([H])[C]2=[O])[c]([H])[c]1[H]

$$$$
