
     RDKit          3D

 42 44  0  0  0  0  0  0  0  0999 V2000
    2.3877   -8.2158   26.1997 C   0  0  0  0  0  0  0  0  0  0  0  0
    3.6563   -7.6001   25.6802 C   0  0  0  0  0  0  0  0  0  0  0  0
    4.6728   -7.2070   26.5898 C   0  0  0  0  0  0  0  0  0  0  0  0
    5.8073   -6.5315   26.1641 C   0  0  0  0  0  0  0  0  0  0  0  0
    5.9329   -6.1896   24.8027 C   0  0  0  0  0  0  0  0  0  0  0  0
    6.9099   -5.4761   24.0223 C   0  0  0  0  0  0  0  0  0  0  0  0
    8.0792   -4.6872   24.5317 C   0  0  0  0  0  0  0  0  0  0  0  0
    7.6818   -3.3130   25.1137 C   0  0  0  0  0  0  0  0  0  0  0  0
    7.0881   -2.4166   24.1294 N   0  0  0  0  0  0  0  0  0  0  0  0
    7.7890   -1.9611   23.0460 C   0  0  0  0  0  0  0  0  0  0  0  0
    8.9999   -2.0912   22.9469 O   0  0  0  0  0  0  0  0  0  0  0  0
    6.9544   -1.2926   22.0194 C   0  0  0  0  0  0  0  0  0  0  0  0
    7.4594   -0.7332   20.9102 C   0  0  0  0  0  0  0  0  0  0  0  0
    6.6767   -0.0098   19.8889 C   0  0  0  0  0  0  0  0  0  0  0  0
    5.4500    0.6320   20.1354 C   0  0  0  0  0  0  0  0  0  0  0  0
    4.8173    1.2973   19.0826 C   0  0  0  0  0  0  0  0  0  0  0  0
    5.4220    1.2951   17.8216 C   0  0  0  0  0  0  0  0  0  0  0  0
    6.5892    0.6826   17.5580 N   0  0  0  0  0  0  0  0  0  0  0  0
    7.1882    0.0628   18.5770 C   0  0  0  0  0  0  0  0  0  0  0  0
    8.1374   -0.4213   18.3458 H   0  0  0  0  0  0  0  0  0  0  0  0
    4.9521    1.8014   16.9820 H   0  0  0  0  0  0  0  0  0  0  0  0
    3.8802    1.8244   19.2284 H   0  0  0  0  0  0  0  0  0  0  0  0
    5.0180    0.6343   21.1376 H   0  0  0  0  0  0  0  0  0  0  0  0
    8.5303   -0.8291   20.7147 H   0  0  0  0  0  0  0  0  0  0  0  0
    5.8886   -1.2909   22.1875 H   0  0  0  0  0  0  0  0  0  0  0  0
    6.0900   -2.4348   24.0129 H   0  0  0  0  0  0  0  0  0  0  0  0
    8.5760   -2.8297   25.5221 H   0  0  0  0  0  0  0  0  0  0  0  0
    6.9625   -3.4286   25.9345 H   0  0  0  0  0  0  0  0  0  0  0  0
    8.7838   -4.4950   23.7136 H   0  0  0  0  0  0  0  0  0  0  0  0
    8.6323   -5.2479   25.2968 H   0  0  0  0  0  0  0  0  0  0  0  0
    6.4892   -5.5511   22.7249 C   0  0  0  0  0  0  0  0  0  0  0  0
    5.3234   -6.2812   22.6452 N   0  0  0  0  0  0  0  0  0  0  0  0
    4.9526   -6.6703   23.9019 C   0  0  0  0  0  0  0  0  0  0  0  0
    3.8217   -7.3833   24.3146 C   0  0  0  0  0  0  0  0  0  0  0  0
    3.0952   -7.7488   23.5920 H   0  0  0  0  0  0  0  0  0  0  0  0
    4.7870   -6.4938   21.8267 H   0  0  0  0  0  0  0  0  0  0  0  0
    6.9174   -5.0894   21.8467 H   0  0  0  0  0  0  0  0  0  0  0  0
    6.5932   -6.2942   26.8750 H   0  0  0  0  0  0  0  0  0  0  0  0
    4.5426   -7.4670   27.6391 H   0  0  0  0  0  0  0  0  0  0  0  0
    2.4507   -8.3801   27.2787 H   0  0  0  0  0  0  0  0  0  0  0  0
    1.5187   -7.5680   26.0198 H   0  0  0  0  0  0  0  0  0  0  0  0
    2.1929   -9.1828   25.7278 H   0  0  0  0  0  0  0  0  0  0  0  0
  1  2  1  0
  2  3  2  0
  3  4  1  0
  4  5  2  0
  5  6  1  0
  6  7  1  0
  7  8  1  0
  8  9  1  0
  9 10  1  0
 10 11  2  0
 10 12  1  0
 12 13  2  3
 13 14  1  0
 14 15  2  0
 15 16  1  0
 16 17  2  0
 17 18  1  0
 18 19  2  0
 19 20  1  0
 17 21  1  0
 16 22  1  0
 15 23  1  0
 13 24  1  0
 12 25  1  0
  9 26  1  0
  8 27  1  0
  8 28  1  0
  7 29  1  0
  7 30  1  0
  6 31  2  0
 31 32  1  0
 32 33  1  0
 33 34  2  0
 34 35  1  0
 32 36  1  0
 31 37  1  0
  4 38  1  0
  3 39  1  0
  1 40  1  0
  1 41  1  0
  1 42  1  0
 34  2  1  0
 33  5  1  0
 19 14  1  0
M  END
>  <plip>  (1) 
-0.13793103448275862

>  <filename>  (1) 
[H][C]([C](=[O])[N]([H])[C]([H])([H])[C]([H])([H])[c]1[c]([H])[n]([H])[c]2[c]([H])[c]([C]([H])([H])[H])[c]([H])[c]([H])[c]12)=[C]([H])[c]1[c]([H])[n][c]([H])[c]([H])[c]1[H]

$$$$
