
     RDKit          3D

 24 25  0  0  0  0  0  0  0  0999 V2000
    6.5151    4.5277   22.4396 H   0  0  0  0  0  0  0  0  0  0  0  0
    6.7994    3.4894   22.5607 C   0  0  0  0  0  0  0  0  0  0  0  0
    6.3192    2.6977   23.5656 N   0  0  0  0  0  0  0  0  0  0  0  0
    6.9325    1.5599   23.3400 C   0  0  0  0  0  0  0  0  0  0  0  0
    6.8133    0.6461   23.9141 H   0  0  0  0  0  0  0  0  0  0  0  0
    7.7461    1.6597   22.2748 N   0  0  0  0  0  0  0  0  0  0  0  0
    8.5662    0.6052   21.6976 C   0  0  2  0  0  0  0  0  0  0  0  0
    8.9919    1.0205   20.7862 H   0  0  0  0  0  0  0  0  0  0  0  0
    7.5513   -0.8513   21.1839 S   0  0  0  0  0  0  0  0  0  0  0  0
    6.6403   -0.0274   19.8938 C   0  0  0  0  0  0  0  0  0  0  0  0
    7.1625    0.0485   18.5867 C   0  0  0  0  0  0  0  0  0  0  0  0
    8.1165   -0.4305   18.3650 H   0  0  0  0  0  0  0  0  0  0  0  0
    6.5625    0.6781   17.5690 N   0  0  0  0  0  0  0  0  0  0  0  0
    5.4007    1.2966   17.8348 C   0  0  0  0  0  0  0  0  0  0  0  0
    4.9168    1.7860   16.9913 H   0  0  0  0  0  0  0  0  0  0  0  0
    4.8037    1.3105   19.1027 C   0  0  0  0  0  0  0  0  0  0  0  0
    3.8716    1.8478   19.2583 H   0  0  0  0  0  0  0  0  0  0  0  0
    5.4313    0.6364   20.1572 C   0  0  0  0  0  0  0  0  0  0  0  0
    5.0201    0.6321   21.1723 H   0  0  0  0  0  0  0  0  0  0  0  0
    9.6497    0.1434   22.6495 C   0  0  0  0  0  0  0  0  0  0  0  0
    9.2040   -0.3016   23.5433 H   0  0  0  0  0  0  0  0  0  0  0  0
   10.2824   -0.6058   22.1688 H   0  0  0  0  0  0  0  0  0  0  0  0
   10.2654    0.9968   22.9420 H   0  0  0  0  0  0  0  0  0  0  0  0
    7.6677    2.9090   21.7581 N   0  0  0  0  0  0  0  0  0  0  0  0
  1  2  1  0
  2  3  1  0
  3  4  2  0
  4  5  1  0
  4  6  1  0
  6  7  1  0
  7  8  1  6
  7  9  1  0
  9 10  1  0
 10 11  2  0
 11 12  1  0
 11 13  1  0
 13 14  2  0
 14 15  1  0
 14 16  1  0
 16 17  1  0
 16 18  2  0
 18 19  1  0
  7 20  1  0
 20 21  1  0
 20 22  1  0
 20 23  1  0
  6 24  1  0
 24  2  2  0
 18 10  1  0
M  END
>  <plip>  (1) 
-0.10714285714285714

>  <filename>  (1) 
[H][c]1[n][c]([H])[n]([C@]([H])([S][c]2[c]([H])[n][c]([H])[c]([H])[c]2[H])[C]([H])([H])[H])[n]1

$$$$
