
     RDKit          3D

 29 31  0  0  0  0  0  0  0  0999 V2000
    5.0431   -4.3467   25.6953 H   0  0  0  0  0  0  0  0  0  0  0  0
    6.0390   -4.0314   25.3824 C   0  0  0  0  0  0  0  0  0  0  0  0
    7.0622   -4.4716   26.1021 N   0  0  0  0  0  0  0  0  0  0  0  0
    8.2402   -4.0428   25.6614 C   0  0  0  0  0  0  0  0  0  0  0  0
    9.2861   -4.4450   26.3541 N   0  0  0  0  0  0  0  0  0  0  0  0
    9.0781   -5.0513   27.1152 H   0  0  0  0  0  0  0  0  0  0  0  0
   10.1661   -4.1370   26.0052 H   0  0  0  0  0  0  0  0  0  0  0  0
    8.5203   -3.2640   24.6236 N   0  0  0  0  0  0  0  0  0  0  0  0
    7.4670   -2.8391   23.9239 C   0  0  0  0  0  0  0  0  0  0  0  0
    7.7235   -1.9435   22.7343 C   0  0  0  0  0  0  0  0  0  0  0  0
    8.9259   -1.4855   22.3023 C   0  0  0  0  0  0  0  0  0  0  0  0
    9.8852   -1.6869   22.7380 H   0  0  0  0  0  0  0  0  0  0  0  0
    8.7547   -0.6529   21.1376 C   0  0  0  0  0  0  0  0  0  0  0  0
    9.5690   -0.0422   20.4643 O   0  0  0  0  0  0  0  0  0  0  0  0
    7.3547   -0.6866   20.9117 N   0  0  0  0  0  0  0  0  0  0  0  0
    6.6340   -0.0083   19.8991 C   0  0  0  0  0  0  0  0  0  0  0  0
    7.1583    0.0528   18.5922 C   0  0  0  0  0  0  0  0  0  0  0  0
    8.1164   -0.4158   18.3861 H   0  0  0  0  0  0  0  0  0  0  0  0
    6.5509    0.6730   17.5760 N   0  0  0  0  0  0  0  0  0  0  0  0
    5.3900    1.2978   17.8320 C   0  0  0  0  0  0  0  0  0  0  0  0
    4.9173    1.7910   16.9846 H   0  0  0  0  0  0  0  0  0  0  0  0
    4.7986    1.3173   19.1018 C   0  0  0  0  0  0  0  0  0  0  0  0
    3.8678    1.8505   19.2522 H   0  0  0  0  0  0  0  0  0  0  0  0
    5.4233    0.6502   20.1581 C   0  0  0  0  0  0  0  0  0  0  0  0
    5.0148    0.6443   21.1684 H   0  0  0  0  0  0  0  0  0  0  0  0
    6.7532   -1.4305   21.9047 N   0  0  0  0  0  0  0  0  0  0  0  0
    5.7534   -1.5645   21.8782 H   0  0  0  0  0  0  0  0  0  0  0  0
    6.1709   -3.2095   24.2736 C   0  0  0  0  0  0  0  0  0  0  0  0
    5.3148   -2.8696   23.7199 H   0  0  0  0  0  0  0  0  0  0  0  0
  1  2  1  0
  2  3  2  0
  3  4  1  0
  4  5  1  0
  5  6  1  0
  5  7  1  0
  4  8  2  0
  8  9  1  0
  9 10  1  0
 10 11  2  0
 11 12  1  0
 11 13  1  0
 13 14  2  0
 13 15  1  0
 15 16  1  0
 16 17  2  0
 17 18  1  0
 17 19  1  0
 19 20  2  0
 20 21  1  0
 20 22  1  0
 22 23  1  0
 22 24  2  0
 24 25  1  0
 15 26  1  0
 26 27  1  0
  9 28  2  0
 28 29  1  0
 28  2  1  0
 26 10  1  0
 24 16  1  0
M  END
>  <plip>  (1) 
-0.14285714285714285

>  <filename>  (1) 
[H][c]1[n][c]([N]([H])[H])[n][c](-[c]2[c]([H])[c](=[O])[n](-[c]3[c]([H])[n][c]([H])[c]([H])[c]3[H])[n]2[H])[c]1[H]

$$$$
