
     RDKit          3D

 28 28  0  0  0  0  0  0  0  0999 V2000
   10.8096    3.7303   21.7801 H   0  0  0  0  0  0  0  0  0  0  0  0
   10.1090    3.3193   22.3258 O   0  0  0  0  0  0  0  0  0  0  0  0
   10.1911    1.9389   22.1104 N   0  0  0  0  0  0  0  0  0  0  0  0
    9.4493    1.6440   21.4810 H   0  0  0  0  0  0  0  0  0  0  0  0
   10.1887    1.0831   23.2222 C   0  0  0  0  0  0  0  0  0  0  0  0
   10.4047    1.3750   24.3756 O   0  0  0  0  0  0  0  0  0  0  0  0
    9.8994   -0.3572   22.7938 C   0  0  0  0  0  0  0  0  0  0  0  0
   10.6564   -0.9737   23.2917 H   0  0  0  0  0  0  0  0  0  0  0  0
   10.0184   -0.4982   21.7134 H   0  0  0  0  0  0  0  0  0  0  0  0
    8.5026   -0.8426   23.2584 C   0  0  0  0  0  0  0  0  0  0  0  0
    8.3507   -0.5307   24.3040 H   0  0  0  0  0  0  0  0  0  0  0  0
    8.4727   -1.9369   23.2467 H   0  0  0  0  0  0  0  0  0  0  0  0
    7.3285   -0.3084   22.4256 C   0  0  1  0  0  0  0  0  0  0  0  0
    6.4068   -0.8203   22.7509 H   0  0  0  0  0  0  0  0  0  0  0  0
    7.2145    1.1033   22.6150 O   0  0  0  0  0  0  0  0  0  0  0  0
    7.2832    1.2905   23.5691 H   0  0  0  0  0  0  0  0  0  0  0  0
    7.4489   -0.6621   20.9081 C   0  0  0  0  0  0  0  0  0  0  0  0
    8.2082   -1.5562   20.5653 O   0  0  0  0  0  0  0  0  0  0  0  0
    6.6258    0.0264   19.8657 C   0  0  0  0  0  0  0  0  0  0  0  0
    7.1276   -0.0187   18.5534 C   0  0  0  0  0  0  0  0  0  0  0  0
    8.0301   -0.5865   18.3326 H   0  0  0  0  0  0  0  0  0  0  0  0
    6.5671    0.6126   17.5228 N   0  0  0  0  0  0  0  0  0  0  0  0
    5.4355    1.2927   17.7642 C   0  0  0  0  0  0  0  0  0  0  0  0
    5.0019    1.8099   16.9113 H   0  0  0  0  0  0  0  0  0  0  0  0
    4.8125    1.3441   19.0154 C   0  0  0  0  0  0  0  0  0  0  0  0
    3.8814    1.8900   19.1258 H   0  0  0  0  0  0  0  0  0  0  0  0
    5.4194    0.7082   20.0986 C   0  0  0  0  0  0  0  0  0  0  0  0
    4.9724    0.7555   21.0951 H   0  0  0  0  0  0  0  0  0  0  0  0
  1  2  1  0
  2  3  1  0
  3  4  1  0
  3  5  1  0
  5  6  2  0
  5  7  1  0
  7  8  1  0
  7  9  1  0
  7 10  1  0
 10 11  1  0
 10 12  1  0
 10 13  1  0
 13 14  1  1
 13 15  1  0
 15 16  1  0
 13 17  1  0
 17 18  2  0
 17 19  1  0
 19 20  2  0
 20 21  1  0
 20 22  1  0
 22 23  2  0
 23 24  1  0
 23 25  1  0
 25 26  1  0
 25 27  2  0
 27 28  1  0
 27 19  1  0
M  END
>  <plip>  (1) 
-0.14285714285714285

>  <filename>  (1) 
[H][O][N]([H])[C](=[O])[C]([H])([H])[C]([H])([H])[C@@]([H])([O][H])[C](=[O])[c]1[c]([H])[n][c]([H])[c]([H])[c]1[H]

$$$$
