
     RDKit          3D

 35 37  0  0  0  0  0  0  0  0999 V2000
    7.1582   -2.0246   21.1121 C   0  0  0  0  0  0  0  0  0  0  0  0
    7.3100   -0.5152   21.1489 C   0  0  1  0  0  0  0  0  0  0  0  0
    8.7242   -0.1855   21.0986 N   0  0  0  0  0  0  0  0  0  0  0  0
    9.2215    1.0088   21.4434 C   0  0  0  0  0  0  0  0  0  0  0  0
   10.5098    1.2397   21.4573 N   0  0  0  0  0  0  0  0  0  0  0  0
   10.6971    2.5150   21.9303 C   0  0  0  0  0  0  0  0  0  0  0  0
   12.1119    3.0169   22.0802 C   0  0  0  0  0  0  0  0  0  0  0  0
   12.5040    4.2294   21.1841 C   0  0  0  0  0  0  0  0  0  0  0  0
   12.1008    5.4468   22.0315 C   0  0  0  0  0  0  0  0  0  0  0  0
   11.8798    4.9611   23.3411 O   0  0  0  0  0  0  0  0  0  0  0  0
   12.3644    3.6458   23.4570 C   0  0  0  0  0  0  0  0  0  0  0  0
   11.8162    3.2036   24.2912 H   0  0  0  0  0  0  0  0  0  0  0  0
   13.4514    3.6178   23.6714 H   0  0  0  0  0  0  0  0  0  0  0  0
   12.9085    6.1950   22.0438 H   0  0  0  0  0  0  0  0  0  0  0  0
   11.1681    5.9186   21.6908 H   0  0  0  0  0  0  0  0  0  0  0  0
   12.0725    4.2570   20.1810 H   0  0  0  0  0  0  0  0  0  0  0  0
   13.5879    4.2318   21.0416 H   0  0  0  0  0  0  0  0  0  0  0  0
   12.7483    2.1523   21.9028 H   0  0  0  0  0  0  0  0  0  0  0  0
    9.6755    3.2668   22.2672 N   0  0  0  0  0  0  0  0  0  0  0  0
    8.2891    2.3936   21.9224 S   0  0  0  0  0  0  0  0  0  0  0  0
    9.4470   -0.8618   20.9125 H   0  0  0  0  0  0  0  0  0  0  0  0
    6.5847    0.1563   19.9996 C   0  0  0  0  0  0  0  0  0  0  0  0
    5.3335    0.7687   20.1490 C   0  0  0  0  0  0  0  0  0  0  0  0
    4.7357    1.3596   19.0337 C   0  0  0  0  0  0  0  0  0  0  0  0
    5.4031    1.3099   17.8055 C   0  0  0  0  0  0  0  0  0  0  0  0
    6.5919    0.7139   17.6396 N   0  0  0  0  0  0  0  0  0  0  0  0
    7.1597    0.1637   18.7199 C   0  0  0  0  0  0  0  0  0  0  0  0
    8.1334   -0.2928   18.5446 H   0  0  0  0  0  0  0  0  0  0  0  0
    4.9662    1.7644   16.9182 H   0  0  0  0  0  0  0  0  0  0  0  0
    3.7798    1.8655   19.1051 H   0  0  0  0  0  0  0  0  0  0  0  0
    4.8458    0.8054   21.1257 H   0  0  0  0  0  0  0  0  0  0  0  0
    6.8887   -0.1316   22.0915 H   0  0  0  0  0  0  0  0  0  0  0  0
    6.1266   -2.3383   21.2907 H   0  0  0  0  0  0  0  0  0  0  0  0
    7.7924   -2.5040   21.8623 H   0  0  0  0  0  0  0  0  0  0  0  0
    7.4402   -2.3809   20.1262 H   0  0  0  0  0  0  0  0  0  0  0  0
  1  2  1  0
  2  3  1  0
  3  4  1  0
  4  5  2  0
  5  6  1  0
  6  7  1  0
  7  8  1  0
  8  9  1  0
  9 10  1  0
 10 11  1  0
 11 12  1  0
 11 13  1  0
  9 14  1  0
  9 15  1  0
  8 16  1  0
  8 17  1  0
  7 18  1  0
  6 19  2  0
 19 20  1  0
  3 21  1  0
  2 22  1  0
 22 23  2  0
 23 24  1  0
 24 25  2  0
 25 26  1  0
 26 27  2  0
 27 28  1  0
 25 29  1  0
 24 30  1  0
 23 31  1  0
  2 32  1  1
  1 33  1  0
  1 34  1  0
  1 35  1  0
 20  4  1  0
 27 22  1  0
 11  7  1  0
M  END
>  <plip>  (1) 
-0.06666666666666667

>  <filename>  (1) 
[H][c]1[n][c]([H])[c]([C@]([H])([N]([H])[c]2[n][c]([C]3([H])[C]([H])([H])[O][C]([H])([H])[C]3([H])[H])[n][s]2)[C]([H])([H])[H])[c]([H])[c]1[H]

$$$$
