
     RDKit          3D

 38 40  0  0  0  0  0  0  0  0999 V2000
    4.9480    1.6846   16.9473 H   0  0  0  0  0  0  0  0  0  0  0  0
    5.4162    1.2225   17.8128 C   0  0  0  0  0  0  0  0  0  0  0  0
    6.5474    0.5402   17.5849 N   0  0  0  0  0  0  0  0  0  0  0  0
    7.1387   -0.0447   18.6376 C   0  0  0  0  0  0  0  0  0  0  0  0
    8.0422   -0.5905   18.3759 H   0  0  0  0  0  0  0  0  0  0  0  0
    6.6804    0.0190   19.9714 C   0  0  0  0  0  0  0  0  0  0  0  0
    7.3711   -0.7398   21.1508 C   0  0  0  0  0  0  0  0  0  0  0  0
    7.4005    0.0962   22.4997 C   0  0  0  0  0  0  0  0  0  0  0  0
    6.6029   -0.2754   23.6120 C   0  0  0  0  0  0  0  0  0  0  0  0
    6.0292   -1.1913   23.5925 H   0  0  0  0  0  0  0  0  0  0  0  0
    6.5631    0.4486   24.8081 C   0  0  0  0  0  0  0  0  0  0  0  0
    5.8953    0.1301   25.6108 H   0  0  0  0  0  0  0  0  0  0  0  0
    7.3970    1.5462   24.9783 C   0  0  0  0  0  0  0  0  0  0  0  0
    7.3782    2.1358   25.8919 H   0  0  0  0  0  0  0  0  0  0  0  0
    8.2543    1.8974   23.9456 C   0  0  0  0  0  0  0  0  0  0  0  0
    8.9438    2.7259   24.0793 H   0  0  0  0  0  0  0  0  0  0  0  0
    8.2344    1.2346   22.7016 C   0  0  0  0  0  0  0  0  0  0  0  0
    9.1310    1.8746   21.6511 C   0  0  0  0  0  0  0  0  0  0  0  0
    8.5837    1.8775   20.4330 F   0  0  0  0  0  0  0  0  0  0  0  0
    9.4121    3.1612   21.9280 F   0  0  0  0  0  0  0  0  0  0  0  0
   10.3403    1.2670   21.5581 F   0  0  0  0  0  0  0  0  0  0  0  0
    8.8190   -1.2150   20.7965 C   0  0  0  0  0  0  0  0  0  0  0  0
    8.8143   -1.7115   19.8250 H   0  0  0  0  0  0  0  0  0  0  0  0
    9.5175   -0.3901   20.7191 H   0  0  0  0  0  0  0  0  0  0  0  0
    9.3334   -2.2567   21.7862 C   0  0  0  0  0  0  0  0  0  0  0  0
   10.3338   -2.5889   21.4954 H   0  0  0  0  0  0  0  0  0  0  0  0
    9.3975   -1.8347   22.8039 H   0  0  0  0  0  0  0  0  0  0  0  0
    8.5133   -3.4123   21.7714 O   0  0  0  0  0  0  0  0  0  0  0  0
    7.1777   -3.1388   22.1543 C   0  0  0  0  0  0  0  0  0  0  0  0
    6.6241   -4.0767   22.0402 H   0  0  0  0  0  0  0  0  0  0  0  0
    7.1486   -2.8745   23.2225 H   0  0  0  0  0  0  0  0  0  0  0  0
    6.5417   -2.0659   21.2679 C   0  0  0  0  0  0  0  0  0  0  0  0
    5.5224   -1.8370   21.5947 H   0  0  0  0  0  0  0  0  0  0  0  0
    6.4555   -2.4984   20.2627 H   0  0  0  0  0  0  0  0  0  0  0  0
    5.4752    0.7186   20.1682 C   0  0  0  0  0  0  0  0  0  0  0  0
    5.0304    0.7802   21.1668 H   0  0  0  0  0  0  0  0  0  0  0  0
    4.8345    1.3268   19.0814 C   0  0  0  0  0  0  0  0  0  0  0  0
    3.9018    1.8717   19.1974 H   0  0  0  0  0  0  0  0  0  0  0  0
  1  2  1  0
  2  3  2  0
  3  4  1  0
  4  5  1  0
  4  6  2  0
  6  7  1  0
  7  8  1  0
  8  9  2  0
  9 10  1  0
  9 11  1  0
 11 12  1  0
 11 13  2  0
 13 14  1  0
 13 15  1  0
 15 16  1  0
 15 17  2  0
 17 18  1  0
 18 19  1  0
 18 20  1  0
 18 21  1  0
  7 22  1  0
 22 23  1  0
 22 24  1  0
 22 25  1  0
 25 26  1  0
 25 27  1  0
 25 28  1  0
 28 29  1  0
 29 30  1  0
 29 31  1  0
 29 32  1  0
 32 33  1  0
 32 34  1  0
  6 35  1  0
 35 36  1  0
 35 37  2  0
 37 38  1  0
 37  2  1  0
 32  7  1  0
 17  8  1  0
M  END
>  <plip>  (1) 
-0.06896551724137931

>  <filename>  (1) 
[H][c]1[n][c]([H])[c]([C]2([c]3[c]([H])[c]([H])[c]([H])[c]([H])[c]3[C]([F])([F])[F])[C]([H])([H])[C]([H])([H])[O][C]([H])([H])[C]2([H])[H])[c]([H])[c]1[H]

$$$$
