
     RDKit          3D

 35 37  0  0  0  0  0  0  0  0999 V2000
    5.0334    1.7573   17.1517 H   0  0  0  0  0  0  0  0  0  0  0  0
    5.4941    1.2262   17.9842 C   0  0  0  0  0  0  0  0  0  0  0  0
    6.6428    0.5940   17.7108 N   0  0  0  0  0  0  0  0  0  0  0  0
    7.2364   -0.0678   18.7032 C   0  0  0  0  0  0  0  0  0  0  0  0
    8.1651   -0.5775   18.4536 H   0  0  0  0  0  0  0  0  0  0  0  0
    6.7272   -0.1273   20.0124 C   0  0  0  0  0  0  0  0  0  0  0  0
    7.5508   -0.9073   20.9913 C   0  0  0  0  0  0  0  0  0  0  0  0
    8.4280   -1.6485   20.5899 O   0  0  0  0  0  0  0  0  0  0  0  0
    7.2782   -0.7810   22.4933 C   0  0  0  0  0  0  0  0  0  0  0  0
    6.4257   -1.8713   23.0975 C   0  0  0  0  0  0  0  0  0  0  0  0
    6.0905   -1.8737   24.4681 C   0  0  0  0  0  0  0  0  0  0  0  0
    6.6494   -1.2522   25.1645 H   0  0  0  0  0  0  0  0  0  0  0  0
    5.0365   -2.6464   24.9518 C   0  0  0  0  0  0  0  0  0  0  0  0
    4.8034   -2.5928   26.0122 H   0  0  0  0  0  0  0  0  0  0  0  0
    4.2872   -3.4617   24.0749 C   0  0  0  0  0  0  0  0  0  0  0  0
    2.9716   -4.1055   24.4466 C   0  0  0  0  0  0  0  0  0  0  0  0
    2.3802   -4.8127   23.6533 O   0  0  0  0  0  0  0  0  0  0  0  0
    2.3678   -3.8564   25.8120 C   0  0  0  0  0  0  0  0  0  0  0  0
    1.5181   -4.5303   25.9373 H   0  0  0  0  0  0  0  0  0  0  0  0
    2.0246   -2.8229   25.9188 H   0  0  0  0  0  0  0  0  0  0  0  0
    3.1007   -4.0414   26.5977 H   0  0  0  0  0  0  0  0  0  0  0  0
    4.7768   -3.6330   22.7614 C   0  0  0  0  0  0  0  0  0  0  0  0
    4.2978   -4.3702   22.1235 H   0  0  0  0  0  0  0  0  0  0  0  0
    5.8350   -2.8655   22.2937 C   0  0  0  0  0  0  0  0  0  0  0  0
    6.2017   -3.0268   21.2873 H   0  0  0  0  0  0  0  0  0  0  0  0
    7.2001    0.6325   23.0730 C   0  0  0  0  0  0  0  0  0  0  0  0
    6.5023    0.8127   23.8903 H   0  0  0  0  0  0  0  0  0  0  0  0
    7.3018    1.4757   22.3878 H   0  0  0  0  0  0  0  0  0  0  0  0
    8.4170   -0.2023   23.3226 C   0  0  0  0  0  0  0  0  0  0  0  0
    9.3377    0.0589   22.8008 H   0  0  0  0  0  0  0  0  0  0  0  0
    8.5728   -0.6215   24.3189 H   0  0  0  0  0  0  0  0  0  0  0  0
    5.5135    0.5240   20.2881 C   0  0  0  0  0  0  0  0  0  0  0  0
    5.0626    0.4997   21.2844 H   0  0  0  0  0  0  0  0  0  0  0  0
    4.8897    1.2124   19.2468 C   0  0  0  0  0  0  0  0  0  0  0  0
    3.9589    1.7479   19.3904 H   0  0  0  0  0  0  0  0  0  0  0  0
  1  2  1  0
  2  3  2  0
  3  4  1  0
  4  5  1  0
  4  6  2  0
  6  7  1  0
  7  8  2  0
  7  9  1  0
  9 10  1  0
 10 11  2  0
 11 12  1  0
 11 13  1  0
 13 14  1  0
 13 15  2  0
 15 16  1  0
 16 17  2  0
 16 18  1  0
 18 19  1  0
 18 20  1  0
 18 21  1  0
 15 22  1  0
 22 23  1  0
 22 24  2  0
 24 25  1  0
  9 26  1  0
 26 27  1  0
 26 28  1  0
 26 29  1  0
 29 30  1  0
 29 31  1  0
  6 32  1  0
 32 33  1  0
 32 34  2  0
 34 35  1  0
 34  2  1  0
 29  9  1  0
 24 10  1  0
M  END
>  <plip>  (1) 
-0.0

>  <filename>  (1) 
[H][c]1[n][c]([H])[c]([C](=[O])[C]2([c]3[c]([H])[c]([H])[c]([C](=[O])[C]([H])([H])[H])[c]([H])[c]3[H])[C]([H])([H])[C]2([H])[H])[c]([H])[c]1[H]

$$$$
