
     RDKit          3D

 55 58  0  0  0  0  0  0  0  0999 V2000
   12.1582    6.1484   25.7536 C   0  0  0  0  0  0  0  0  0  0  0  0
   11.2175    5.4885   24.9258 O   0  0  0  0  0  0  0  0  0  0  0  0
   10.0245    6.0384   24.6340 C   0  0  0  0  0  0  0  0  0  0  0  0
    9.6115    7.2824   25.1266 C   0  0  0  0  0  0  0  0  0  0  0  0
    8.3564    7.7943   24.7907 C   0  0  0  0  0  0  0  0  0  0  0  0
    7.5053    7.0647   23.9584 C   0  0  0  0  0  0  0  0  0  0  0  0
    7.9068    5.8287   23.4612 C   0  0  0  0  0  0  0  0  0  0  0  0
    9.1651    5.2910   23.7874 C   0  0  0  0  0  0  0  0  0  0  0  0
    9.5448    3.9883   23.2352 C   0  0  0  0  0  0  0  0  0  0  0  0
    8.7894    3.2533   22.4543 N   0  0  0  0  0  0  0  0  0  0  0  0
    9.5812    2.1693   22.2228 C   0  0  0  0  0  0  0  0  0  0  0  0
    9.1543    1.0014   21.3667 C   0  0  0  0  0  0  0  0  0  0  0  0
    7.9810    0.1701   21.9590 N   0  0  0  0  0  4  0  0  0  0  0  0
    7.3595   -0.7756   20.9558 C   0  0  0  0  0  0  0  0  0  0  0  0
    6.6360   -0.0089   19.8924 C   0  0  0  0  0  0  0  0  0  0  0  0
    5.4292    0.6601   20.1446 C   0  0  0  0  0  0  0  0  0  0  0  0
    4.7979    1.3237   19.0925 C   0  0  0  0  0  0  0  0  0  0  0  0
    5.3949    1.3063   17.8294 C   0  0  0  0  0  0  0  0  0  0  0  0
    6.5595    0.6891   17.5810 N   0  0  0  0  0  0  0  0  0  0  0  0
    7.1585    0.0618   18.5966 C   0  0  0  0  0  0  0  0  0  0  0  0
    8.1156   -0.4122   18.3658 H   0  0  0  0  0  0  0  0  0  0  0  0
    4.9259    1.8063   16.9811 H   0  0  0  0  0  0  0  0  0  0  0  0
    3.8665    1.8609   19.2311 H   0  0  0  0  0  0  0  0  0  0  0  0
    4.9980    0.6576   21.1484 H   0  0  0  0  0  0  0  0  0  0  0  0
    6.6615   -1.4311   21.4809 H   0  0  0  0  0  0  0  0  0  0  0  0
    8.1417   -1.4125   20.5278 H   0  0  0  0  0  0  0  0  0  0  0  0
    8.4234   -0.5222   23.2368 C   0  0  0  0  0  0  0  0  0  0  0  0
    7.2290   -1.0302   24.0651 C   0  0  0  0  0  0  0  0  0  0  0  0
    7.4028   -0.8055   25.5742 C   0  0  0  0  0  0  0  0  0  0  0  0
    8.2027   -2.0121   26.0764 C   0  0  0  0  0  0  0  0  0  0  0  0
    7.8874   -3.1368   25.0889 N   0  0  0  0  0  4  0  0  0  0  0  0
    7.0449   -2.5503   23.9590 C   0  0  0  0  0  0  0  0  0  0  0  0
    7.3694   -2.9382   22.9902 H   0  0  0  0  0  0  0  0  0  0  0  0
    5.9928   -2.8273   24.0721 H   0  0  0  0  0  0  0  0  0  0  0  0
    8.7740   -3.5335   24.6955 H   0  0  0  0  0  0  0  0  0  0  0  0
    7.3964   -3.9224   25.5721 H   0  0  0  0  0  0  0  0  0  0  0  0
    7.9353   -2.3022   27.0969 H   0  0  0  0  0  0  0  0  0  0  0  0
    9.2780   -1.8045   26.0842 H   0  0  0  0  0  0  0  0  0  0  0  0
    7.9091    0.1432   25.7873 H   0  0  0  0  0  0  0  0  0  0  0  0
    6.4239   -0.7557   26.0680 H   0  0  0  0  0  0  0  0  0  0  0  0
    6.3365   -0.5131   23.6931 H   0  0  0  0  0  0  0  0  0  0  0  0
    9.1072   -1.3459   22.9684 H   0  0  0  0  0  0  0  0  0  0  0  0
    9.0259    0.1850   23.8149 H   0  0  0  0  0  0  0  0  0  0  0  0
    7.2307    0.8871   22.1689 H   0  0  0  0  0  0  0  0  0  0  0  0
    8.8279    1.3920   20.4039 H   0  0  0  0  0  0  0  0  0  0  0  0
   10.0251    0.3606   21.2205 H   0  0  0  0  0  0  0  0  0  0  0  0
   10.7452    2.2079   22.8027 N   0  0  0  0  0  0  0  0  0  0  0  0
   10.7238    3.4114   23.4922 O   0  0  0  0  0  0  0  0  0  0  0  0
    7.2473    5.2570   22.8065 H   0  0  0  0  0  0  0  0  0  0  0  0
    6.5293    7.4564   23.6920 H   0  0  0  0  0  0  0  0  0  0  0  0
    8.0481    8.7616   25.1810 H   0  0  0  0  0  0  0  0  0  0  0  0
   10.2802    7.8380   25.7706 H   0  0  0  0  0  0  0  0  0  0  0  0
   11.7621    6.3089   26.7672 H   0  0  0  0  0  0  0  0  0  0  0  0
   12.4705    7.1129   25.3264 H   0  0  0  0  0  0  0  0  0  0  0  0
   13.0104    5.4639   25.7893 H   0  0  0  0  0  0  0  0  0  0  0  0
  1  2  1  0
  2  3  1  0
  3  4  2  0
  4  5  1  0
  5  6  2  0
  6  7  1  0
  7  8  2  0
  8  9  1  0
  9 10  2  0
 10 11  1  0
 11 12  1  0
 12 13  1  0
 13 14  1  0
 14 15  1  0
 15 16  2  0
 16 17  1  0
 17 18  2  0
 18 19  1  0
 19 20  2  0
 20 21  1  0
 18 22  1  0
 17 23  1  0
 16 24  1  0
 14 25  1  0
 14 26  1  0
 13 27  1  0
 27 28  1  0
 28 29  1  0
 29 30  1  0
 30 31  1  0
 31 32  1  0
 32 33  1  0
 32 34  1  0
 31 35  1  0
 31 36  1  0
 30 37  1  0
 30 38  1  0
 29 39  1  0
 29 40  1  0
 28 41  1  0
 27 42  1  0
 27 43  1  0
 13 44  1  0
 12 45  1  0
 12 46  1  0
 11 47  2  0
 47 48  1  0
  7 49  1  0
  6 50  1  0
  5 51  1  0
  4 52  1  0
  1 53  1  0
  1 54  1  0
  1 55  1  0
  8  3  1  0
 48  9  1  0
 20 15  1  0
 32 28  1  0
M  CHG  2  13   1  31   1
M  END
>  <plip>  (1) 
-0.10714285714285714

>  <filename>  (1) 
[H][c]1[n][c]([H])[c]([C]([H])([H])[N+]([H])([C]([H])([H])[c]2[n][o][c](-[c]3[c]([H])[c]([H])[c]([H])[c]([H])[c]3[O][C]([H])([H])[H])[n]2)[C]([H])([H])[C]2([H])[C]([H])([H])[C]([H])([H])[N+]([H])([H])[C]2([H])[H])[c]([H])[c]1[H]

$$$$
