
     RDKit          3D

 37 38  0  0  0  0  0  0  0  0999 V2000
    4.9024    1.8403   17.0362 H   0  0  0  0  0  0  0  0  0  0  0  0
    5.3917    1.2989   17.8415 C   0  0  0  0  0  0  0  0  0  0  0  0
    6.5413    0.6763   17.5289 N   0  0  0  0  0  0  0  0  0  0  0  0
    7.1811    0.0345   18.5212 C   0  0  0  0  0  0  0  0  0  0  0  0
    8.1212   -0.4549   18.2549 H   0  0  0  0  0  0  0  0  0  0  0  0
    6.7189   -0.0339   19.8650 C   0  0  0  0  0  0  0  0  0  0  0  0
    7.4153   -0.7423   20.8711 N   0  0  0  0  0  0  0  0  0  0  0  0
    6.8151   -1.2139   21.5378 H   0  0  0  0  0  0  0  0  0  0  0  0
    8.4436   -0.1167   21.7227 C   0  0  0  0  0  0  0  0  0  0  0  0
    8.9156   -1.2825   22.4791 N   0  0  0  0  0  0  0  0  0  0  0  0
    9.4447   -1.1324   23.7945 C   0  0  0  0  0  0  0  0  0  0  0  0
    8.6561   -1.5973   24.8520 C   0  0  0  0  0  0  0  0  0  0  0  0
    7.7676   -2.1668   24.5896 H   0  0  0  0  0  0  0  0  0  0  0  0
    9.0071   -1.3125   26.1738 C   0  0  0  0  0  0  0  0  0  0  0  0
    8.3724   -1.6692   26.9799 H   0  0  0  0  0  0  0  0  0  0  0  0
   10.1626   -0.5628   26.4380 C   0  0  0  0  0  0  0  0  0  0  0  0
   10.4016   -0.2523   27.4490 H   0  0  0  0  0  0  0  0  0  0  0  0
   11.0149   -0.1952   25.3861 C   0  0  0  0  0  0  0  0  0  0  0  0
   11.9495    0.3193   25.5959 H   0  0  0  0  0  0  0  0  0  0  0  0
   10.6629   -0.4902   24.0633 C   0  0  0  0  0  0  0  0  0  0  0  0
   11.3164   -0.2360   23.2311 H   0  0  0  0  0  0  0  0  0  0  0  0
    9.4989   -2.3906   21.7524 C   0  0  0  0  0  0  0  0  0  0  0  0
   10.5993   -2.3980   21.8018 H   0  0  0  0  0  0  0  0  0  0  0  0
    9.1970   -2.3699   20.7021 H   0  0  0  0  0  0  0  0  0  0  0  0
    9.1445   -3.3472   22.1598 H   0  0  0  0  0  0  0  0  0  0  0  0
    9.5018    0.5447   20.8371 C   0  0  0  0  0  0  0  0  0  0  0  0
    9.0375    1.3843   20.3169 H   0  0  0  0  0  0  0  0  0  0  0  0
   10.3554    0.9278   21.4006 H   0  0  0  0  0  0  0  0  0  0  0  0
    9.8588   -0.1639   20.0869 H   0  0  0  0  0  0  0  0  0  0  0  0
    7.7965    0.9031   22.6665 C   0  0  0  0  0  0  0  0  0  0  0  0
    8.5503    1.3774   23.3040 H   0  0  0  0  0  0  0  0  0  0  0  0
    7.0866    0.3764   23.3113 H   0  0  0  0  0  0  0  0  0  0  0  0
    7.2618    1.6719   22.1044 H   0  0  0  0  0  0  0  0  0  0  0  0
    5.5000    0.6002   20.1471 C   0  0  0  0  0  0  0  0  0  0  0  0
    5.1257    0.5803   21.1716 H   0  0  0  0  0  0  0  0  0  0  0  0
    4.8290    1.2776   19.1214 C   0  0  0  0  0  0  0  0  0  0  0  0
    3.8989    1.8061   19.3084 H   0  0  0  0  0  0  0  0  0  0  0  0
  1  2  1  0
  2  3  2  0
  3  4  1  0
  4  5  1  0
  4  6  2  0
  6  7  1  0
  7  8  1  0
  7  9  1  0
  9 10  1  0
 10 11  1  0
 11 12  2  0
 12 13  1  0
 12 14  1  0
 14 15  1  0
 14 16  2  0
 16 17  1  0
 16 18  1  0
 18 19  1  0
 18 20  2  0
 20 21  1  0
 10 22  1  0
 22 23  1  0
 22 24  1  0
 22 25  1  0
  9 26  1  0
 26 27  1  0
 26 28  1  0
 26 29  1  0
  9 30  1  0
 30 31  1  0
 30 32  1  0
 30 33  1  0
  6 34  1  0
 34 35  1  0
 34 36  2  0
 36 37  1  0
 36  2  1  0
 20 11  1  0
M  END
>  <plip>  (1) 
-0.06896551724137931

>  <filename>  (1) 
[H][c]1[n][c]([H])[c]([N]([H])[C]([N]([c]2[c]([H])[c]([H])[c]([H])[c]([H])[c]2[H])[C]([H])([H])[H])([C]([H])([H])[H])[C]([H])([H])[H])[c]([H])[c]1[H]

$$$$
