
     RDKit          3D

 38 40  0  0  0  0  0  0  0  0999 V2000
    4.9279    1.8562   16.8750 H   0  0  0  0  0  0  0  0  0  0  0  0
    5.3769    1.3826   17.7459 C   0  0  0  0  0  0  0  0  0  0  0  0
    6.5484    0.7617   17.5434 N   0  0  0  0  0  0  0  0  0  0  0  0
    7.1077    0.1437   18.5876 C   0  0  0  0  0  0  0  0  0  0  0  0
    8.0509   -0.3637   18.3913 H   0  0  0  0  0  0  0  0  0  0  0  0
    6.5496    0.1307   19.8722 C   0  0  0  0  0  0  0  0  0  0  0  0
    7.2493   -0.6165   20.9409 C   0  0  0  0  0  0  0  0  0  0  0  0
    7.7936   -1.7549   20.6019 N   0  0  0  0  0  0  0  0  0  0  0  0
    8.3981   -2.4877   21.5886 C   0  0  0  0  0  0  0  0  0  0  0  0
    8.6860   -3.6611   21.5214 O   0  0  0  0  0  0  0  0  0  0  0  0
    8.7228   -1.8275   22.7709 N   0  0  0  0  0  0  0  0  0  0  0  0
    9.1935   -2.4409   23.4091 H   0  0  0  0  0  0  0  0  0  0  0  0
    7.9917   -0.7728   23.2112 C   0  0  0  0  0  0  0  0  0  0  0  0
    8.0211   -0.4574   24.6489 C   0  0  0  0  0  0  0  0  0  0  0  0
    6.8306   -0.1682   25.3293 C   0  0  0  0  0  0  0  0  0  0  0  0
    5.8762   -0.2195   24.8032 H   0  0  0  0  0  0  0  0  0  0  0  0
    6.8220    0.1633   26.6826 C   0  0  0  0  0  0  0  0  0  0  0  0
    5.8924    0.3723   27.1988 H   0  0  0  0  0  0  0  0  0  0  0  0
    8.0338    0.2198   27.3843 C   0  0  0  0  0  0  0  0  0  0  0  0
    8.1468    0.5631   28.6921 O   0  0  0  0  0  0  0  0  0  0  0  0
    6.9870    0.9343   29.4110 C   0  0  0  0  0  0  0  0  0  0  0  0
    6.2692    0.1062   29.4849 H   0  0  0  0  0  0  0  0  0  0  0  0
    7.3262    1.2097   30.4094 H   0  0  0  0  0  0  0  0  0  0  0  0
    6.4808    1.7917   28.9478 H   0  0  0  0  0  0  0  0  0  0  0  0
    9.2384   -0.0827   26.7360 C   0  0  0  0  0  0  0  0  0  0  0  0
   10.1685   -0.0671   27.2923 H   0  0  0  0  0  0  0  0  0  0  0  0
    9.2376   -0.4031   25.3824 C   0  0  0  0  0  0  0  0  0  0  0  0
   10.3852   -0.7211   24.7229 O   0  0  0  0  0  0  0  0  0  0  0  0
   11.6016   -0.0472   25.0109 C   0  0  0  0  0  0  0  0  0  0  0  0
   11.4479    0.9220   25.5038 H   0  0  0  0  0  0  0  0  0  0  0  0
   12.1100    0.1023   24.0534 H   0  0  0  0  0  0  0  0  0  0  0  0
   12.2423   -0.6704   25.6384 H   0  0  0  0  0  0  0  0  0  0  0  0
    7.2696   -0.0924   22.2665 C   0  0  0  0  0  0  0  0  0  0  0  0
    6.7656    0.8322   22.5120 H   0  0  0  0  0  0  0  0  0  0  0  0
    5.3393    0.8082   20.0783 C   0  0  0  0  0  0  0  0  0  0  0  0
    4.8722    0.8450   21.0659 H   0  0  0  0  0  0  0  0  0  0  0  0
    4.7316    1.4258   18.9864 C   0  0  0  0  0  0  0  0  0  0  0  0
    3.7823    1.9438   19.0804 H   0  0  0  0  0  0  0  0  0  0  0  0
  1  2  1  0
  2  3  2  0
  3  4  1  0
  4  5  1  0
  4  6  2  0
  6  7  1  0
  7  8  2  0
  8  9  1  0
  9 10  2  0
  9 11  1  0
 11 12  1  0
 11 13  1  0
 13 14  1  0
 14 15  2  0
 15 16  1  0
 15 17  1  0
 17 18  1  0
 17 19  2  0
 19 20  1  0
 20 21  1  0
 21 22  1  0
 21 23  1  0
 21 24  1  0
 19 25  1  0
 25 26  1  0
 25 27  2  0
 27 28  1  0
 28 29  1  0
 29 30  1  0
 29 31  1  0
 29 32  1  0
 13 33  2  0
 33 34  1  0
  6 35  1  0
 35 36  1  0
 35 37  2  0
 37 38  1  0
 37  2  1  0
 33  7  1  0
 27 14  1  0
M  END
>  <plip>  (1) 
-0.06666666666666667

>  <filename>  (1) 
[H][c]1[n][c]([H])[c](-[c]2[n][c](=[O])[n]([H])[c](-[c]3[c]([H])[c]([H])[c]([O][C]([H])([H])[H])[c]([H])[c]3[O][C]([H])([H])[H])[c]2[H])[c]([H])[c]1[H]

$$$$
