
     RDKit          3D

 33 33  0  0  0  0  0  0  0  0999 V2000
    7.0877   -2.4438   20.3766 H   0  0  0  0  0  0  0  0  0  0  0  0
    7.8614   -1.9412   20.6499 O   0  0  0  0  0  0  0  0  0  0  0  0
    7.3912   -0.6681   21.0550 C   0  0  2  0  0  0  0  0  0  0  0  0
    6.7339   -0.7475   21.9418 H   0  0  0  0  0  0  0  0  0  0  0  0
    6.6132   -0.0039   19.9349 C   0  0  0  0  0  0  0  0  0  0  0  0
    7.1444    0.0222   18.6334 C   0  0  0  0  0  0  0  0  0  0  0  0
    8.0925   -0.4663   18.4075 H   0  0  0  0  0  0  0  0  0  0  0  0
    6.5637    0.6416   17.5970 N   0  0  0  0  0  0  0  0  0  0  0  0
    5.4105    1.2850   17.8271 C   0  0  0  0  0  0  0  0  0  0  0  0
    4.9717    1.8025   16.9758 H   0  0  0  0  0  0  0  0  0  0  0  0
    4.7806    1.3166   19.0760 C   0  0  0  0  0  0  0  0  0  0  0  0
    3.8499    1.8632   19.2009 H   0  0  0  0  0  0  0  0  0  0  0  0
    5.3939    0.6606   20.1463 C   0  0  0  0  0  0  0  0  0  0  0  0
    4.9427    0.6792   21.1422 H   0  0  0  0  0  0  0  0  0  0  0  0
    8.6564    0.1138   21.4702 C   0  0  2  0  0  0  0  0  0  0  0  0
    9.2868    0.1678   20.5753 H   0  0  0  0  0  0  0  0  0  0  0  0
    9.4194   -0.7067   22.4992 C   0  0  0  0  0  0  0  0  0  0  0  0
    8.7475   -0.9726   23.5538 N   0  0  0  0  0  0  0  0  0  0  0  0
    9.3244   -1.5889   24.6309 N   0  0  0  0  0  0  0  0  0  0  0  0
   10.2428   -2.0131   24.6385 H   0  0  0  0  0  0  0  0  0  0  0  0
    8.6346   -1.9306   25.7537 C   0  0  0  0  0  0  0  0  0  0  0  0
    9.3057   -2.9631   26.8633 S   0  0  0  0  0  0  0  0  0  0  0  0
    7.4268   -1.4025   25.9299 N   0  0  0  0  0  0  0  0  0  0  0  0
    6.9845   -0.9073   25.1749 H   0  0  0  0  0  0  0  0  0  0  0  0
    6.9534   -1.6760   26.7692 H   0  0  0  0  0  0  0  0  0  0  0  0
   10.8401   -1.1574   22.2399 C   0  0  0  0  0  0  0  0  0  0  0  0
   11.1673   -0.8433   21.2462 H   0  0  0  0  0  0  0  0  0  0  0  0
   11.5258   -0.7209   22.9753 H   0  0  0  0  0  0  0  0  0  0  0  0
   10.9456   -2.2487   22.2948 H   0  0  0  0  0  0  0  0  0  0  0  0
    8.3099    1.5304   21.9725 C   0  0  0  0  0  0  0  0  0  0  0  0
    7.6095    1.4743   22.8170 H   0  0  0  0  0  0  0  0  0  0  0  0
    9.1957    2.0733   22.3189 H   0  0  0  0  0  0  0  0  0  0  0  0
    7.8292    2.1152   21.1791 H   0  0  0  0  0  0  0  0  0  0  0  0
  1  2  1  0
  2  3  1  0
  3  4  1  1
  3  5  1  0
  5  6  2  0
  6  7  1  0
  6  8  1  0
  8  9  2  0
  9 10  1  0
  9 11  1  0
 11 12  1  0
 11 13  2  0
 13 14  1  0
  3 15  1  0
 15 16  1  6
 15 17  1  0
 17 18  2  3
 18 19  1  0
 19 20  1  0
 19 21  1  0
 21 22  2  0
 21 23  1  0
 23 24  1  0
 23 25  1  0
 17 26  1  0
 26 27  1  0
 26 28  1  0
 26 29  1  0
 15 30  1  0
 30 31  1  0
 30 32  1  0
 30 33  1  0
 13  5  1  0
M  END
>  <plip>  (1) 
-0.0

>  <filename>  (1) 
[H][O][C@]([H])([c]1[c]([H])[n][c]([H])[c]([H])[c]1[H])[C@]([H])([C](=[N][N]([H])[C](=[S])[N]([H])[H])[C]([H])([H])[H])[C]([H])([H])[H]

$$$$
