
     RDKit          3D

 53 56  0  0  0  0  0  0  0  0999 V2000
    9.3161    7.5467   28.1169 C   0  0  0  0  0  0  0  0  0  0  0  0
   10.6503    7.3116   27.7222 O   0  0  0  0  0  0  0  0  0  0  0  0
   10.9075    6.4394   26.7058 C   0  0  0  0  0  0  0  0  0  0  0  0
   12.2609    6.3662   26.3397 C   0  0  0  0  0  0  0  0  0  0  0  0
   12.6449    5.5616   25.2723 C   0  0  0  0  0  0  0  0  0  0  0  0
   11.7030    4.7802   24.6017 C   0  0  0  0  0  0  0  0  0  0  0  0
   10.3502    4.7884   24.9926 C   0  0  0  0  0  0  0  0  0  0  0  0
    9.4334    3.8072   24.3526 C   0  0  0  0  0  0  0  0  0  0  0  0
    9.7779    2.9908   23.3882 N   0  0  0  0  0  0  0  0  0  0  0  0
    8.6577    2.2658   23.0332 C   0  0  0  0  0  0  0  0  0  0  0  0
    8.5966    1.2280   21.8982 C   0  0  0  0  0  0  0  0  0  0  0  0
    9.2546    1.2708   20.8669 O   0  0  0  0  0  0  0  0  0  0  0  0
    7.7290    0.1703   22.1030 N   0  0  0  0  0  0  0  0  0  0  0  0
    7.3717   -0.7377   21.0071 C   0  0  0  0  0  0  0  0  0  0  0  0
    6.6091    0.0150   19.9160 C   0  0  0  0  0  0  0  0  0  0  0  0
    5.3881    0.6737   20.1205 C   0  0  0  0  0  0  0  0  0  0  0  0
    4.7860    1.3233   19.0370 C   0  0  0  0  0  0  0  0  0  0  0  0
    5.4273    1.3050   17.7914 C   0  0  0  0  0  0  0  0  0  0  0  0
    6.6004    0.6960   17.5766 N   0  0  0  0  0  0  0  0  0  0  0  0
    7.1647    0.0868   18.6308 C   0  0  0  0  0  0  0  0  0  0  0  0
    8.1284   -0.3859   18.4436 H   0  0  0  0  0  0  0  0  0  0  0  0
    4.9819    1.8054   16.9318 H   0  0  0  0  0  0  0  0  0  0  0  0
    3.8494    1.8588   19.1419 H   0  0  0  0  0  0  0  0  0  0  0  0
    4.8977    0.6838   21.0993 H   0  0  0  0  0  0  0  0  0  0  0  0
    6.6435   -2.0202   21.4896 C   0  0  0  0  0  0  0  0  0  0  0  0
    7.3632   -2.8532   22.5646 C   0  0  0  0  0  0  0  0  0  0  0  0
    6.8375   -4.2688   22.3002 C   0  0  0  0  0  0  0  0  0  0  0  0
    6.5826   -4.2622   20.7875 C   0  0  0  0  0  0  0  0  0  0  0  0
    6.5182   -2.9026   20.3752 O   0  0  0  0  0  0  0  0  0  0  0  0
    5.6451   -4.7649   20.5199 H   0  0  0  0  0  0  0  0  0  0  0  0
    7.3955   -4.7553   20.2440 H   0  0  0  0  0  0  0  0  0  0  0  0
    5.9066   -4.4640   22.8440 H   0  0  0  0  0  0  0  0  0  0  0  0
    7.5545   -5.0436   22.5888 H   0  0  0  0  0  0  0  0  0  0  0  0
    7.1543   -2.5113   23.5846 H   0  0  0  0  0  0  0  0  0  0  0  0
    8.4492   -2.8215   22.4058 H   0  0  0  0  0  0  0  0  0  0  0  0
    5.6335   -1.7504   21.8364 H   0  0  0  0  0  0  0  0  0  0  0  0
    8.3076   -1.0925   20.5641 H   0  0  0  0  0  0  0  0  0  0  0  0
    7.0610    0.2563   22.8497 H   0  0  0  0  0  0  0  0  0  0  0  0
    7.5997    2.6585   23.8365 C   0  0  0  0  0  0  0  0  0  0  0  0
    6.1485    2.3086   23.9254 C   0  0  0  0  0  0  0  0  0  0  0  0
    5.7076    2.1527   22.9384 H   0  0  0  0  0  0  0  0  0  0  0  0
    5.9619    1.4019   24.5091 H   0  0  0  0  0  0  0  0  0  0  0  0
    5.5806    3.1151   24.4026 H   0  0  0  0  0  0  0  0  0  0  0  0
    8.1162    3.6203   24.6635 N   0  0  0  0  0  0  0  0  0  0  0  0
    7.6050    4.0742   25.4015 H   0  0  0  0  0  0  0  0  0  0  0  0
    9.9531    5.6659   26.0302 C   0  0  0  0  0  0  0  0  0  0  0  0
    8.9083    5.7688   26.3102 H   0  0  0  0  0  0  0  0  0  0  0  0
   12.0091    4.1294   23.7860 H   0  0  0  0  0  0  0  0  0  0  0  0
   13.6840    5.5314   24.9587 H   0  0  0  0  0  0  0  0  0  0  0  0
   12.9709    6.9763   26.8846 H   0  0  0  0  0  0  0  0  0  0  0  0
    8.7038    7.8780   27.2687 H   0  0  0  0  0  0  0  0  0  0  0  0
    9.3479    8.3379   28.8719 H   0  0  0  0  0  0  0  0  0  0  0  0
    8.8784    6.6416   28.5546 H   0  0  0  0  0  0  0  0  0  0  0  0
  1  2  1  0
  2  3  1  0
  3  4  2  0
  4  5  1  0
  5  6  2  0
  6  7  1  0
  7  8  1  0
  8  9  2  0
  9 10  1  0
 10 11  1  0
 11 12  2  0
 11 13  1  0
 13 14  1  0
 14 15  1  0
 15 16  2  0
 16 17  1  0
 17 18  2  0
 18 19  1  0
 19 20  2  0
 20 21  1  0
 18 22  1  0
 17 23  1  0
 16 24  1  0
 14 25  1  0
 25 26  1  0
 26 27  1  0
 27 28  1  0
 28 29  1  0
 28 30  1  0
 28 31  1  0
 27 32  1  0
 27 33  1  0
 26 34  1  0
 26 35  1  0
 25 36  1  0
 14 37  1  0
 13 38  1  0
 10 39  2  0
 39 40  1  0
 40 41  1  0
 40 42  1  0
 40 43  1  0
 39 44  1  0
 44 45  1  0
  7 46  2  0
 46 47  1  0
  6 48  1  0
  5 49  1  0
  4 50  1  0
  1 51  1  0
  1 52  1  0
  1 53  1  0
 46  3  1  0
 44  8  1  0
 20 15  1  0
 29 25  1  0
M  END
>  <plip>  (1) 
-0.21428571428571427

>  <filename>  (1) 
[H][c]1[n][c]([H])[c]([C]([H])([N]([H])[C](=[O])[c]2[n][c](-[c]3[c]([H])[c]([H])[c]([H])[c]([O][C]([H])([H])[H])[c]3[H])[n]([H])[c]2[C]([H])([H])[H])[C]2([H])[O][C]([H])([H])[C]([H])([H])[C]2([H])[H])[c]([H])[c]1[H]

$$$$
