
     RDKit          3D

 43 45  0  0  0  0  0  0  0  0999 V2000
   10.1348    0.7049   21.0559 C   0  0  0  0  0  0  0  0  0  0  0  0
    8.8630    1.3244   21.4831 N   0  0  0  0  0  4  0  0  0  0  0  0
    9.1405    2.3620   22.4979 C   0  0  0  0  0  0  0  0  0  0  0  0
    9.8111    3.1299   22.0930 H   0  0  0  0  0  0  0  0  0  0  0  0
    9.6181    1.9186   23.3793 H   0  0  0  0  0  0  0  0  0  0  0  0
    8.2148    2.8540   22.8175 H   0  0  0  0  0  0  0  0  0  0  0  0
    7.9317    0.2932   22.0301 C   0  0  0  0  0  0  0  0  0  0  0  0
    7.4165   -0.7164   20.9878 C   0  0  0  0  0  0  0  0  0  0  0  0
    6.5722   -1.7051   21.6471 N   0  0  0  0  0  0  0  0  0  0  0  0
    6.0797   -2.8317   21.0101 C   0  0  0  0  0  0  0  0  0  0  0  0
    6.2505   -2.9268   19.8038 O   0  0  0  0  0  0  0  0  0  0  0  0
    5.2510   -3.8336   21.7193 C   0  0  0  0  0  0  0  0  0  0  0  0
    4.9660   -5.1145   21.2982 C   0  0  0  0  0  0  0  0  0  0  0  0
    5.7285   -5.8932   19.7303 Br  0  0  0  0  0  0  0  0  0  0  0  0
    4.0303   -5.6164   22.1887 N   0  0  0  0  0  0  0  0  0  0  0  0
    3.1924   -6.7427   22.1435 C   0  0  0  0  0  0  0  0  0  0  0  0
    2.3128   -6.9703   23.1858 C   0  0  0  0  0  0  0  0  0  0  0  0
    2.2719   -6.0537   24.3352 C   0  0  0  0  0  0  0  0  0  0  0  0
    3.0313   -4.9036   24.3150 C   0  0  0  0  0  0  0  0  0  0  0  0
    3.8976   -4.6557   23.1726 C   0  0  0  0  0  0  0  0  0  0  0  0
    4.6116   -3.5870   22.9298 N   0  0  0  0  0  0  0  0  0  0  0  0
    3.0125   -4.2003   25.1376 H   0  0  0  0  0  0  0  0  0  0  0  0
    1.6482   -6.2735   25.1972 H   0  0  0  0  0  0  0  0  0  0  0  0
    1.6340   -7.8151   23.1512 H   0  0  0  0  0  0  0  0  0  0  0  0
    3.1829   -7.4188   21.2992 H   0  0  0  0  0  0  0  0  0  0  0  0
    6.1482   -1.4608   22.5373 H   0  0  0  0  0  0  0  0  0  0  0  0
    6.6347   -0.0209   19.9041 C   0  0  0  0  0  0  0  0  0  0  0  0
    5.4306    0.6423   20.1556 C   0  0  0  0  0  0  0  0  0  0  0  0
    4.8113    1.2996   19.0958 C   0  0  0  0  0  0  0  0  0  0  0  0
    5.4047    1.2900   17.8302 C   0  0  0  0  0  0  0  0  0  0  0  0
    6.5630    0.6517   17.5830 N   0  0  0  0  0  0  0  0  0  0  0  0
    7.1569    0.0075   18.6018 C   0  0  0  0  0  0  0  0  0  0  0  0
    8.1062   -0.4862   18.4106 H   0  0  0  0  0  0  0  0  0  0  0  0
    4.9160    1.8254   17.0231 H   0  0  0  0  0  0  0  0  0  0  0  0
    3.8814    1.8384   19.2379 H   0  0  0  0  0  0  0  0  0  0  0  0
    4.9944    0.6546   21.1521 H   0  0  0  0  0  0  0  0  0  0  0  0
    8.2870   -1.2169   20.5505 H   0  0  0  0  0  0  0  0  0  0  0  0
    8.4379   -0.2756   22.8176 H   0  0  0  0  0  0  0  0  0  0  0  0
    7.0579    0.7735   22.4814 H   0  0  0  0  0  0  0  0  0  0  0  0
    8.4141    1.7736   20.6730 H   0  0  0  0  0  0  0  0  0  0  0  0
   10.5788    0.1264   21.8753 H   0  0  0  0  0  0  0  0  0  0  0  0
   10.8560    1.4722   20.7510 H   0  0  0  0  0  0  0  0  0  0  0  0
    9.9749    0.0289   20.2075 H   0  0  0  0  0  0  0  0  0  0  0  0
  1  2  1  0
  2  3  1  0
  3  4  1  0
  3  5  1  0
  3  6  1  0
  2  7  1  0
  7  8  1  0
  8  9  1  0
  9 10  1  0
 10 11  2  0
 10 12  1  0
 12 13  2  0
 13 14  1  0
 13 15  1  0
 15 16  1  0
 16 17  2  0
 17 18  1  0
 18 19  2  0
 19 20  1  0
 20 21  2  0
 19 22  1  0
 18 23  1  0
 17 24  1  0
 16 25  1  0
  9 26  1  0
  8 27  1  0
 27 28  2  0
 28 29  1  0
 29 30  2  0
 30 31  1  0
 31 32  2  0
 32 33  1  0
 30 34  1  0
 29 35  1  0
 28 36  1  0
  8 37  1  0
  7 38  1  0
  7 39  1  0
  2 40  1  0
  1 41  1  0
  1 42  1  0
  1 43  1  0
 21 12  1  0
 32 27  1  0
 20 15  1  0
M  CHG  1   2   1
M  END
>  <plip>  (1) 
-0.2413793103448276

>  <filename>  (1) 
[H][c]1[n][c]([H])[c]([C]([H])([N]([H])[C](=[O])[c]2[n][c]3[c]([H])[c]([H])[c]([H])[c]([H])[n]3[c]2[Br])[C]([H])([H])[N+]([H])([C]([H])([H])[H])[C]([H])([H])[H])[c]([H])[c]1[H]

$$$$
