
     RDKit          3D

 37 39  0  0  0  0  0  0  0  0999 V2000
    4.9791    1.7735   16.9572 H   0  0  0  0  0  0  0  0  0  0  0  0
    5.4423    1.3266   17.8344 C   0  0  0  0  0  0  0  0  0  0  0  0
    6.6371    0.7489   17.6386 N   0  0  0  0  0  0  0  0  0  0  0  0
    7.2243    0.1972   18.7072 C   0  0  0  0  0  0  0  0  0  0  0  0
    8.1712   -0.3072   18.5147 H   0  0  0  0  0  0  0  0  0  0  0  0
    6.6736    0.1692   20.0005 C   0  0  0  0  0  0  0  0  0  0  0  0
    7.4310   -0.5815   21.0730 C   0  0  0  0  0  0  0  0  0  0  0  0
    8.6050    0.1817   21.5156 N   0  0  0  0  0  0  0  0  0  0  0  0
    9.1614   -0.4342   22.1071 H   0  0  0  0  0  0  0  0  0  0  0  0
    8.3415    1.3889   22.2562 N   0  0  0  0  0  0  0  0  0  0  0  0
    7.3896    1.3965   22.6320 H   0  0  0  0  0  0  0  0  0  0  0  0
    8.5021    2.5655   21.3830 C   0  0  0  0  0  0  0  0  0  0  0  0
    8.0559    2.3492   20.4032 H   0  0  0  0  0  0  0  0  0  0  0  0
    9.5786    2.6942   21.2189 H   0  0  0  0  0  0  0  0  0  0  0  0
    7.9385    3.8544   21.9650 C   0  0  0  0  0  0  0  0  0  0  0  0
    8.7018    4.6090   22.8709 C   0  0  0  0  0  0  0  0  0  0  0  0
    9.7113    4.3055   23.1276 H   0  0  0  0  0  0  0  0  0  0  0  0
    8.1669    5.7699   23.4333 C   0  0  0  0  0  0  0  0  0  0  0  0
    8.7461    6.3406   24.1596 H   0  0  0  0  0  0  0  0  0  0  0  0
    6.9500    6.2473   23.1385 N   0  0  0  0  0  0  0  0  0  0  0  0
    6.2255    5.5563   22.2451 C   0  0  0  0  0  0  0  0  0  0  0  0
    5.2429    5.9644   22.0037 H   0  0  0  0  0  0  0  0  0  0  0  0
    6.6688    4.3736   21.6403 C   0  0  0  0  0  0  0  0  0  0  0  0
    6.0320    3.8902   20.9049 H   0  0  0  0  0  0  0  0  0  0  0  0
    7.8291   -2.0132   20.6493 C   0  0  0  0  0  0  0  0  0  0  0  0
    8.8716   -2.1641   20.3531 H   0  0  0  0  0  0  0  0  0  0  0  0
    7.1407   -2.3201   19.8560 H   0  0  0  0  0  0  0  0  0  0  0  0
    7.3332   -2.6081   21.9846 C   0  0  0  0  0  0  0  0  0  0  0  0
    8.1196   -2.8641   22.7006 H   0  0  0  0  0  0  0  0  0  0  0  0
    6.6825   -3.4828   21.8877 H   0  0  0  0  0  0  0  0  0  0  0  0
    6.6090   -1.2576   22.2102 C   0  0  0  0  0  0  0  0  0  0  0  0
    6.6341   -0.7942   23.2024 H   0  0  0  0  0  0  0  0  0  0  0  0
    5.5958   -1.3684   21.8285 H   0  0  0  0  0  0  0  0  0  0  0  0
    5.4358    0.8028   20.1868 C   0  0  0  0  0  0  0  0  0  0  0  0
    4.9674    0.8140   21.1750 H   0  0  0  0  0  0  0  0  0  0  0  0
    4.8050    1.3714   19.0799 C   0  0  0  0  0  0  0  0  0  0  0  0
    3.8291    1.8398   19.1650 H   0  0  0  0  0  0  0  0  0  0  0  0
  1  2  1  0
  2  3  2  0
  3  4  1  0
  4  5  1  0
  4  6  2  0
  6  7  1  0
  7  8  1  0
  8  9  1  0
  8 10  1  0
 10 11  1  0
 10 12  1  0
 12 13  1  0
 12 14  1  0
 12 15  1  0
 15 16  2  0
 16 17  1  0
 16 18  1  0
 18 19  1  0
 18 20  2  0
 20 21  1  0
 21 22  1  0
 21 23  2  0
 23 24  1  0
  7 25  1  0
 25 26  1  0
 25 27  1  0
 25 28  1  0
 28 29  1  0
 28 30  1  0
 28 31  1  0
 31 32  1  0
 31 33  1  0
  6 34  1  0
 34 35  1  0
 34 36  2  0
 36 37  1  0
 36  2  1  0
 31  7  1  0
 23 15  1  0
M  END
>  <plip>  (1) 
-0.07142857142857142

>  <filename>  (1) 
[H][c]1[n][c]([H])[c]([C]2([N]([H])[N]([H])[C]([H])([H])[c]3[c]([H])[c]([H])[n][c]([H])[c]3[H])[C]([H])([H])[C]([H])([H])[C]2([H])[H])[c]([H])[c]1[H]

$$$$
