
     RDKit          3D

 21 22  0  0  0  0  0  0  0  0999 V2000
    4.9285    1.7774   16.9980 H   0  0  0  0  0  0  0  0  0  0  0  0
    5.4059    1.2903   17.8439 C   0  0  0  0  0  0  0  0  0  0  0  0
    6.5683    0.6746   17.5896 N   0  0  0  0  0  0  0  0  0  0  0  0
    7.1727    0.0562   18.6038 C   0  0  0  0  0  0  0  0  0  0  0  0
    8.1184   -0.4309   18.3835 H   0  0  0  0  0  0  0  0  0  0  0  0
    6.6414    0.0016   19.9000 C   0  0  0  0  0  0  0  0  0  0  0  0
    7.4299   -0.7735   20.9028 C   0  0  0  0  0  0  0  0  0  0  0  0
    8.4031   -1.4202   20.6216 O   0  0  0  0  0  0  0  0  0  0  0  0
    6.8994   -0.6133   22.6525 S   0  0  0  0  0  0  0  0  0  0  0  0
    7.8207    0.8482   23.0434 C   0  0  0  0  0  0  0  0  0  0  0  0
    9.1714    0.9365   23.4581 C   0  0  0  0  0  0  0  0  0  0  0  0
    9.8519    0.1187   23.6452 H   0  0  0  0  0  0  0  0  0  0  0  0
    9.5626    2.2006   23.5410 N   0  0  0  0  0  0  0  0  0  0  0  0
    8.4917    2.9082   23.1779 N   0  0  0  0  0  0  0  0  0  0  0  0
    8.5603    3.9133   23.1957 H   0  0  0  0  0  0  0  0  0  0  0  0
    7.4172    2.1495   22.8609 C   0  0  0  0  0  0  0  0  0  0  0  0
    6.4742    2.5646   22.5306 H   0  0  0  0  0  0  0  0  0  0  0  0
    5.4350    0.6610   20.1665 C   0  0  0  0  0  0  0  0  0  0  0  0
    4.9856    0.6463   21.1657 H   0  0  0  0  0  0  0  0  0  0  0  0
    4.8077    1.3155   19.1092 C   0  0  0  0  0  0  0  0  0  0  0  0
    3.8719    1.8441   19.2539 H   0  0  0  0  0  0  0  0  0  0  0  0
  1  2  1  0
  2  3  2  0
  3  4  1  0
  4  5  1  0
  4  6  2  0
  6  7  1  0
  7  8  2  0
  7  9  1  0
  9 10  1  0
 10 11  1  0
 11 12  1  0
 11 13  2  0
 13 14  1  0
 14 15  1  0
 14 16  1  0
 16 17  1  0
  6 18  1  0
 18 19  1  0
 18 20  2  0
 20 21  1  0
 20  2  1  0
 16 10  2  0
M  END
>  <plip>  (1) 
-0.07142857142857142

>  <filename>  (1) 
[H][c]1[n][c]([H])[c]([C](=[O])[S][c]2[c]([H])[n][n]([H])[c]2[H])[c]([H])[c]1[H]

$$$$
