
     RDKit          3D

 37 39  0  0  0  0  0  0  0  0999 V2000
    9.5349    0.0211   20.3775 O   0  0  0  0  0  0  0  0  0  0  0  0
    8.7474   -0.4076   21.1991 C   0  0  0  0  0  0  0  0  0  0  0  0
    9.2054   -0.8224   22.6146 C   0  0  0  0  0  0  0  0  0  0  0  0
    9.1286    0.2862   23.7345 N   0  0  0  0  0  4  0  0  0  0  0  0
    7.6782    0.7215   24.0011 C   0  0  0  0  0  0  0  0  0  0  0  0
    7.5246    2.0082   23.2387 C   0  0  0  0  0  0  0  0  0  0  0  0
    6.3621    2.7025   22.8970 C   0  0  0  0  0  0  0  0  0  0  0  0
    6.4551    3.9365   22.2439 C   0  0  0  0  0  0  0  0  0  0  0  0
    7.7302    4.4928   22.0322 C   0  0  0  0  0  0  0  0  0  0  0  0
    7.8469    5.8432   21.4153 N   0  0  0  0  0  4  0  0  0  0  0  0
    8.8899    6.4606   21.5675 O   0  0  0  0  0  0  0  0  0  0  0  0
    6.8861    6.2748   20.7991 O   0  0  0  0  0  1  0  0  0  0  0  0
    8.9042    3.8133   22.3854 C   0  0  0  0  0  0  0  0  0  0  0  0
    8.7833    2.5292   22.9198 C   0  0  0  0  0  0  0  0  0  0  0  0
    9.8773    1.5585   23.2764 C   0  0  0  0  0  0  0  0  0  0  0  0
   10.4904    1.3093   22.4093 H   0  0  0  0  0  0  0  0  0  0  0  0
   10.5353    1.9170   24.0723 H   0  0  0  0  0  0  0  0  0  0  0  0
    9.8599    4.3261   22.2837 H   0  0  0  0  0  0  0  0  0  0  0  0
    5.5589    4.4589   21.9046 H   0  0  0  0  0  0  0  0  0  0  0  0
    5.3817    2.3031   23.1504 H   0  0  0  0  0  0  0  0  0  0  0  0
    6.9851   -0.0565   23.6838 H   0  0  0  0  0  0  0  0  0  0  0  0
    7.5444    0.8731   25.0752 H   0  0  0  0  0  0  0  0  0  0  0  0
    9.5563   -0.0610   24.6163 H   0  0  0  0  0  0  0  0  0  0  0  0
    8.6120   -1.6806   22.9377 H   0  0  0  0  0  0  0  0  0  0  0  0
   10.2513   -1.1143   22.5009 H   0  0  0  0  0  0  0  0  0  0  0  0
    7.4084   -0.5808   20.9266 N   0  0  0  0  0  0  0  0  0  0  0  0
    6.6936    0.0226   19.8577 C   0  0  0  0  0  0  0  0  0  0  0  0
    5.4586    0.6238   20.1244 C   0  0  0  0  0  0  0  0  0  0  0  0
    4.8025    1.2861   19.0803 C   0  0  0  0  0  0  0  0  0  0  0  0
    5.3839    1.2950   17.8088 C   0  0  0  0  0  0  0  0  0  0  0  0
    6.5417    0.6746   17.5263 N   0  0  0  0  0  0  0  0  0  0  0  0
    7.1800    0.0620   18.5311 C   0  0  0  0  0  0  0  0  0  0  0  0
    8.1262   -0.4221   18.3066 H   0  0  0  0  0  0  0  0  0  0  0  0
    4.9041    1.8181   16.9848 H   0  0  0  0  0  0  0  0  0  0  0  0
    3.8661    1.8077   19.2417 H   0  0  0  0  0  0  0  0  0  0  0  0
    5.0428    0.5932   21.1319 H   0  0  0  0  0  0  0  0  0  0  0  0
    6.8340   -0.9089   21.6841 H   0  0  0  0  0  0  0  0  0  0  0  0
  1  2  2  0
  2  3  1  0
  3  4  1  0
  4  5  1  0
  5  6  1  0
  6  7  2  0
  7  8  1  0
  8  9  2  0
  9 10  1  0
 10 11  2  0
 10 12  1  0
  9 13  1  0
 13 14  2  0
 14 15  1  0
 15 16  1  0
 15 17  1  0
 13 18  1  0
  8 19  1  0
  7 20  1  0
  5 21  1  0
  5 22  1  0
  4 23  1  0
  3 24  1  0
  3 25  1  0
  2 26  1  0
 26 27  1  0
 27 28  2  0
 28 29  1  0
 29 30  2  0
 30 31  1  0
 31 32  2  0
 32 33  1  0
 30 34  1  0
 29 35  1  0
 28 36  1  0
 26 37  1  0
 15  4  1  0
 32 27  1  0
 14  6  1  0
M  CHG  3   4   1  10   1  12  -1
M  END
>  <plip>  (1) 
-0.07142857142857142

>  <filename>  (1) 
[H][c]1[n][c]([H])[c]([N]([H])[C](=[O])[C]([H])([H])[N+]2([H])[C]([H])([H])[c]3[c]([H])[c]([H])[c]([N+](=[O])[O-])[c]([H])[c]3[C]2([H])[H])[c]([H])[c]1[H]

$$$$
