
     RDKit          3D

 27 27  0  0  0  0  0  0  0  0999 V2000
   11.8708   -3.8526   24.8837 H   0  0  0  0  0  0  0  0  0  0  0  0
   11.1548   -4.3754   24.4702 O   0  0  0  0  0  0  0  0  0  0  0  0
   10.2952   -3.3737   24.2795 C   0  0  0  0  0  0  0  0  0  0  0  0
   10.6136   -2.2530   24.6087 O   0  0  0  0  0  0  0  0  0  0  0  0
    8.9566   -3.6421   23.5836 C   0  0  0  0  0  0  0  0  0  0  0  0
    8.6519   -4.8496   23.1110 O   0  0  0  0  0  0  0  0  0  0  0  0
    7.8379   -4.7205   22.5611 H   0  0  0  0  0  0  0  0  0  0  0  0
    8.1380   -2.5747   23.3952 C   0  0  0  0  0  0  0  0  0  0  0  0
    8.2906   -1.6825   23.9856 H   0  0  0  0  0  0  0  0  0  0  0  0
    7.1532   -2.5176   22.3410 C   0  0  0  0  0  0  0  0  0  0  0  0
    6.8194   -3.4968   21.6833 O   0  0  0  0  0  0  0  0  0  0  0  0
    6.5661   -1.1515   21.9511 C   0  0  1  0  0  0  0  0  0  0  0  0
    5.5521   -1.4035   21.6425 H   0  0  0  0  0  0  0  0  0  0  0  0
    6.4315   -0.1413   22.9571 O   0  0  0  0  0  0  0  0  0  0  0  0
    7.2752    0.1864   23.3164 H   0  0  0  0  0  0  0  0  0  0  0  0
    7.3223   -0.7333   20.6585 C   0  0  0  0  0  0  0  0  0  0  0  0
    8.4750   -1.0740   20.4821 O   0  0  0  0  0  0  0  0  0  0  0  0
    6.5882    0.0772   19.6566 C   0  0  0  0  0  0  0  0  0  0  0  0
    7.1203    0.1195   18.3614 C   0  0  0  0  0  0  0  0  0  0  0  0
    8.0557   -0.3888   18.1362 H   0  0  0  0  0  0  0  0  0  0  0  0
    6.5269    0.7508   17.3471 N   0  0  0  0  0  0  0  0  0  0  0  0
    5.3828    1.4020   17.6030 C   0  0  0  0  0  0  0  0  0  0  0  0
    4.9280    1.9199   16.7616 H   0  0  0  0  0  0  0  0  0  0  0  0
    4.7915    1.4541   18.8685 C   0  0  0  0  0  0  0  0  0  0  0  0
    3.8683    2.0016   19.0045 H   0  0  0  0  0  0  0  0  0  0  0  0
    5.4068    0.7887   19.9266 C   0  0  0  0  0  0  0  0  0  0  0  0
    5.0042    0.8398   20.9427 H   0  0  0  0  0  0  0  0  0  0  0  0
  1  2  1  0
  2  3  1  0
  3  4  2  0
  3  5  1  0
  5  6  1  0
  6  7  1  0
  5  8  2  3
  8  9  1  0
  8 10  1  0
 10 11  2  0
 10 12  1  0
 12 13  1  6
 12 14  1  0
 14 15  1  0
 12 16  1  0
 16 17  2  0
 16 18  1  0
 18 19  2  0
 19 20  1  0
 19 21  1  0
 21 22  2  0
 22 23  1  0
 22 24  1  0
 24 25  1  0
 24 26  2  0
 26 27  1  0
 26 18  1  0
M  END
>  <plip>  (1) 
-0.10344827586206896

>  <filename>  (1) 
[H][O][C](=[O])[C]([O][H])=[C]([H])[C](=[O])[C@@]([H])([O][H])[C](=[O])[c]1[c]([H])[n][c]([H])[c]([H])[c]1[H]

$$$$
