
     RDKit          3D

 36 37  0  0  0  0  0  0  0  0999 V2000
    4.9631    1.7709   16.9626 H   0  0  0  0  0  0  0  0  0  0  0  0
    5.4091    1.2925   17.8299 C   0  0  0  0  0  0  0  0  0  0  0  0
    6.5828    0.6737   17.6255 N   0  0  0  0  0  0  0  0  0  0  0  0
    7.1717    0.1120   18.6923 C   0  0  0  0  0  0  0  0  0  0  0  0
    8.1198   -0.3917   18.4898 H   0  0  0  0  0  0  0  0  0  0  0  0
    6.6260    0.1289   19.9828 C   0  0  0  0  0  0  0  0  0  0  0  0
    7.3142   -0.5987   21.1240 C   0  0  2  0  0  0  0  0  0  0  0  0
    6.8605   -0.2136   22.0497 H   0  0  0  0  0  0  0  0  0  0  0  0
    8.7402   -0.3172   21.1899 N   0  0  0  0  0  0  0  0  0  0  0  0
    9.1492    0.8254   21.8909 C   0  0  0  0  0  0  0  0  0  0  0  0
   10.0913    0.7388   22.9330 C   0  0  0  0  0  0  0  0  0  0  0  0
   10.5302   -0.2289   23.1630 H   0  0  0  0  0  0  0  0  0  0  0  0
   10.4226    1.8713   23.6698 C   0  0  0  0  0  0  0  0  0  0  0  0
   11.1124    1.8623   24.5060 H   0  0  0  0  0  0  0  0  0  0  0  0
    9.8474    3.0967   23.3471 C   0  0  0  0  0  0  0  0  0  0  0  0
   10.2749    4.1315   24.1833 O   0  0  0  0  0  0  0  0  0  0  0  0
    9.8298    5.3918   24.0344 C   0  0  0  0  0  0  0  0  0  0  0  0
   10.1371    5.9101   22.8342 F   0  0  0  0  0  0  0  0  0  0  0  0
   10.4058    6.1377   24.9715 F   0  0  0  0  0  0  0  0  0  0  0  0
    8.4976    5.4869   24.1781 F   0  0  0  0  0  0  0  0  0  0  0  0
    8.9463    3.2210   22.2909 C   0  0  0  0  0  0  0  0  0  0  0  0
    8.5155    4.1797   22.0332 H   0  0  0  0  0  0  0  0  0  0  0  0
    8.5962    2.0773   21.5696 C   0  0  0  0  0  0  0  0  0  0  0  0
    7.8972    2.1391   20.7437 H   0  0  0  0  0  0  0  0  0  0  0  0
    9.7365   -1.2540   20.7211 C   0  0  0  0  0  0  0  0  0  0  0  0
   10.6593   -0.7068   20.5045 H   0  0  0  0  0  0  0  0  0  0  0  0
    9.9747   -2.0599   21.4384 H   0  0  0  0  0  0  0  0  0  0  0  0
    9.4207   -1.7304   19.7866 H   0  0  0  0  0  0  0  0  0  0  0  0
    7.0008   -2.0930   21.0577 C   0  0  0  0  0  0  0  0  0  0  0  0
    5.9521   -2.2620   21.3231 H   0  0  0  0  0  0  0  0  0  0  0  0
    7.1450   -2.4444   20.0379 H   0  0  0  0  0  0  0  0  0  0  0  0
    7.6549   -2.6698   21.7194 H   0  0  0  0  0  0  0  0  0  0  0  0
    5.3731    0.7317   20.1636 C   0  0  0  0  0  0  0  0  0  0  0  0
    4.8928    0.7332   21.1447 H   0  0  0  0  0  0  0  0  0  0  0  0
    4.7605    1.3368   19.0666 C   0  0  0  0  0  0  0  0  0  0  0  0
    3.8093    1.8492   19.1661 H   0  0  0  0  0  0  0  0  0  0  0  0
  1  2  1  0
  2  3  2  0
  3  4  1  0
  4  5  1  0
  4  6  2  0
  6  7  1  0
  7  8  1  1
  7  9  1  0
  9 10  1  0
 10 11  2  0
 11 12  1  0
 11 13  1  0
 13 14  1  0
 13 15  2  0
 15 16  1  0
 16 17  1  0
 17 18  1  0
 17 19  1  0
 17 20  1  0
 15 21  1  0
 21 22  1  0
 21 23  2  0
 23 24  1  0
  9 25  1  0
 25 26  1  0
 25 27  1  0
 25 28  1  0
  7 29  1  0
 29 30  1  0
 29 31  1  0
 29 32  1  0
  6 33  1  0
 33 34  1  0
 33 35  2  0
 35 36  1  0
 35  2  1  0
 23 10  1  0
M  END
>  <plip>  (1) 
-0.03571428571428571

>  <filename>  (1) 
[H][c]1[n][c]([H])[c]([C@]([H])([N]([c]2[c]([H])[c]([H])[c]([O][C]([F])([F])[F])[c]([H])[c]2[H])[C]([H])([H])[H])[C]([H])([H])[H])[c]([H])[c]1[H]

$$$$
