
     RDKit          3D

 38 40  0  0  0  0  0  0  0  0999 V2000
    5.0244    1.9824   16.9185 H   0  0  0  0  0  0  0  0  0  0  0  0
    5.4518    1.3842   17.7203 C   0  0  0  0  0  0  0  0  0  0  0  0
    6.6042    0.7543   17.4395 N   0  0  0  0  0  0  0  0  0  0  0  0
    7.1754    0.0440   18.4162 C   0  0  0  0  0  0  0  0  0  0  0  0
    8.1101   -0.4607   18.1696 H   0  0  0  0  0  0  0  0  0  0  0  0
    6.6287   -0.0931   19.7092 C   0  0  0  0  0  0  0  0  0  0  0  0
    7.3605   -0.7870   20.7421 N   0  0  0  0  0  0  0  0  0  0  0  0
    8.6904   -0.4314   20.9643 C   0  0  0  0  0  0  0  0  0  0  0  0
    9.0635    0.3814   20.3443 H   0  0  0  0  0  0  0  0  0  0  0  0
    9.4470   -1.0204   21.9135 C   0  0  0  0  0  0  0  0  0  0  0  0
   10.7637   -0.4733   22.4054 C   0  0  0  0  0  0  0  0  0  0  0  0
   11.2656    0.1375   21.6398 H   0  0  0  0  0  0  0  0  0  0  0  0
   11.4379   -1.2997   22.6560 H   0  0  0  0  0  0  0  0  0  0  0  0
   10.4791    0.3480   23.6594 C   0  0  0  0  0  0  0  0  0  0  0  0
   10.6149   -0.2151   24.9317 C   0  0  0  0  0  0  0  0  0  0  0  0
   11.0587   -1.2000   25.0176 H   0  0  0  0  0  0  0  0  0  0  0  0
   10.0894    0.4030   26.0688 C   0  0  0  0  0  0  0  0  0  0  0  0
   10.1407   -0.0965   27.0353 H   0  0  0  0  0  0  0  0  0  0  0  0
    9.4468    1.6345   25.9366 C   0  0  0  0  0  0  0  0  0  0  0  0
    9.0179    2.1012   26.8183 H   0  0  0  0  0  0  0  0  0  0  0  0
    9.3403    2.2587   24.6865 C   0  0  0  0  0  0  0  0  0  0  0  0
    8.8391    3.2199   24.5956 H   0  0  0  0  0  0  0  0  0  0  0  0
    9.8574    1.6135   23.5516 C   0  0  0  0  0  0  0  0  0  0  0  0
    9.7538    2.0999   22.2788 O   0  0  0  0  0  0  0  0  0  0  0  0
    8.9650    3.2390   22.0083 C   0  0  0  0  0  0  0  0  0  0  0  0
    7.9409    3.1415   22.4012 H   0  0  0  0  0  0  0  0  0  0  0  0
    8.9198    3.2898   20.9179 H   0  0  0  0  0  0  0  0  0  0  0  0
    9.4280    4.1573   22.4044 H   0  0  0  0  0  0  0  0  0  0  0  0
    8.8512   -2.1119   22.6999 C   0  0  0  0  0  0  0  0  0  0  0  0
    9.4205   -2.8905   23.4352 O   0  0  0  0  0  0  0  0  0  0  0  0
    7.4903   -2.2365   22.5681 N   0  0  0  0  0  0  0  0  0  0  0  0
    7.0949   -3.0308   23.0278 H   0  0  0  0  0  0  0  0  0  0  0  0
    6.7409   -1.7906   21.5252 C   0  0  0  0  0  0  0  0  0  0  0  0
    5.6498   -2.2659   21.3239 O   0  0  0  0  0  0  0  0  0  0  0  0
    5.3927    0.5121   19.9695 C   0  0  0  0  0  0  0  0  0  0  0  0
    4.9103    0.3839   20.9379 H   0  0  0  0  0  0  0  0  0  0  0  0
    4.8102    1.2860   18.9590 C   0  0  0  0  0  0  0  0  0  0  0  0
    3.8818    1.8238   19.1221 H   0  0  0  0  0  0  0  0  0  0  0  0
  1  2  1  0
  2  3  2  0
  3  4  1  0
  4  5  1  0
  4  6  2  0
  6  7  1  0
  7  8  1  0
  8  9  1  0
  8 10  2  0
 10 11  1  0
 11 12  1  0
 11 13  1  0
 11 14  1  0
 14 15  2  0
 15 16  1  0
 15 17  1  0
 17 18  1  0
 17 19  2  0
 19 20  1  0
 19 21  1  0
 21 22  1  0
 21 23  2  0
 23 24  1  0
 24 25  1  0
 25 26  1  0
 25 27  1  0
 25 28  1  0
 10 29  1  0
 29 30  2  0
 29 31  1  0
 31 32  1  0
 31 33  1  0
 33 34  2  0
  6 35  1  0
 35 36  1  0
 35 37  2  0
 37 38  1  0
 37  2  1  0
 33  7  1  0
 23 14  1  0
M  END
>  <plip>  (1) 
-0.13793103448275862

>  <filename>  (1) 
[H][c]1[n][c]([H])[c](-[n]2[c]([H])[c]([C]([H])([H])[c]3[c]([H])[c]([H])[c]([H])[c]([H])[c]3[O][C]([H])([H])[H])[c](=[O])[n]([H])[c]2=[O])[c]([H])[c]1[H]

$$$$
