
     RDKit          3D

 28 30  0  0  0  0  0  0  0  0999 V2000
    5.1399   -2.8317   27.0163 H   0  0  0  0  0  0  0  0  0  0  0  0
    5.2571   -2.8784   25.9378 C   0  0  0  0  0  0  0  0  0  0  0  0
    4.4649   -3.3366   24.9747 C   0  0  0  0  0  0  0  0  0  0  0  0
    3.4602   -3.7432   24.9989 H   0  0  0  0  0  0  0  0  0  0  0  0
    5.1727   -3.2183   23.6671 C   0  0  0  0  0  0  0  0  0  0  0  0
    4.8135   -3.6134   22.5952 O   0  0  0  0  0  0  0  0  0  0  0  0
    6.3970   -2.6024   23.9516 N   0  0  0  0  0  0  0  0  0  0  0  0
    7.2165   -2.0489   22.9775 C   0  0  0  0  0  0  0  0  0  0  0  0
    6.5909   -1.3916   22.0344 N   0  0  0  0  0  0  0  0  0  0  0  0
    7.3387   -0.7673   21.0681 C   0  0  0  0  0  0  0  0  0  0  0  0
    6.5947   -0.0618   19.9854 C   0  0  0  0  0  0  0  0  0  0  0  0
    7.1233   -0.0355   18.6817 C   0  0  0  0  0  0  0  0  0  0  0  0
    8.0378   -0.5755   18.4604 H   0  0  0  0  0  0  0  0  0  0  0  0
    6.5807    0.6017   17.6376 N   0  0  0  0  0  0  0  0  0  0  0  0
    5.4416    1.2730   17.8666 C   0  0  0  0  0  0  0  0  0  0  0  0
    5.0248    1.8154   17.0170 H   0  0  0  0  0  0  0  0  0  0  0  0
    4.8036    1.2899   19.1153 C   0  0  0  0  0  0  0  0  0  0  0  0
    3.8826    1.8535   19.2258 H   0  0  0  0  0  0  0  0  0  0  0  0
    5.3764    0.6066   20.1926 C   0  0  0  0  0  0  0  0  0  0  0  0
    4.8963    0.5911   21.1748 H   0  0  0  0  0  0  0  0  0  0  0  0
    8.7100   -0.7786   21.0792 C   0  0  0  0  0  0  0  0  0  0  0  0
    9.3273   -0.2586   20.3532 H   0  0  0  0  0  0  0  0  0  0  0  0
    9.3610   -1.4706   22.0757 N   0  0  0  0  0  0  0  0  0  0  0  0
   10.3628   -1.5949   22.1487 H   0  0  0  0  0  0  0  0  0  0  0  0
    8.7283   -2.2201   23.0562 C   0  0  0  0  0  0  0  0  0  0  0  0
    9.4200   -2.8887   23.7986 O   0  0  0  0  0  0  0  0  0  0  0  0
    6.5046   -2.3410   25.3199 C   0  0  0  0  0  0  0  0  0  0  0  0
    7.4111   -1.7785   25.8650 O   0  0  0  0  0  0  0  0  0  0  0  0
  1  2  1  0
  2  3  2  0
  3  4  1  0
  3  5  1  0
  5  6  2  0
  5  7  1  0
  7  8  1  0
  8  9  2  0
  9 10  1  0
 10 11  1  0
 11 12  2  0
 12 13  1  0
 12 14  1  0
 14 15  2  0
 15 16  1  0
 15 17  1  0
 17 18  1  0
 17 19  2  0
 19 20  1  0
 10 21  2  0
 21 22  1  0
 21 23  1  0
 23 24  1  0
 23 25  1  0
 25 26  2  0
  7 27  1  0
 27 28  2  0
 27  2  1  0
 25  8  1  0
 19 11  1  0
M  END
>  <plip>  (1) 
-0.03333333333333333

>  <filename>  (1) 
[H][C]1=[C]([H])[C](=[O])[N]([c]2[n][c](-[c]3[c]([H])[n][c]([H])[c]([H])[c]3[H])[c]([H])[n]([H])[c]2=[O])[C]1=[O]

$$$$
