
     RDKit          3D

 30 32  0  0  0  0  0  0  0  0999 V2000
    8.7924   -6.5857   23.6105 F   0  0  0  0  0  0  0  0  0  0  0  0
    8.0589   -5.7722   22.8136 C   0  0  0  0  0  0  0  0  0  0  0  0
    7.0308   -6.3269   22.0447 C   0  0  0  0  0  0  0  0  0  0  0  0
    6.6723   -8.1876   22.1306 Br  0  0  0  0  0  0  0  0  0  0  0  0
    6.2437   -5.5225   21.2275 C   0  0  0  0  0  0  0  0  0  0  0  0
    6.5039   -4.1517   21.1508 C   0  0  0  0  0  0  0  0  0  0  0  0
    7.5750   -3.5877   21.8819 C   0  0  0  0  0  0  0  0  0  0  0  0
    7.9806   -2.2567   21.7966 C   0  0  0  0  0  0  0  0  0  0  0  0
    7.4613   -1.4227   20.8441 N   0  0  0  0  0  0  0  0  0  0  0  0
    7.4047    0.0374   21.0011 C   0  0  0  0  0  0  0  0  0  0  0  0
    6.6225    0.4978   19.8157 C   0  0  0  0  0  0  0  0  0  0  0  0
    5.4047    1.1757   19.9386 C   0  0  0  0  0  0  0  0  0  0  0  0
    4.7291    1.5110   18.7665 C   0  0  0  0  0  0  0  0  0  0  0  0
    5.2940    1.1948   17.5259 C   0  0  0  0  0  0  0  0  0  0  0  0
    6.4713    0.5551   17.4103 N   0  0  0  0  0  0  0  0  0  0  0  0
    7.1140    0.2154   18.5368 C   0  0  0  0  0  0  0  0  0  0  0  0
    8.0684   -0.2937   18.4460 H   0  0  0  0  0  0  0  0  0  0  0  0
    4.7721    1.4634   16.6162 H   0  0  0  0  0  0  0  0  0  0  0  0
    3.7761    2.0299   18.8015 H   0  0  0  0  0  0  0  0  0  0  0  0
    4.9935    1.4374   20.9126 H   0  0  0  0  0  0  0  0  0  0  0  0
    8.4051    0.4893   20.9975 H   0  0  0  0  0  0  0  0  0  0  0  0
    6.9003    0.3251   21.9328 H   0  0  0  0  0  0  0  0  0  0  0  0
    6.7877   -1.8396   20.2200 H   0  0  0  0  0  0  0  0  0  0  0  0
    8.9351   -1.7407   22.5370 N   0  0  0  0  0  0  0  0  0  0  0  0
    9.5375   -2.5456   23.3971 C   0  0  0  0  0  0  0  0  0  0  0  0
    9.2870   -3.8531   23.5037 N   0  0  0  0  0  0  0  0  0  0  0  0
    8.3231   -4.3891   22.7495 C   0  0  0  0  0  0  0  0  0  0  0  0
   10.3006   -2.1140   24.0353 H   0  0  0  0  0  0  0  0  0  0  0  0
    5.8627   -3.5403   20.5236 H   0  0  0  0  0  0  0  0  0  0  0  0
    5.4367   -5.9942   20.6696 H   0  0  0  0  0  0  0  0  0  0  0  0
  1  2  1  0
  2  3  2  0
  3  4  1  0
  3  5  1  0
  5  6  2  0
  6  7  1  0
  7  8  2  0
  8  9  1  0
  9 10  1  0
 10 11  1  0
 11 12  2  0
 12 13  1  0
 13 14  2  0
 14 15  1  0
 15 16  2  0
 16 17  1  0
 14 18  1  0
 13 19  1  0
 12 20  1  0
 10 21  1  0
 10 22  1  0
  9 23  1  0
  8 24  1  0
 24 25  2  0
 25 26  1  0
 26 27  2  0
 25 28  1  0
  6 29  1  0
  5 30  1  0
 27  2  1  0
 27  7  1  0
 16 11  1  0
M  END
>  <plip>  (1) 
-0.06666666666666667

>  <filename>  (1) 
[H][c]1[n][c]([N]([H])[C]([H])([H])[c]2[c]([H])[n][c]([H])[c]([H])[c]2[H])[c]2[c]([H])[c]([H])[c]([Br])[c]([F])[c]2[n]1

$$$$
