
     RDKit          3D

 34 36  0  0  0  0  0  0  0  0999 V2000
    4.9195    1.8036   17.0010 H   0  0  0  0  0  0  0  0  0  0  0  0
    5.4026    1.2933   17.8292 C   0  0  0  0  0  0  0  0  0  0  0  0
    6.5616    0.6750   17.5462 N   0  0  0  0  0  0  0  0  0  0  0  0
    7.2007    0.0625   18.5507 C   0  0  0  0  0  0  0  0  0  0  0  0
    8.1495   -0.4178   18.3217 H   0  0  0  0  0  0  0  0  0  0  0  0
    6.6982    0.0077   19.8693 C   0  0  0  0  0  0  0  0  0  0  0  0
    7.3918   -0.6851   20.9327 N   0  0  0  0  0  0  0  0  0  0  0  0
    8.7432   -0.5317   21.2298 C   0  0  0  0  0  0  0  0  0  0  0  0
    9.5213    0.1213   20.5811 O   0  0  0  0  0  0  0  0  0  0  0  0
    9.0991   -1.3618   22.4343 C   0  0  0  0  0  0  0  0  0  0  0  0
    9.5891   -0.7060   23.1529 H   0  0  0  0  0  0  0  0  0  0  0  0
    9.8270   -2.1093   22.1203 H   0  0  0  0  0  0  0  0  0  0  0  0
    7.7858   -1.9556   22.9389 C   0  0  1  0  0  0  0  0  0  0  0  0
    7.7860   -3.0511   22.9921 H   0  0  0  0  0  0  0  0  0  0  0  0
    7.4443   -1.4539   24.2803 N   0  0  0  0  0  0  0  0  0  0  0  0
    7.4401   -2.0789   25.0703 H   0  0  0  0  0  0  0  0  0  0  0  0
    7.2551   -0.1325   24.5789 C   0  0  0  0  0  0  0  0  0  0  0  0
    7.4990    0.7490   23.7697 O   0  0  0  0  0  0  0  0  0  0  0  0
    6.7032    0.1702   25.9832 C   0  0  0  0  0  0  0  0  0  0  0  0
    6.8975    1.4625   26.5125 C   0  0  0  0  0  0  0  0  0  0  0  0
    7.4235    2.2239   25.9402 H   0  0  0  0  0  0  0  0  0  0  0  0
    6.3860    1.7741   27.7761 C   0  0  0  0  0  0  0  0  0  0  0  0
    6.5327    2.7709   28.1911 H   0  0  0  0  0  0  0  0  0  0  0  0
    5.6924    0.9098   28.5288 N   0  0  0  0  0  0  0  0  0  0  0  0
    5.4892   -0.3161   28.0303 C   0  0  0  0  0  0  0  0  0  0  0  0
    4.9143   -1.0010   28.6552 H   0  0  0  0  0  0  0  0  0  0  0  0
    5.9602   -0.7345   26.7795 C   0  0  0  0  0  0  0  0  0  0  0  0
    5.6835   -1.7376   26.4572 H   0  0  0  0  0  0  0  0  0  0  0  0
    6.7897   -1.6284   21.7691 C   0  0  0  0  0  0  0  0  0  0  0  0
    5.7349   -2.1677   21.5470 O   0  0  0  0  0  0  0  0  0  0  0  0
    5.4779    0.6363   20.1422 C   0  0  0  0  0  0  0  0  0  0  0  0
    5.0630    0.5893   21.1495 H   0  0  0  0  0  0  0  0  0  0  0  0
    4.8219    1.3043   19.1019 C   0  0  0  0  0  0  0  0  0  0  0  0
    3.8861    1.8328   19.2681 H   0  0  0  0  0  0  0  0  0  0  0  0
  1  2  1  0
  2  3  2  0
  3  4  1  0
  4  5  1  0
  4  6  2  0
  6  7  1  0
  7  8  1  0
  8  9  2  0
  8 10  1  0
 10 11  1  0
 10 12  1  0
 10 13  1  0
 13 14  1  1
 13 15  1  0
 15 16  1  0
 15 17  1  0
 17 18  2  0
 17 19  1  0
 19 20  2  0
 20 21  1  0
 20 22  1  0
 22 23  1  0
 22 24  2  0
 24 25  1  0
 25 26  1  0
 25 27  2  0
 27 28  1  0
 13 29  1  0
 29 30  2  0
  6 31  1  0
 31 32  1  0
 31 33  2  0
 33 34  1  0
 33  2  1  0
 29  7  1  0
 27 19  1  0
M  END
>  <plip>  (1) 
-0.10714285714285714

>  <filename>  (1) 
[H][c]1[n][c]([H])[c]([N]2[C](=[O])[C]([H])([H])[C@@]([H])([N]([H])[C](=[O])[c]3[c]([H])[c]([H])[n][c]([H])[c]3[H])[C]2=[O])[c]([H])[c]1[H]

$$$$
