
     RDKit          3D

 37 39  0  0  0  0  0  0  0  0999 V2000
    4.9148    1.7777   17.0007 H   0  0  0  0  0  0  0  0  0  0  0  0
    5.4042    1.2923   17.8441 C   0  0  0  0  0  0  0  0  0  0  0  0
    6.5717    0.6782   17.5907 N   0  0  0  0  0  0  0  0  0  0  0  0
    7.1829    0.0519   18.5998 C   0  0  0  0  0  0  0  0  0  0  0  0
    8.1280   -0.4374   18.3784 H   0  0  0  0  0  0  0  0  0  0  0  0
    6.6585    0.0026   19.9021 C   0  0  0  0  0  0  0  0  0  0  0  0
    7.3663   -0.6747   20.9431 N   0  0  0  0  0  0  0  0  0  0  0  0
    7.9894   -1.8568   20.7244 N   0  0  0  0  0  0  0  0  0  0  0  0
    8.4713   -2.2758   21.8472 N   0  0  0  0  0  0  0  0  0  0  0  0
    8.1696   -1.3805   22.8259 C   0  0  0  0  0  0  0  0  0  0  0  0
    8.4709   -1.4789   23.8547 H   0  0  0  0  0  0  0  0  0  0  0  0
    7.4743   -0.3307   22.2639 C   0  0  0  0  0  0  0  0  0  0  0  0
    6.9715    0.8424   22.7923 N   0  0  0  0  0  0  0  0  0  0  0  0
    7.5495    2.1266   22.3599 C   0  0  0  0  0  0  0  0  0  0  0  0
    7.7872    2.0739   21.2931 H   0  0  0  0  0  0  0  0  0  0  0  0
    8.4899    2.3562   22.8881 H   0  0  0  0  0  0  0  0  0  0  0  0
    6.5384    3.2432   22.6034 C   0  0  0  0  0  0  0  0  0  0  0  0
    6.9938    4.1974   22.3204 H   0  0  0  0  0  0  0  0  0  0  0  0
    5.6816    3.0838   21.9190 H   0  0  0  0  0  0  0  0  0  0  0  0
    6.0992    3.2815   24.0098 N   0  0  0  0  0  0  0  0  0  0  0  0
    5.2052    4.4039   24.2746 C   0  0  0  0  0  0  0  0  0  0  0  0
    4.4666    4.5325   23.4598 H   0  0  0  0  0  0  0  0  0  0  0  0
    4.6216    4.1896   25.1778 H   0  0  0  0  0  0  0  0  0  0  0  0
    5.9740    5.6946   24.5008 C   0  0  0  0  0  0  0  0  0  0  0  0
    6.7348    5.5473   25.2718 H   0  0  0  0  0  0  0  0  0  0  0  0
    5.2949    6.4873   24.8268 H   0  0  0  0  0  0  0  0  0  0  0  0
    6.4737    6.0311   23.5878 H   0  0  0  0  0  0  0  0  0  0  0  0
    5.4914    1.9928   24.3603 C   0  0  0  0  0  0  0  0  0  0  0  0
    5.1754    2.0106   25.4091 H   0  0  0  0  0  0  0  0  0  0  0  0
    4.5875    1.7911   23.7519 H   0  0  0  0  0  0  0  0  0  0  0  0
    6.4760    0.8407   24.1701 C   0  0  0  0  0  0  0  0  0  0  0  0
    5.9571   -0.1077   24.3399 H   0  0  0  0  0  0  0  0  0  0  0  0
    7.2808    0.9149   24.9220 H   0  0  0  0  0  0  0  0  0  0  0  0
    5.4458    0.6477   20.1637 C   0  0  0  0  0  0  0  0  0  0  0  0
    5.0119    0.6295   21.1662 H   0  0  0  0  0  0  0  0  0  0  0  0
    4.8086    1.3069   19.1105 C   0  0  0  0  0  0  0  0  0  0  0  0
    3.8744    1.8411   19.2616 H   0  0  0  0  0  0  0  0  0  0  0  0
  1  2  1  0
  2  3  2  0
  3  4  1  0
  4  5  1  0
  4  6  2  0
  6  7  1  0
  7  8  1  0
  8  9  2  0
  9 10  1  0
 10 11  1  0
 10 12  2  0
 12 13  1  0
 13 14  1  0
 14 15  1  0
 14 16  1  0
 14 17  1  0
 17 18  1  0
 17 19  1  0
 17 20  1  0
 20 21  1  0
 21 22  1  0
 21 23  1  0
 21 24  1  0
 24 25  1  0
 24 26  1  0
 24 27  1  0
 20 28  1  0
 28 29  1  0
 28 30  1  0
 28 31  1  0
 31 32  1  0
 31 33  1  0
  6 34  1  0
 34 35  1  0
 34 36  2  0
 36 37  1  0
 36  2  1  0
 12  7  1  0
 31 13  1  0
M  END
>  <plip>  (1) 
-0.034482758620689655

>  <filename>  (1) 
[H][c]1[n][c]([H])[c](-[n]2[n][n][c]([H])[c]2[N]2[C]([H])([H])[C]([H])([H])[N]([C]([H])([H])[C]([H])([H])[H])[C]([H])([H])[C]2([H])[H])[c]([H])[c]1[H]

$$$$
