
     RDKit          3D

 24 24  0  0  0  0  0  0  0  0999 V2000
    3.7959   -5.7628   22.0602 H   0  0  0  0  0  0  0  0  0  0  0  0
    4.6244   -5.2179   21.6653 C   0  0  0  0  0  0  0  0  0  0  0  0
    5.5309   -4.5663   21.2135 C   0  0  0  0  0  0  0  0  0  0  0  0
    6.6848   -3.7691   20.7498 C   0  0  0  0  0  0  0  0  0  0  0  0
    7.4989   -4.4348   20.4368 H   0  0  0  0  0  0  0  0  0  0  0  0
    6.3848   -3.1524   19.8838 H   0  0  0  0  0  0  0  0  0  0  0  0
    7.2110   -2.9697   21.7902 O   0  0  0  0  0  0  0  0  0  0  0  0
    6.6603   -1.6595   21.8996 C   0  0  0  0  0  0  0  0  0  0  0  0
    6.7689   -1.4402   22.9686 H   0  0  0  0  0  0  0  0  0  0  0  0
    5.5883   -1.6421   21.6541 H   0  0  0  0  0  0  0  0  0  0  0  0
    7.4044   -0.6612   21.0006 C   0  0  0  0  0  0  0  0  0  0  0  0
    8.7193   -0.4765   21.1710 C   0  0  0  0  0  0  0  0  0  0  0  0
    9.2757   -1.0312   21.9218 H   0  0  0  0  0  0  0  0  0  0  0  0
    9.2939    0.2151   20.5615 H   0  0  0  0  0  0  0  0  0  0  0  0
    6.6548    0.0336   19.9005 C   0  0  0  0  0  0  0  0  0  0  0  0
    7.1547    0.0750   18.5819 C   0  0  0  0  0  0  0  0  0  0  0  0
    8.0929   -0.4172   18.3318 H   0  0  0  0  0  0  0  0  0  0  0  0
    6.5425    0.6761   17.5549 N   0  0  0  0  0  0  0  0  0  0  0  0
    5.3842    1.3058   17.7996 C   0  0  0  0  0  0  0  0  0  0  0  0
    4.9343    1.8262   16.9526 H   0  0  0  0  0  0  0  0  0  0  0  0
    4.7792    1.3241   19.0610 C   0  0  0  0  0  0  0  0  0  0  0  0
    3.8426    1.8607   19.1946 H   0  0  0  0  0  0  0  0  0  0  0  0
    5.4216    0.6748   20.1217 C   0  0  0  0  0  0  0  0  0  0  0  0
    4.9944    0.6773   21.1244 H   0  0  0  0  0  0  0  0  0  0  0  0
  1  2  1  0
  2  3  3  0
  3  4  1  0
  4  5  1  0
  4  6  1  0
  4  7  1  0
  7  8  1  0
  8  9  1  0
  8 10  1  0
  8 11  1  0
 11 12  2  3
 12 13  1  0
 12 14  1  0
 11 15  1  0
 15 16  2  0
 16 17  1  0
 16 18  1  0
 18 19  2  0
 19 20  1  0
 19 21  1  0
 21 22  1  0
 21 23  2  0
 23 24  1  0
 23 15  1  0
M  END
>  <plip>  (1) 
-0.0

>  <filename>  (1) 
[H][C]#[C][C]([H])([H])[O][C]([H])([H])[C](=[C]([H])[H])[c]1[c]([H])[n][c]([H])[c]([H])[c]1[H]

$$$$
