
     RDKit          3D

 34 37  0  0  0  0  0  0  0  0999 V2000
    9.4628   -0.1715   20.5350 H   0  0  0  0  0  0  0  0  0  0  0  0
    8.7572   -0.7689   21.0992 C   0  0  0  0  0  0  0  0  0  0  0  0
    7.4398   -0.8659   20.8669 C   0  0  0  0  0  0  0  0  0  0  0  0
    6.6997   -0.1161   19.8216 C   0  0  0  0  0  0  0  0  0  0  0  0
    7.2305    0.0580   18.5220 C   0  0  0  0  0  0  0  0  0  0  0  0
    8.1897   -0.3896   18.2641 H   0  0  0  0  0  0  0  0  0  0  0  0
    6.6258    0.7286   17.5348 N   0  0  0  0  0  0  0  0  0  0  0  0
    5.4485    1.3093   17.8238 C   0  0  0  0  0  0  0  0  0  0  0  0
    4.9651    1.8477   17.0098 H   0  0  0  0  0  0  0  0  0  0  0  0
    4.8494    1.2458   19.0853 C   0  0  0  0  0  0  0  0  0  0  0  0
    3.9232    1.7802   19.2647 H   0  0  0  0  0  0  0  0  0  0  0  0
    5.4837    0.5275   20.1020 C   0  0  0  0  0  0  0  0  0  0  0  0
    5.0701    0.4892   21.1109 H   0  0  0  0  0  0  0  0  0  0  0  0
    6.8525   -1.7874   21.9076 C   0  0  0  0  0  0  0  0  0  0  0  0
    5.7479   -2.2918   21.9726 O   0  0  0  0  0  0  0  0  0  0  0  0
    7.8929   -2.0500   22.8004 N   0  0  0  0  0  0  0  0  0  0  0  0
    7.7924   -2.7046   24.0164 C   0  0  0  0  0  0  0  0  0  0  0  0
    8.7964   -3.2722   24.7599 C   0  0  0  0  0  0  0  0  0  0  0  0
    9.8474   -3.2655   24.5138 H   0  0  0  0  0  0  0  0  0  0  0  0
    8.1822   -3.8848   25.8918 C   0  0  0  0  0  0  0  0  0  0  0  0
    8.6632   -4.6648   26.9631 C   0  0  0  0  0  0  0  0  0  0  0  0
    9.7256   -4.8877   27.0295 H   0  0  0  0  0  0  0  0  0  0  0  0
    7.7573   -5.1471   27.9000 C   0  0  0  0  0  0  0  0  0  0  0  0
    8.1137   -5.7640   28.7179 H   0  0  0  0  0  0  0  0  0  0  0  0
    6.3740   -4.8560   27.7906 C   0  0  0  0  0  0  0  0  0  0  0  0
    5.6882   -5.2397   28.5399 H   0  0  0  0  0  0  0  0  0  0  0  0
    5.8733   -4.0925   26.7386 C   0  0  0  0  0  0  0  0  0  0  0  0
    4.8158   -3.8688   26.6401 H   0  0  0  0  0  0  0  0  0  0  0  0
    6.7874   -3.6210   25.7899 C   0  0  0  0  0  0  0  0  0  0  0  0
    6.5796   -2.8793   24.6420 N   0  0  0  0  0  0  0  0  0  0  0  0
    5.7099   -2.7340   24.1552 H   0  0  0  0  0  0  0  0  0  0  0  0
    9.1609   -1.5579   22.2944 C   0  0  0  0  0  0  0  0  0  0  0  0
    9.6769   -0.9405   23.0339 H   0  0  0  0  0  0  0  0  0  0  0  0
    9.8415   -2.3769   22.0296 H   0  0  0  0  0  0  0  0  0  0  0  0
  1  2  1  0
  2  3  2  0
  3  4  1  0
  4  5  2  0
  5  6  1  0
  5  7  1  0
  7  8  2  0
  8  9  1  0
  8 10  1  0
 10 11  1  0
 10 12  2  0
 12 13  1  0
  3 14  1  0
 14 15  2  0
 14 16  1  0
 16 17  1  0
 17 18  2  0
 18 19  1  0
 18 20  1  0
 20 21  2  0
 21 22  1  0
 21 23  1  0
 23 24  1  0
 23 25  2  0
 25 26  1  0
 25 27  1  0
 27 28  1  0
 27 29  2  0
 29 30  1  0
 30 31  1  0
 16 32  1  0
 32 33  1  0
 32 34  1  0
 32  2  1  0
 12  4  1  0
 30 17  1  0
 29 20  1  0
M  END
>  <plip>  (1) 
-0.07142857142857142

>  <filename>  (1) 
[H][C]1=[C]([c]2[c]([H])[n][c]([H])[c]([H])[c]2[H])[C](=[O])[N]([c]2[c]([H])[c]3[c]([H])[c]([H])[c]([H])[c]([H])[c]3[n]2[H])[C]1([H])[H]

$$$$
