
     RDKit          3D

 23 24  0  0  0  0  0  0  0  0999 V2000
    8.7524   -6.4476   23.4796 H   0  0  0  0  0  0  0  0  0  0  0  0
    8.9788   -5.4493   23.7894 C   0  0  0  0  0  0  0  0  0  0  0  0
    9.2370   -4.3344   24.1600 C   0  0  0  0  0  0  0  0  0  0  0  0
    9.4811   -2.9657   24.6345 C   0  0  0  0  0  0  0  0  0  0  0  0
   10.4457   -2.5948   24.2745 H   0  0  0  0  0  0  0  0  0  0  0  0
    9.5064   -2.9364   25.7257 H   0  0  0  0  0  0  0  0  0  0  0  0
    8.4480   -2.0499   24.2843 O   0  0  0  0  0  0  0  0  0  0  0  0
    8.2948   -1.7167   22.9864 C   0  0  0  0  0  0  0  0  0  0  0  0
    6.8846   -0.8222   22.6262 S   0  0  0  0  0  0  0  0  0  0  0  0
    7.4218   -0.7326   20.9680 C   0  0  0  0  0  0  0  0  0  0  0  0
    6.6618   -0.0183   19.9445 C   0  0  0  0  0  0  0  0  0  0  0  0
    7.1932    0.0190   18.6423 C   0  0  0  0  0  0  0  0  0  0  0  0
    8.1437   -0.4711   18.4359 H   0  0  0  0  0  0  0  0  0  0  0  0
    6.6034    0.6339   17.6167 N   0  0  0  0  0  0  0  0  0  0  0  0
    5.4454    1.2635   17.8615 C   0  0  0  0  0  0  0  0  0  0  0  0
    4.9961    1.7719   17.0125 H   0  0  0  0  0  0  0  0  0  0  0  0
    4.8244    1.2890   19.1164 C   0  0  0  0  0  0  0  0  0  0  0  0
    3.8903    1.8246   19.2460 H   0  0  0  0  0  0  0  0  0  0  0  0
    5.4413    0.6401   20.1837 C   0  0  0  0  0  0  0  0  0  0  0  0
    4.9792    0.6629   21.1744 H   0  0  0  0  0  0  0  0  0  0  0  0
    8.5446   -1.3413   20.7242 N   0  0  0  0  0  0  0  0  0  0  0  0
    9.0487   -1.9095   21.8639 C   0  0  0  0  0  0  0  0  0  0  0  0
    9.9700   -2.4718   21.8088 H   0  0  0  0  0  0  0  0  0  0  0  0
  1  2  1  0
  2  3  3  0
  3  4  1  0
  4  5  1  0
  4  6  1  0
  4  7  1  0
  7  8  1  0
  8  9  1  0
  9 10  1  0
 10 11  1  0
 11 12  2  0
 12 13  1  0
 12 14  1  0
 14 15  2  0
 15 16  1  0
 15 17  1  0
 17 18  1  0
 17 19  2  0
 19 20  1  0
 10 21  2  0
 21 22  1  0
 22 23  1  0
 22  8  2  0
 19 11  1  0
M  END
>  <plip>  (1) 
-0.07142857142857142

>  <filename>  (1) 
[H][C]#[C][C]([H])([H])[O][c]1[s][c](-[c]2[c]([H])[n][c]([H])[c]([H])[c]2[H])[n][c]1[H]

$$$$
