
     RDKit          3D

 24 25  0  0  0  0  0  0  0  0999 V2000
    6.8345   -0.6547   22.0452 H   0  0  0  0  0  0  0  0  0  0  0  0
    7.3253   -0.7273   21.0657 C   0  0  0  0  0  0  0  0  0  0  0  0
    8.4124   -1.3608   20.8612 N   0  0  0  0  0  0  0  0  0  0  0  0
    9.0613   -1.8862   21.9608 C   0  0  0  0  0  0  0  0  0  0  0  0
    8.4538   -2.0071   23.1342 N   0  0  0  0  0  0  0  0  0  0  0  0
    9.2119   -2.6033   24.0314 C   0  0  0  0  0  0  0  0  0  0  0  0
    8.6205   -2.9251   25.1929 N   0  0  0  0  0  0  0  0  0  0  0  0
    9.3892   -3.0649   25.8231 H   0  0  0  0  0  0  0  0  0  0  0  0
    7.9365   -2.2362   25.4441 H   0  0  0  0  0  0  0  0  0  0  0  0
   10.4910   -2.9387   23.9875 N   0  0  0  0  0  0  0  0  0  0  0  0
   11.0558   -2.7648   22.7914 C   0  0  0  0  0  0  0  0  0  0  0  0
   12.0903   -3.0802   22.7125 H   0  0  0  0  0  0  0  0  0  0  0  0
   10.3848   -2.2330   21.7255 C   0  0  0  0  0  0  0  0  0  0  0  0
   10.8045   -2.0791   20.7565 H   0  0  0  0  0  0  0  0  0  0  0  0
    6.6522   -0.0386   19.9798 C   0  0  0  0  0  0  0  0  0  0  0  0
    7.2067   -0.0106   18.6882 C   0  0  0  0  0  0  0  0  0  0  0  0
    8.1537   -0.5055   18.4892 H   0  0  0  0  0  0  0  0  0  0  0  0
    6.6314    0.6114   17.6604 N   0  0  0  0  0  0  0  0  0  0  0  0
    5.4713    1.2451   17.8894 C   0  0  0  0  0  0  0  0  0  0  0  0
    5.0273    1.7502   17.0341 H   0  0  0  0  0  0  0  0  0  0  0  0
    4.8395    1.2785   19.1380 C   0  0  0  0  0  0  0  0  0  0  0  0
    3.9058    1.8162   19.2550 H   0  0  0  0  0  0  0  0  0  0  0  0
    5.4428    0.6279   20.2094 C   0  0  0  0  0  0  0  0  0  0  0  0
    5.0005    0.6387   21.2087 H   0  0  0  0  0  0  0  0  0  0  0  0
  1  2  1  0
  2  3  2  3
  3  4  1  0
  4  5  2  0
  5  6  1  0
  6  7  1  0
  7  8  1  0
  7  9  1  0
  6 10  2  0
 10 11  1  0
 11 12  1  0
 11 13  2  0
 13 14  1  0
  2 15  1  0
 15 16  2  0
 16 17  1  0
 16 18  1  0
 18 19  2  0
 19 20  1  0
 19 21  1  0
 21 22  1  0
 21 23  2  0
 23 24  1  0
 13  4  1  0
 23 15  1  0
M  END
>  <plip>  (1) 
-0.03571428571428571

>  <filename>  (1) 
[H][C](=[N][c]1[n][c]([N]([H])[H])[n][c]([H])[c]1[H])[c]1[c]([H])[n][c]([H])[c]([H])[c]1[H]

$$$$
