
     RDKit          3D

 31 33  0  0  0  0  0  0  0  0999 V2000
    5.3402    0.6204   22.8004 H   0  0  0  0  0  0  0  0  0  0  0  0
    6.1644    0.0362   22.4246 C   0  0  0  0  0  0  0  0  0  0  0  0
    6.9652   -0.7087   23.2809 N   0  0  0  0  0  0  0  0  0  0  0  0
    7.7887   -1.2830   22.4604 C   0  0  0  0  0  0  0  0  0  0  0  0
    8.7564   -2.1486   22.6845 O   0  0  0  0  0  0  0  0  0  0  0  0
    8.8559   -2.7180   24.0177 C   0  0  0  0  0  0  0  0  0  0  0  0
    8.7765   -1.9192   24.7688 H   0  0  0  0  0  0  0  0  0  0  0  0
   10.1716   -3.4745   24.1404 C   0  0  0  0  0  0  0  0  0  0  0  0
   11.0319   -2.8185   24.2794 H   0  0  0  0  0  0  0  0  0  0  0  0
   10.3242   -3.9959   23.1946 H   0  0  0  0  0  0  0  0  0  0  0  0
    9.9695   -4.4805   25.2966 C   0  0  0  0  0  0  0  0  0  0  0  0
   10.4442   -5.4410   25.0571 H   0  0  0  0  0  0  0  0  0  0  0  0
   10.4107   -4.1028   26.2304 H   0  0  0  0  0  0  0  0  0  0  0  0
    8.4265   -4.6257   25.4429 C   0  0  0  0  0  0  0  0  0  0  0  0
    8.0972   -5.6723   25.4263 H   0  0  0  0  0  0  0  0  0  0  0  0
    8.1074   -4.2069   26.4053 H   0  0  0  0  0  0  0  0  0  0  0  0
    7.8199   -3.8151   24.2749 C   0  0  0  0  0  0  0  0  0  0  0  0
    6.8297   -3.4013   24.4894 H   0  0  0  0  0  0  0  0  0  0  0  0
    7.7312   -4.4563   23.3855 H   0  0  0  0  0  0  0  0  0  0  0  0
    7.6294   -0.9824   21.1651 O   0  0  0  0  0  0  0  0  0  0  0  0
    6.5416   -0.1336   21.1338 C   0  0  0  0  0  0  0  0  0  0  0  0
    6.0971    0.3617   19.8315 C   0  0  0  0  0  0  0  0  0  0  0  0
    6.8841    0.1494   18.6753 C   0  0  0  0  0  0  0  0  0  0  0  0
    7.7892   -0.4527   18.7238 H   0  0  0  0  0  0  0  0  0  0  0  0
    6.5962    0.6594   17.4714 N   0  0  0  0  0  0  0  0  0  0  0  0
    5.4855    1.4096   17.3703 C   0  0  0  0  0  0  0  0  0  0  0  0
    5.2900    1.8403   16.3905 H   0  0  0  0  0  0  0  0  0  0  0  0
    4.6100    1.6405   18.4338 C   0  0  0  0  0  0  0  0  0  0  0  0
    3.7324    2.2565   18.2760 H   0  0  0  0  0  0  0  0  0  0  0  0
    4.9049    1.0977   19.6867 C   0  0  0  0  0  0  0  0  0  0  0  0
    4.2213    1.2411   20.5240 H   0  0  0  0  0  0  0  0  0  0  0  0
  1  2  1  0
  2  3  1  0
  3  4  2  0
  4  5  1  0
  5  6  1  0
  6  7  1  0
  6  8  1  0
  8  9  1  0
  8 10  1  0
  8 11  1  0
 11 12  1  0
 11 13  1  0
 11 14  1  0
 14 15  1  0
 14 16  1  0
 14 17  1  0
 17 18  1  0
 17 19  1  0
  4 20  1  0
 20 21  1  0
 21 22  1  0
 22 23  2  0
 23 24  1  0
 23 25  1  0
 25 26  2  0
 26 27  1  0
 26 28  1  0
 28 29  1  0
 28 30  2  0
 30 31  1  0
 21  2  2  0
 30 22  1  0
 17  6  1  0
M  END
>  <plip>  (1) 
-0.03571428571428571

>  <filename>  (1) 
[H][c]1[n][c]([O][C]2([H])[C]([H])([H])[C]([H])([H])[C]([H])([H])[C]2([H])[H])[o][c]1-[c]1[c]([H])[n][c]([H])[c]([H])[c]1[H]

$$$$
