
     RDKit          3D

 30 31  0  0  0  0  0  0  0  0999 V2000
    4.9049    1.7579   16.8484 H   0  0  0  0  0  0  0  0  0  0  0  0
    5.3569    1.2876   17.7178 C   0  0  0  0  0  0  0  0  0  0  0  0
    6.4957    0.6114   17.4933 N   0  0  0  0  0  0  0  0  0  0  0  0
    7.0799    0.0120   18.5349 C   0  0  0  0  0  0  0  0  0  0  0  0
    7.9876   -0.5617   18.3397 H   0  0  0  0  0  0  0  0  0  0  0  0
    6.5828    0.0934   19.8510 C   0  0  0  0  0  0  0  0  0  0  0  0
    7.4689   -0.6575   21.2016 S   0  0  0  0  0  0  0  0  0  0  0  0
    8.6723    0.6727   21.7039 C   0  0  0  0  0  0  0  0  0  0  0  0
    9.8189    0.6463   21.3428 O   0  0  0  0  0  0  0  0  0  0  0  0
    8.0730    1.5993   22.5090 N   0  0  0  0  0  0  0  0  0  0  0  0
    7.0940    1.7939   22.2894 H   0  0  0  0  0  0  0  0  0  0  0  0
    8.7167    2.6939   23.0805 C   0  0  0  0  0  0  0  0  0  0  0  0
   10.0297    2.5990   23.5616 C   0  0  0  0  0  0  0  0  0  0  0  0
   10.5442    1.6446   23.5143 H   0  0  0  0  0  0  0  0  0  0  0  0
   10.6665    3.7275   24.0798 C   0  0  0  0  0  0  0  0  0  0  0  0
   11.6981    3.6633   24.4171 H   0  0  0  0  0  0  0  0  0  0  0  0
    9.9908    4.9526   24.1239 C   0  0  0  0  0  0  0  0  0  0  0  0
   10.4913    5.8369   24.5088 H   0  0  0  0  0  0  0  0  0  0  0  0
    8.6732    5.0347   23.6852 C   0  0  0  0  0  0  0  0  0  0  0  0
    8.1739    6.0016   23.6991 H   0  0  0  0  0  0  0  0  0  0  0  0
    7.9871    3.9024   23.1982 C   0  0  0  0  0  0  0  0  0  0  0  0
    6.5564    3.9585   22.7964 C   0  0  0  0  0  0  0  0  0  0  0  0
    5.9500    3.0723   22.2020 O   0  0  0  0  0  0  0  0  0  0  0  0
    5.8343    5.0789   23.1199 N   0  0  0  0  0  0  0  0  0  0  0  0
    4.8802    4.8526   22.8788 H   0  0  0  0  0  0  0  0  0  0  0  0
    5.9728    5.4340   24.0497 H   0  0  0  0  0  0  0  0  0  0  0  0
    5.3779    0.7717   20.0657 C   0  0  0  0  0  0  0  0  0  0  0  0
    4.9560    0.8406   21.0685 H   0  0  0  0  0  0  0  0  0  0  0  0
    4.7535    1.3843   18.9748 C   0  0  0  0  0  0  0  0  0  0  0  0
    3.8269    1.9388   19.0890 H   0  0  0  0  0  0  0  0  0  0  0  0
  1  2  1  0
  2  3  2  0
  3  4  1  0
  4  5  1  0
  4  6  2  0
  6  7  1  0
  7  8  1  0
  8  9  2  0
  8 10  1  0
 10 11  1  0
 10 12  1  0
 12 13  2  0
 13 14  1  0
 13 15  1  0
 15 16  1  0
 15 17  2  0
 17 18  1  0
 17 19  1  0
 19 20  1  0
 19 21  2  0
 21 22  1  0
 22 23  2  0
 22 24  1  0
 24 25  1  0
 24 26  1  0
  6 27  1  0
 27 28  1  0
 27 29  2  0
 29 30  1  0
 29  2  1  0
 21 12  1  0
M  END
>  <plip>  (1) 
-0.21428571428571427

>  <filename>  (1) 
[H][c]1[n][c]([H])[c]([S][C](=[O])[N]([H])[c]2[c]([H])[c]([H])[c]([H])[c]([H])[c]2[C](=[O])[N]([H])[H])[c]([H])[c]1[H]

$$$$
