
     RDKit          3D

 28 29  0  0  0  0  0  0  0  0999 V2000
    9.1752    0.2157   20.4797 H   0  0  0  0  0  0  0  0  0  0  0  0
    8.6780   -0.4990   21.1409 C   0  0  0  0  0  0  0  0  0  0  0  0
    7.3651   -0.7095   20.9823 C   0  0  0  0  0  0  0  0  0  0  0  0
    6.6413    0.0092   19.8932 C   0  0  0  0  0  0  0  0  0  0  0  0
    7.1577    0.0747   18.5811 C   0  0  0  0  0  0  0  0  0  0  0  0
    8.1056   -0.4099   18.3457 H   0  0  0  0  0  0  0  0  0  0  0  0
    6.5490    0.6850   17.5554 N   0  0  0  0  0  0  0  0  0  0  0  0
    5.3868    1.3058   17.8123 C   0  0  0  0  0  0  0  0  0  0  0  0
    4.9253    1.8112   16.9647 H   0  0  0  0  0  0  0  0  0  0  0  0
    4.7888    1.3203   19.0776 C   0  0  0  0  0  0  0  0  0  0  0  0
    3.8589    1.8546   19.2229 H   0  0  0  0  0  0  0  0  0  0  0  0
    5.4196    0.6520   20.1289 C   0  0  0  0  0  0  0  0  0  0  0  0
    4.9995    0.6356   21.1349 H   0  0  0  0  0  0  0  0  0  0  0  0
    6.5777   -1.6219   21.8964 C   0  0  0  0  0  0  0  0  0  0  0  0
    5.5952   -1.8356   21.4702 H   0  0  0  0  0  0  0  0  0  0  0  0
    7.0919   -2.5776   22.0567 H   0  0  0  0  0  0  0  0  0  0  0  0
    6.4272   -1.1825   22.8923 H   0  0  0  0  0  0  0  0  0  0  0  0
    9.5029   -1.1380   22.2490 C   0  0  0  0  0  0  0  0  0  0  0  0
    9.0152   -0.9467   23.2175 H   0  0  0  0  0  0  0  0  0  0  0  0
    9.5106   -2.2347   22.1411 H   0  0  0  0  0  0  0  0  0  0  0  0
   10.9126   -0.6043   22.3317 C   0  0  0  0  0  0  0  0  0  0  0  0
   12.2233   -1.3627   21.4941 S   0  0  0  0  0  0  0  0  0  0  0  0
   13.3374   -0.1613   22.0244 C   0  0  0  0  0  0  0  0  0  0  0  0
   14.3382   -0.1865   21.6135 H   0  0  0  0  0  0  0  0  0  0  0  0
   12.7390    0.7811   22.8035 C   0  0  0  0  0  0  0  0  0  0  0  0
   13.2566    1.6598   23.1693 H   0  0  0  0  0  0  0  0  0  0  0  0
   11.3458    0.5096   22.9839 C   0  0  0  0  0  0  0  0  0  0  0  0
   10.6630    1.1228   23.5603 H   0  0  0  0  0  0  0  0  0  0  0  0
  1  2  1  0
  2  3  2  3
  3  4  1  0
  4  5  2  0
  5  6  1  0
  5  7  1  0
  7  8  2  0
  8  9  1  0
  8 10  1  0
 10 11  1  0
 10 12  2  0
 12 13  1  0
  3 14  1  0
 14 15  1  0
 14 16  1  0
 14 17  1  0
  2 18  1  0
 18 19  1  0
 18 20  1  0
 18 21  1  0
 21 22  1  0
 22 23  1  0
 23 24  1  0
 23 25  2  0
 25 26  1  0
 25 27  1  0
 27 28  1  0
 12  4  1  0
 27 21  2  0
M  END
>  <plip>  (1) 
-0.0

>  <filename>  (1) 
[H][C](=[C]([c]1[c]([H])[n][c]([H])[c]([H])[c]1[H])[C]([H])([H])[H])[C]([H])([H])[c]1[s][c]([H])[c]([H])[c]1[H]

$$$$
