
     RDKit          3D

 32 34  0  0  0  0  0  0  0  0999 V2000
    4.9755    1.7970   16.9695 H   0  0  0  0  0  0  0  0  0  0  0  0
    5.4083    1.3060   17.8366 C   0  0  0  0  0  0  0  0  0  0  0  0
    6.5698    0.6693   17.6251 N   0  0  0  0  0  0  0  0  0  0  0  0
    7.1375    0.0600   18.6692 C   0  0  0  0  0  0  0  0  0  0  0  0
    8.0766   -0.4557   18.4761 H   0  0  0  0  0  0  0  0  0  0  0  0
    6.5938    0.0568   19.9619 C   0  0  0  0  0  0  0  0  0  0  0  0
    7.3403   -0.6713   20.9885 C   0  0  0  0  0  0  0  0  0  0  0  0
    8.0631   -1.7317   20.7830 N   0  0  0  0  0  0  0  0  0  0  0  0
    8.5032   -2.0873   22.0269 N   0  0  0  0  0  0  0  0  0  0  0  0
    9.1249   -2.8600   22.2080 H   0  0  0  0  0  0  0  0  0  0  0  0
    8.1362   -1.2481   23.0067 C   0  0  0  0  0  0  0  0  0  0  0  0
    8.5951   -1.2937   24.5969 S   0  0  0  0  0  0  0  0  0  0  0  0
    7.3474   -0.3376   22.3291 N   0  0  0  0  0  0  0  0  0  0  0  0
    7.1048    0.9804   22.7584 C   0  0  0  0  0  0  0  0  0  0  0  0
    7.3829    1.9283   22.0672 O   0  0  0  0  0  0  0  0  0  0  0  0
    6.4902    0.9889   23.9603 N   0  0  0  0  0  0  0  0  0  0  0  0
    6.6131    0.1308   24.4680 H   0  0  0  0  0  0  0  0  0  0  0  0
    5.8974    2.1030   24.5715 C   0  0  0  0  0  0  0  0  0  0  0  0
    5.9216    2.2075   25.9657 C   0  0  0  0  0  0  0  0  0  0  0  0
    6.4184    1.4304   26.5425 H   0  0  0  0  0  0  0  0  0  0  0  0
    5.3663    3.3318   26.5918 C   0  0  0  0  0  0  0  0  0  0  0  0
    5.4028    3.4778   27.6672 H   0  0  0  0  0  0  0  0  0  0  0  0
    4.7618    4.3112   25.8031 C   0  0  0  0  0  0  0  0  0  0  0  0
    4.2320    5.3976   26.3907 F   0  0  0  0  0  0  0  0  0  0  0  0
    4.6944    4.2033   24.4148 C   0  0  0  0  0  0  0  0  0  0  0  0
    4.2191    4.9872   23.8322 H   0  0  0  0  0  0  0  0  0  0  0  0
    5.2749    3.0928   23.7998 C   0  0  0  0  0  0  0  0  0  0  0  0
    5.3037    2.9868   22.7214 H   0  0  0  0  0  0  0  0  0  0  0  0
    5.3612    0.7069   20.1610 C   0  0  0  0  0  0  0  0  0  0  0  0
    4.8693    0.7144   21.1367 H   0  0  0  0  0  0  0  0  0  0  0  0
    4.7652    1.3419   19.0765 C   0  0  0  0  0  0  0  0  0  0  0  0
    3.8232    1.8695   19.1766 H   0  0  0  0  0  0  0  0  0  0  0  0
  1  2  1  0
  2  3  2  0
  3  4  1  0
  4  5  1  0
  4  6  2  0
  6  7  1  0
  7  8  2  0
  8  9  1  0
  9 10  1  0
  9 11  1  0
 11 12  2  0
 11 13  1  0
 13 14  1  0
 14 15  2  0
 14 16  1  0
 16 17  1  0
 16 18  1  0
 18 19  2  0
 19 20  1  0
 19 21  1  0
 21 22  1  0
 21 23  2  0
 23 24  1  0
 23 25  1  0
 25 26  1  0
 25 27  2  0
 27 28  1  0
  6 29  1  0
 29 30  1  0
 29 31  2  0
 31 32  1  0
 31  2  1  0
 13  7  1  0
 27 18  1  0
M  END
>  <plip>  (1) 
-0.0

>  <filename>  (1) 
[H][c]1[n][c]([H])[c](-[c]2[n][n]([H])[c](=[S])[n]2[C](=[O])[N]([H])[c]2[c]([H])[c]([H])[c]([F])[c]([H])[c]2[H])[c]([H])[c]1[H]

$$$$
