
     RDKit          3D

 28 29  0  0  0  0  0  0  0  0999 V2000
    4.9677    1.7387   17.0240 H   0  0  0  0  0  0  0  0  0  0  0  0
    5.4605    1.2518   17.8666 C   0  0  0  0  0  0  0  0  0  0  0  0
    6.6320    0.6423   17.6117 N   0  0  0  0  0  0  0  0  0  0  0  0
    7.2663    0.0413   18.6310 C   0  0  0  0  0  0  0  0  0  0  0  0
    8.2109   -0.4521   18.4068 H   0  0  0  0  0  0  0  0  0  0  0  0
    6.7539    0.0192   19.9429 C   0  0  0  0  0  0  0  0  0  0  0  0
    7.5425   -0.6040   20.9531 O   0  0  0  0  0  0  0  0  0  0  0  0
    6.8502   -1.0184   22.3861 S   0  0  0  0  0  0  0  0  0  0  0  0
    6.4283    0.2012   23.0438 O   0  0  0  0  0  0  0  0  0  0  0  0
    5.9592   -2.1216   22.0983 O   0  0  0  0  0  0  0  0  0  0  0  0
    8.2341   -1.7118   23.2532 C   0  0  0  0  0  0  0  0  0  0  0  0
    8.2667   -2.7397   22.8866 H   0  0  0  0  0  0  0  0  0  0  0  0
    7.8568   -1.7403   24.2777 H   0  0  0  0  0  0  0  0  0  0  0  0
    9.5650   -1.0367   23.1202 C   0  0  0  0  0  0  0  0  0  0  0  0
   10.0039   -0.0784   24.0379 C   0  0  0  0  0  0  0  0  0  0  0  0
    9.3790    0.2001   24.8821 H   0  0  0  0  0  0  0  0  0  0  0  0
   11.2609    0.5162   23.8904 C   0  0  0  0  0  0  0  0  0  0  0  0
   11.5927    1.3004   24.5655 H   0  0  0  0  0  0  0  0  0  0  0  0
   12.1163    0.1041   22.8611 C   0  0  0  0  0  0  0  0  0  0  0  0
   13.6388    0.9098   22.6712 Cl  0  0  0  0  0  0  0  0  0  0  0  0
   11.7153   -0.9315   21.9976 C   0  0  0  0  0  0  0  0  0  0  0  0
   12.8096   -1.6347   20.8550 Cl  0  0  0  0  0  0  0  0  0  0  0  0
   10.4178   -1.4434   22.0897 C   0  0  0  0  0  0  0  0  0  0  0  0
   10.0610   -2.1385   21.3349 H   0  0  0  0  0  0  0  0  0  0  0  0
    5.5314    0.6392   20.2036 C   0  0  0  0  0  0  0  0  0  0  0  0
    5.1126    0.6542   21.2032 H   0  0  0  0  0  0  0  0  0  0  0  0
    4.8776    1.2649   19.1336 C   0  0  0  0  0  0  0  0  0  0  0  0
    3.9320    1.7699   19.2922 H   0  0  0  0  0  0  0  0  0  0  0  0
  1  2  1  0
  2  3  2  0
  3  4  1  0
  4  5  1  0
  4  6  2  0
  6  7  1  0
  7  8  1  0
  8  9  2  0
  8 10  2  0
  8 11  1  0
 11 12  1  0
 11 13  1  0
 11 14  1  0
 14 15  2  0
 15 16  1  0
 15 17  1  0
 17 18  1  0
 17 19  2  0
 19 20  1  0
 19 21  1  0
 21 22  1  0
 21 23  2  0
 23 24  1  0
  6 25  1  0
 25 26  1  0
 25 27  2  0
 27 28  1  0
 27  2  1  0
 23 14  1  0
M  END
>  <plip>  (1) 
-0.03571428571428571

>  <filename>  (1) 
[H][c]1[n][c]([H])[c]([O][S](=[O])(=[O])[C]([H])([H])[c]2[c]([H])[c]([H])[c]([Cl])[c]([Cl])[c]2[H])[c]([H])[c]1[H]

$$$$
