
     RDKit          3D

 32 34  0  0  0  0  0  0  0  0999 V2000
    5.0155    1.7561   16.9381 H   0  0  0  0  0  0  0  0  0  0  0  0
    5.4724    1.2723   17.7982 C   0  0  0  0  0  0  0  0  0  0  0  0
    6.6529    0.6672   17.5856 N   0  0  0  0  0  0  0  0  0  0  0  0
    7.2489    0.0830   18.6386 C   0  0  0  0  0  0  0  0  0  0  0  0
    8.1973   -0.4181   18.4450 H   0  0  0  0  0  0  0  0  0  0  0  0
    6.7069    0.0678   19.9510 C   0  0  0  0  0  0  0  0  0  0  0  0
    7.3346   -0.5055   21.0613 N   0  0  0  0  0  0  0  0  0  0  0  0
    6.7309   -0.8493   21.8002 H   0  0  0  0  0  0  0  0  0  0  0  0
    8.7135   -0.6421   21.2785 C   0  0  0  0  0  0  0  0  0  0  0  0
    9.7703    0.1846   20.8089 C   0  0  0  0  0  0  0  0  0  0  0  0
    9.6780    1.0967   20.2319 H   0  0  0  0  0  0  0  0  0  0  0  0
   10.9636   -0.2661   21.1650 N   0  0  0  0  0  0  0  0  0  0  0  0
   10.6843   -1.3581   21.9067 N   0  0  0  0  0  0  0  0  0  0  0  0
   11.4197   -2.0089   22.1303 H   0  0  0  0  0  0  0  0  0  0  0  0
    9.3585   -1.6309   22.0133 C   0  0  0  0  0  0  0  0  0  0  0  0
    8.9413   -2.6828   22.8207 N   0  0  0  0  0  0  0  0  0  0  0  0
    9.3393   -2.7213   23.7448 H   0  0  0  0  0  0  0  0  0  0  0  0
    7.8228   -3.4828   22.6109 C   0  0  0  0  0  0  0  0  0  0  0  0
    7.3099   -4.2400   23.6693 C   0  0  0  0  0  0  0  0  0  0  0  0
    7.6961   -4.0742   24.6684 H   0  0  0  0  0  0  0  0  0  0  0  0
    6.3173   -5.1938   23.4362 C   0  0  0  0  0  0  0  0  0  0  0  0
    5.9423   -5.8496   24.2156 H   0  0  0  0  0  0  0  0  0  0  0  0
    5.8050   -5.3456   22.1454 C   0  0  0  0  0  0  0  0  0  0  0  0
    4.5921   -6.5485   21.8636 Cl  0  0  0  0  0  0  0  0  0  0  0  0
    6.2622   -4.5585   21.0850 C   0  0  0  0  0  0  0  0  0  0  0  0
    5.8552   -4.6876   20.0868 H   0  0  0  0  0  0  0  0  0  0  0  0
    7.2660   -3.6225   21.3362 C   0  0  0  0  0  0  0  0  0  0  0  0
    7.6548   -2.9706   20.5700 H   0  0  0  0  0  0  0  0  0  0  0  0
    5.4539    0.6691   20.1338 C   0  0  0  0  0  0  0  0  0  0  0  0
    5.0108    0.6646   21.1294 H   0  0  0  0  0  0  0  0  0  0  0  0
    4.8351    1.2895   19.0459 C   0  0  0  0  0  0  0  0  0  0  0  0
    3.8801    1.7933   19.1578 H   0  0  0  0  0  0  0  0  0  0  0  0
  1  2  1  0
  2  3  2  0
  3  4  1  0
  4  5  1  0
  4  6  2  0
  6  7  1  0
  7  8  1  0
  7  9  1  0
  9 10  1  0
 10 11  1  0
 10 12  2  0
 12 13  1  0
 13 14  1  0
 13 15  1  0
 15 16  1  0
 16 17  1  0
 16 18  1  0
 18 19  2  0
 19 20  1  0
 19 21  1  0
 21 22  1  0
 21 23  2  0
 23 24  1  0
 23 25  1  0
 25 26  1  0
 25 27  2  0
 27 28  1  0
  6 29  1  0
 29 30  1  0
 29 31  2  0
 31 32  1  0
 31  2  1  0
 15  9  2  0
 27 18  1  0
M  END
>  <plip>  (1) 
-0.13793103448275862

>  <filename>  (1) 
[H][c]1[n][c]([H])[c]([N]([H])[c]2[c]([H])[n][n]([H])[c]2[N]([H])[c]2[c]([H])[c]([H])[c]([Cl])[c]([H])[c]2[H])[c]([H])[c]1[H]

$$$$
