
     RDKit          3D

 54 57  0  0  0  0  0  0  0  0999 V2000
    7.6694    8.8417   28.7182 C   0  0  0  0  0  0  0  0  0  0  0  0
    7.6954    7.5812   27.8839 C   0  0  0  0  0  0  0  0  0  0  0  0
    7.8354    7.6347   26.4867 C   0  0  0  0  0  0  0  0  0  0  0  0
    7.8641    6.4672   25.7184 C   0  0  0  0  0  0  0  0  0  0  0  0
    7.7628    5.2057   26.3228 C   0  0  0  0  0  0  0  0  0  0  0  0
    7.7791    3.9436   25.5088 C   0  0  2  0  0  0  0  0  0  0  0  0
    8.7704    2.8655   25.8500 C   0  0  0  0  0  0  0  0  0  0  0  0
    8.9221    3.6440   24.5713 C   0  0  1  0  0  0  0  0  0  0  0  0
    8.6190    3.0357   23.2289 C   0  0  0  0  0  0  0  0  0  0  0  0
    7.7432    3.4274   22.4779 O   0  0  0  0  0  0  0  0  0  0  0  0
    9.4158    1.9708   22.9360 N   0  0  0  0  0  0  0  0  0  0  0  0
    9.0938    1.0342   21.8773 C   0  0  0  0  0  0  0  0  0  0  0  0
    7.8476    0.1805   22.1683 C   0  0  2  0  0  0  0  0  0  0  0  0
    7.9570   -0.7860   23.3650 C   0  0  0  0  0  0  0  0  0  0  0  0
    7.2217   -2.0792   22.9654 C   0  0  0  0  0  0  0  0  0  0  0  0
    6.6743   -1.8231   21.5915 N   0  0  0  0  0  4  0  0  0  0  0  0
    6.6009   -3.0319   20.7396 C   0  0  0  0  0  0  0  0  0  0  0  0
    6.0065   -3.8288   21.2016 H   0  0  0  0  0  0  0  0  0  0  0  0
    7.6161   -3.4312   20.5759 H   0  0  0  0  0  0  0  0  0  0  0  0
    6.1735   -2.7910   19.7610 H   0  0  0  0  0  0  0  0  0  0  0  0
    7.4744   -0.6931   20.9705 C   0  0  1  0  0  0  0  0  0  0  0  0
    6.6698   -0.0049   19.8911 C   0  0  0  0  0  0  0  0  0  0  0  0
    5.4385    0.6344   20.1348 C   0  0  0  0  0  0  0  0  0  0  0  0
    4.7998    1.3001   19.0869 C   0  0  0  0  0  0  0  0  0  0  0  0
    5.4013    1.2907   17.8243 C   0  0  0  0  0  0  0  0  0  0  0  0
    6.5553    0.6635   17.5606 N   0  0  0  0  0  0  0  0  0  0  0  0
    7.1628    0.0411   18.5789 C   0  0  0  0  0  0  0  0  0  0  0  0
    8.1128   -0.4395   18.3374 H   0  0  0  0  0  0  0  0  0  0  0  0
    4.9327    1.8119   16.9913 H   0  0  0  0  0  0  0  0  0  0  0  0
    3.8688    1.8417   19.2355 H   0  0  0  0  0  0  0  0  0  0  0  0
    4.9934    0.6524   21.1339 H   0  0  0  0  0  0  0  0  0  0  0  0
    8.3822   -1.1294   20.5344 H   0  0  0  0  0  0  0  0  0  0  0  0
    5.7217   -1.3959   21.6933 H   0  0  0  0  0  0  0  0  0  0  0  0
    6.4126   -2.3635   23.6461 H   0  0  0  0  0  0  0  0  0  0  0  0
    7.9181   -2.9230   22.9213 H   0  0  0  0  0  0  0  0  0  0  0  0
    7.5406   -0.3460   24.2779 H   0  0  0  0  0  0  0  0  0  0  0  0
    9.0013   -1.0288   23.5844 H   0  0  0  0  0  0  0  0  0  0  0  0
    7.0115    0.8687   22.3507 H   0  0  0  0  0  0  0  0  0  0  0  0
    9.9676    0.3937   21.6948 H   0  0  0  0  0  0  0  0  0  0  0  0
    8.9247    1.6163   20.9678 H   0  0  0  0  0  0  0  0  0  0  0  0
   10.0683    1.7338   23.6591 H   0  0  0  0  0  0  0  0  0  0  0  0
    9.7455    4.3511   24.5111 H   0  0  0  0  0  0  0  0  0  0  0  0
    9.4625    3.0988   26.6425 H   0  0  0  0  0  0  0  0  0  0  0  0
    8.4648    1.8227   25.8274 H   0  0  0  0  0  0  0  0  0  0  0  0
    6.8036    3.6127   25.1471 H   0  0  0  0  0  0  0  0  0  0  0  0
    7.6161    5.1511   27.7183 C   0  0  0  0  0  0  0  0  0  0  0  0
    7.5854    6.3162   28.4853 C   0  0  0  0  0  0  0  0  0  0  0  0
    7.4807    6.2460   29.5656 H   0  0  0  0  0  0  0  0  0  0  0  0
    7.5119    4.1741   28.1847 H   0  0  0  0  0  0  0  0  0  0  0  0
    7.9492    6.5251   24.6347 H   0  0  0  0  0  0  0  0  0  0  0  0
    7.9288    8.6054   26.0037 H   0  0  0  0  0  0  0  0  0  0  0  0
    6.6470    9.2202   28.8387 H   0  0  0  0  0  0  0  0  0  0  0  0
    8.2621    9.6425   28.2628 H   0  0  0  0  0  0  0  0  0  0  0  0
    8.0743    8.6739   29.7228 H   0  0  0  0  0  0  0  0  0  0  0  0
  1  2  1  0
  2  3  2  0
  3  4  1  0
  4  5  2  0
  5  6  1  0
  6  7  1  0
  7  8  1  0
  8  9  1  0
  9 10  2  0
  9 11  1  0
 11 12  1  0
 12 13  1  0
 13 14  1  0
 14 15  1  0
 15 16  1  0
 16 17  1  0
 17 18  1  0
 17 19  1  0
 17 20  1  0
 16 21  1  0
 21 22  1  0
 22 23  2  0
 23 24  1  0
 24 25  2  0
 25 26  1  0
 26 27  2  0
 27 28  1  0
 25 29  1  0
 24 30  1  0
 23 31  1  0
 21 32  1  6
 16 33  1  0
 15 34  1  0
 15 35  1  0
 14 36  1  0
 14 37  1  0
 13 38  1  1
 12 39  1  0
 12 40  1  0
 11 41  1  0
  8 42  1  6
  7 43  1  0
  7 44  1  0
  6 45  1  6
  5 46  1  0
 46 47  2  0
 47 48  1  0
 46 49  1  0
  4 50  1  0
  3 51  1  0
  1 52  1  0
  1 53  1  0
  1 54  1  0
 47  2  1  0
  8  6  1  0
 21 13  1  0
 27 22  1  0
M  CHG  1  16   1
M  END
>  <plip>  (1) 
-0.07142857142857142

>  <filename>  (1) 
[H][c]1[n][c]([H])[c]([C@@]2([H])[C@]([H])([C]([H])([H])[N]([H])[C](=[O])[C@]3([H])[C]([H])([H])[C@@]3([H])[c]3[c]([H])[c]([H])[c]([C]([H])([H])[H])[c]([H])[c]3[H])[C]([H])([H])[C]([H])([H])[N+]2([H])[C]([H])([H])[H])[c]([H])[c]1[H]

$$$$
