
     RDKit          3D

 29 29  0  0  0  0  0  0  0  0999 V2000
    9.0556   -6.5816   20.5378 H   0  0  0  0  0  0  0  0  0  0  0  0
    8.5239   -5.7690   20.5821 O   0  0  0  0  0  0  0  0  0  0  0  0
    8.1888   -5.7904   21.8911 C   0  0  0  0  0  0  0  0  0  0  0  0
    8.6288   -6.6718   22.5907 O   0  0  0  0  0  0  0  0  0  0  0  0
    7.3510   -4.5281   22.2330 C   0  0  1  0  0  0  0  0  0  0  0  0
    6.9068   -4.2613   21.2629 H   0  0  0  0  0  0  0  0  0  0  0  0
    6.2538   -4.6792   23.1837 N   0  0  0  0  0  0  0  0  0  0  0  0
    6.5879   -4.8518   24.1321 H   0  0  0  0  0  0  0  0  0  0  0  0
    5.7208   -3.8119   23.1899 H   0  0  0  0  0  0  0  0  0  0  0  0
    8.3237   -3.4065   22.6656 C   0  0  0  0  0  0  0  0  0  0  0  0
    9.0650   -3.2198   21.8807 H   0  0  0  0  0  0  0  0  0  0  0  0
    8.8522   -3.6907   23.5857 H   0  0  0  0  0  0  0  0  0  0  0  0
    7.6499   -2.0661   22.9335 C   0  0  0  0  0  0  0  0  0  0  0  0
    8.6474   -1.1551   23.2116 F   0  0  0  0  0  0  0  0  0  0  0  0
    6.8781   -2.1148   24.0597 F   0  0  0  0  0  0  0  0  0  0  0  0
    6.7768   -1.5790   21.7249 C   0  0  0  0  0  0  0  0  0  0  0  0
    5.6794   -2.0682   21.5155 O   0  0  0  0  0  0  0  0  0  0  0  0
    7.3936   -0.7026   20.8695 N   0  0  0  0  0  0  0  0  0  0  0  0
    8.2358   -0.2667   21.2224 H   0  0  0  0  0  0  0  0  0  0  0  0
    6.6803   -0.0090   19.8388 C   0  0  0  0  0  0  0  0  0  0  0  0
    7.2134    0.0753   18.5404 C   0  0  0  0  0  0  0  0  0  0  0  0
    8.1614   -0.4236   18.3344 H   0  0  0  0  0  0  0  0  0  0  0  0
    6.6082    0.7075   17.5285 N   0  0  0  0  0  0  0  0  0  0  0  0
    5.4363    1.3150   17.7893 C   0  0  0  0  0  0  0  0  0  0  0  0
    4.9673    1.8323   16.9555 H   0  0  0  0  0  0  0  0  0  0  0  0
    4.8323    1.3024   19.0499 C   0  0  0  0  0  0  0  0  0  0  0  0
    3.8962    1.8291   19.2038 H   0  0  0  0  0  0  0  0  0  0  0  0
    5.4570    0.6180   20.0986 C   0  0  0  0  0  0  0  0  0  0  0  0
    5.0212    0.5668   21.0957 H   0  0  0  0  0  0  0  0  0  0  0  0
  1  2  1  0
  2  3  1  0
  3  4  2  0
  3  5  1  0
  5  6  1  6
  5  7  1  0
  7  8  1  0
  7  9  1  0
  5 10  1  0
 10 11  1  0
 10 12  1  0
 10 13  1  0
 13 14  1  0
 13 15  1  0
 13 16  1  0
 16 17  2  0
 16 18  1  0
 18 19  1  0
 18 20  1  0
 20 21  2  0
 21 22  1  0
 21 23  1  0
 23 24  2  0
 24 25  1  0
 24 26  1  0
 26 27  1  0
 26 28  2  0
 28 29  1  0
 28 20  1  0
M  END
>  <plip>  (1) 
-0.07142857142857142

>  <filename>  (1) 
[H][O][C](=[O])[C@@]([H])([N]([H])[H])[C]([H])([H])[C]([F])([F])[C](=[O])[N]([H])[c]1[c]([H])[n][c]([H])[c]([H])[c]1[H]

$$$$
