
     RDKit          3D

 26 27  0  0  0  0  0  0  0  0999 V2000
    5.0833    1.5957   16.9687 H   0  0  0  0  0  0  0  0  0  0  0  0
    5.5862    1.1538   17.8267 C   0  0  0  0  0  0  0  0  0  0  0  0
    6.7712    0.5710   17.5809 N   0  0  0  0  0  0  0  0  0  0  0  0
    7.4398    0.0458   18.6186 C   0  0  0  0  0  0  0  0  0  0  0  0
    8.4053   -0.4084   18.3996 H   0  0  0  0  0  0  0  0  0  0  0  0
    6.9627    0.0707   19.9496 C   0  0  0  0  0  0  0  0  0  0  0  0
    7.6311   -0.4663   21.0729 N   0  0  0  0  0  0  0  0  0  0  0  0
    7.6516    0.2039   21.8436 H   0  0  0  0  0  0  0  0  0  0  0  0
    8.9932   -0.8954   20.8536 N   0  0  0  0  0  0  0  0  0  0  0  0
    8.9811   -1.9088   20.9972 H   0  0  0  0  0  0  0  0  0  0  0  0
    9.6207   -0.3912   22.0355 O   0  0  0  0  0  0  0  0  0  0  0  0
   10.9900   -0.3746   22.0787 C   0  0  0  0  0  0  0  0  0  0  0  0
   11.5334    0.6162   22.9167 C   0  0  0  0  0  0  0  0  0  0  0  0
   10.8571    1.3208   23.3955 H   0  0  0  0  0  0  0  0  0  0  0  0
   12.9129    0.6530   23.1193 C   0  0  0  0  0  0  0  0  0  0  0  0
   13.3353    1.3738   23.8152 H   0  0  0  0  0  0  0  0  0  0  0  0
   13.7535   -0.2573   22.4644 C   0  0  0  0  0  0  0  0  0  0  0  0
   14.8296   -0.2316   22.5995 H   0  0  0  0  0  0  0  0  0  0  0  0
   13.1857   -1.2287   21.6395 C   0  0  0  0  0  0  0  0  0  0  0  0
   14.2224   -2.3501   20.8169 Cl  0  0  0  0  0  0  0  0  0  0  0  0
   11.8045   -1.3200   21.4414 C   0  0  0  0  0  0  0  0  0  0  0  0
   11.3762   -2.1189   20.8434 H   0  0  0  0  0  0  0  0  0  0  0  0
    5.7070    0.6624   20.1786 C   0  0  0  0  0  0  0  0  0  0  0  0
    5.3026    0.6640   21.1907 H   0  0  0  0  0  0  0  0  0  0  0  0
    5.0130    1.2126   19.1012 C   0  0  0  0  0  0  0  0  0  0  0  0
    4.0529    1.7021   19.2396 H   0  0  0  0  0  0  0  0  0  0  0  0
  1  2  1  0
  2  3  2  0
  3  4  1  0
  4  5  1  0
  4  6  2  0
  6  7  1  0
  7  8  1  0
  7  9  1  0
  9 10  1  0
  9 11  1  0
 11 12  1  0
 12 13  2  0
 13 14  1  0
 13 15  1  0
 15 16  1  0
 15 17  2  0
 17 18  1  0
 17 19  1  0
 19 20  1  0
 19 21  2  0
 21 22  1  0
  6 23  1  0
 23 24  1  0
 23 25  2  0
 25 26  1  0
 25  2  1  0
 21 12  1  0
M  END
>  <plip>  (1) 
-0.03571428571428571

>  <filename>  (1) 
[H][c]1[n][c]([H])[c]([N]([H])[N]([H])[O][c]2[c]([H])[c]([H])[c]([H])[c]([Cl])[c]2[H])[c]([H])[c]1[H]

$$$$
