
     RDKit          3D

 31 33  0  0  0  0  0  0  0  0999 V2000
    6.4489    2.8862   28.1779 H   0  0  0  0  0  0  0  0  0  0  0  0
    6.8885    3.2268   27.3715 O   0  0  0  0  0  0  0  0  0  0  0  0
    6.6369    2.1543   26.6126 C   0  0  0  0  0  0  0  0  0  0  0  0
    6.0228    1.2427   27.1275 O   0  0  0  0  0  0  0  0  0  0  0  0
    7.1304    2.1409   25.1435 C   0  0  0  0  0  0  0  0  0  0  0  0
    7.8454    3.1610   24.6630 O   0  0  0  0  0  0  0  0  0  0  0  0
    7.8583    3.0372   23.6763 H   0  0  0  0  0  0  0  0  0  0  0  0
    6.8791    1.0638   24.3489 C   0  0  0  0  0  0  0  0  0  0  0  0
    6.4620    0.1495   24.7504 H   0  0  0  0  0  0  0  0  0  0  0  0
    7.2494    1.0452   22.9315 C   0  0  0  0  0  0  0  0  0  0  0  0
    7.3735    2.0856   22.2858 O   0  0  0  0  0  0  0  0  0  0  0  0
    7.5367   -0.2463   22.3135 C   0  0  0  0  0  0  0  0  0  0  0  0
    7.3750   -0.6286   20.9948 C   0  0  0  0  0  0  0  0  0  0  0  0
    6.6397    0.0486   19.9363 C   0  0  0  0  0  0  0  0  0  0  0  0
    7.1575    0.0318   18.6314 C   0  0  0  0  0  0  0  0  0  0  0  0
    8.0975   -0.4740   18.4150 H   0  0  0  0  0  0  0  0  0  0  0  0
    6.5713    0.6417   17.5986 N   0  0  0  0  0  0  0  0  0  0  0  0
    5.4155    1.2825   17.8314 C   0  0  0  0  0  0  0  0  0  0  0  0
    4.9668    1.7868   16.9793 H   0  0  0  0  0  0  0  0  0  0  0  0
    4.7907    1.3191   19.0807 C   0  0  0  0  0  0  0  0  0  0  0  0
    3.8539    1.8496   19.2062 H   0  0  0  0  0  0  0  0  0  0  0  0
    5.4104    0.6908   20.1561 C   0  0  0  0  0  0  0  0  0  0  0  0
    4.9536    0.7032   21.1473 H   0  0  0  0  0  0  0  0  0  0  0  0
    7.9524   -1.8517   20.7668 N   0  0  0  0  0  0  0  0  0  0  0  0
    8.3843   -2.2371   21.9368 C   0  0  0  0  0  0  0  0  0  0  0  0
    9.1920   -3.6253   22.6192 S   0  0  0  0  0  0  0  0  0  0  0  0
    9.3942   -2.7820   24.1379 C   0  0  0  0  0  0  0  0  0  0  0  0
    9.9902   -3.2478   24.9108 H   0  0  0  0  0  0  0  0  0  0  0  0
    8.7881   -1.5831   24.1429 C   0  0  0  0  0  0  0  0  0  0  0  0
    8.7255   -0.8428   24.9356 H   0  0  0  0  0  0  0  0  0  0  0  0
    8.1821   -1.3100   22.9207 N   0  0  0  0  0  0  0  0  0  0  0  0
  1  2  1  0
  2  3  1  0
  3  4  2  0
  3  5  1  0
  5  6  1  0
  6  7  1  0
  5  8  2  3
  8  9  1  0
  8 10  1  0
 10 11  2  0
 10 12  1  0
 12 13  2  0
 13 14  1  0
 14 15  2  0
 15 16  1  0
 15 17  1  0
 17 18  2  0
 18 19  1  0
 18 20  1  0
 20 21  1  0
 20 22  2  0
 22 23  1  0
 13 24  1  0
 24 25  2  0
 25 26  1  0
 26 27  1  0
 27 28  1  0
 27 29  2  0
 29 30  1  0
 29 31  1  0
 31 12  1  0
 22 14  1  0
 31 25  1  0
M  END
>  <plip>  (1) 
-0.0

>  <filename>  (1) 
[H][O][C](=[O])[C]([O][H])=[C]([H])[C](=[O])[c]1[c](-[c]2[c]([H])[n][c]([H])[c]([H])[c]2[H])[n][c]2[s][c]([H])[c]([H])[n]12

$$$$
