
     RDKit          3D

 32 34  0  0  0  0  0  0  0  0999 V2000
    4.9156    1.7868   16.9850 H   0  0  0  0  0  0  0  0  0  0  0  0
    5.3957    1.2996   17.8255 C   0  0  0  0  0  0  0  0  0  0  0  0
    6.5596    0.6835   17.5582 N   0  0  0  0  0  0  0  0  0  0  0  0
    7.1555    0.0746   18.5874 C   0  0  0  0  0  0  0  0  0  0  0  0
    8.1001   -0.4204   18.3718 H   0  0  0  0  0  0  0  0  0  0  0  0
    6.6365    0.0083   19.8942 C   0  0  0  0  0  0  0  0  0  0  0  0
    7.3945   -0.6911   20.9259 C   0  0  0  0  0  0  0  0  0  0  0  0
    8.7508   -0.9101   21.0156 C   0  0  0  0  0  0  0  0  0  0  0  0
    9.4840   -0.5504   20.3105 H   0  0  0  0  0  0  0  0  0  0  0  0
    8.9851   -1.6096   22.2139 C   0  0  0  0  0  0  0  0  0  0  0  0
    9.9393   -1.9090   22.6118 H   0  0  0  0  0  0  0  0  0  0  0  0
    7.7756   -1.8218   22.8385 C   0  0  0  0  0  0  0  0  0  0  0  0
    7.4674   -2.4620   24.1205 C   0  0  0  0  0  0  0  0  0  0  0  0
    6.6114   -1.8182   25.0351 C   0  0  0  0  0  0  0  0  0  0  0  0
    6.1591   -0.8723   24.7378 H   0  0  0  0  0  0  0  0  0  0  0  0
    6.3736   -2.3619   26.2932 C   0  0  0  0  0  0  0  0  0  0  0  0
    5.7051   -1.8490   26.9798 H   0  0  0  0  0  0  0  0  0  0  0  0
    6.9916   -3.5643   26.6494 C   0  0  0  0  0  0  0  0  0  0  0  0
    6.8116   -3.9988   27.6260 H   0  0  0  0  0  0  0  0  0  0  0  0
    7.8332   -4.2127   25.7430 C   0  0  0  0  0  0  0  0  0  0  0  0
    8.3123   -5.1503   26.0161 H   0  0  0  0  0  0  0  0  0  0  0  0
    8.0776   -3.6900   24.4677 C   0  0  0  0  0  0  0  0  0  0  0  0
    8.9713   -4.4616   23.5192 C   0  0  0  0  0  0  0  0  0  0  0  0
    9.0047   -5.5231   23.7749 H   0  0  0  0  0  0  0  0  0  0  0  0
   10.0035   -4.0962   23.5547 H   0  0  0  0  0  0  0  0  0  0  0  0
    8.6432   -4.3651   22.4799 H   0  0  0  0  0  0  0  0  0  0  0  0
    6.8259   -1.2248   22.0516 N   0  0  0  0  0  0  0  0  0  0  0  0
    5.8392   -1.2605   22.2265 H   0  0  0  0  0  0  0  0  0  0  0  0
    5.4151    0.6580   20.1472 C   0  0  0  0  0  0  0  0  0  0  0  0
    4.9936    0.6525   21.1606 H   0  0  0  0  0  0  0  0  0  0  0  0
    4.7932    1.3208   19.0919 C   0  0  0  0  0  0  0  0  0  0  0  0
    3.8620    1.8521   19.2521 H   0  0  0  0  0  0  0  0  0  0  0  0
  1  2  1  0
  2  3  2  0
  3  4  1  0
  4  5  1  0
  4  6  2  0
  6  7  1  0
  7  8  2  0
  8  9  1  0
  8 10  1  0
 10 11  1  0
 10 12  2  0
 12 13  1  0
 13 14  2  0
 14 15  1  0
 14 16  1  0
 16 17  1  0
 16 18  2  0
 18 19  1  0
 18 20  1  0
 20 21  1  0
 20 22  2  0
 22 23  1  0
 23 24  1  0
 23 25  1  0
 23 26  1  0
 12 27  1  0
 27 28  1  0
  6 29  1  0
 29 30  1  0
 29 31  2  0
 31 32  1  0
 31  2  1  0
 27  7  1  0
 22 13  1  0
M  END
>  <plip>  (1) 
-0.07142857142857142

>  <filename>  (1) 
[H][c]1[n][c]([H])[c](-[c]2[c]([H])[c]([H])[c](-[c]3[c]([H])[c]([H])[c]([H])[c]([H])[c]3[C]([H])([H])[H])[n]2[H])[c]([H])[c]1[H]

$$$$
