
     RDKit          3D

 37 38  0  0  0  0  0  0  0  0999 V2000
    9.6144    1.6441   24.3082 C   0  0  0  0  0  0  0  0  0  0  0  0
    9.3453    2.2722   22.9429 C   0  0  0  0  0  0  0  0  0  0  0  0
    8.1644    1.5852   22.2526 N   0  0  0  0  0  4  0  0  0  0  0  0
    8.4402    0.2518   21.6291 C   0  0  0  0  0  0  0  0  0  0  0  0
    7.3365   -0.6594   20.9994 C   0  0  0  0  0  0  0  0  0  0  0  0
    6.4982   -1.1744   21.9460 F   0  0  0  0  0  0  0  0  0  0  0  0
    8.0577   -1.7307   20.5299 F   0  0  0  0  0  0  0  0  0  0  0  0
    6.5533   -0.0510   19.8694 C   0  0  0  0  0  0  0  0  0  0  0  0
    5.3473    0.6221   20.0992 C   0  0  0  0  0  0  0  0  0  0  0  0
    4.7750    1.3166   19.0352 C   0  0  0  0  0  0  0  0  0  0  0  0
    5.4172    1.3057   17.7930 C   0  0  0  0  0  0  0  0  0  0  0  0
    6.5518    0.6321   17.5574 N   0  0  0  0  0  0  0  0  0  0  0  0
    7.0995   -0.0339   18.5776 C   0  0  0  0  0  0  0  0  0  0  0  0
    8.0235   -0.5657   18.3542 H   0  0  0  0  0  0  0  0  0  0  0  0
    5.0069    1.8645   16.9525 H   0  0  0  0  0  0  0  0  0  0  0  0
    3.8606    1.8814   19.1606 H   0  0  0  0  0  0  0  0  0  0  0  0
    4.8880    0.6128   21.0909 H   0  0  0  0  0  0  0  0  0  0  0  0
    8.9328   -0.4325   22.3297 H   0  0  0  0  0  0  0  0  0  0  0  0
    9.1294    0.3605   20.7819 H   0  0  0  0  0  0  0  0  0  0  0  0
    7.4256    1.6259   23.0005 H   0  0  0  0  0  0  0  0  0  0  0  0
    7.8241    2.2743   21.5437 H   0  0  0  0  0  0  0  0  0  0  0  0
    8.9467    3.7226   23.0390 C   0  0  0  0  0  0  0  0  0  0  0  0
    9.8301    4.7595   22.7134 C   0  0  0  0  0  0  0  0  0  0  0  0
    9.4221    6.0959   22.6701 C   0  0  0  0  0  0  0  0  0  0  0  0
    8.1022    6.3790   23.0100 C   0  0  0  0  0  0  0  0  0  0  0  0
    7.6550    7.6394   22.8973 F   0  0  0  0  0  0  0  0  0  0  0  0
    7.2180    5.3967   23.4409 C   0  0  0  0  0  0  0  0  0  0  0  0
    7.6426    4.0740   23.4142 C   0  0  0  0  0  0  0  0  0  0  0  0
    6.7407    3.0727   23.6917 O   0  0  0  0  0  0  0  0  0  0  0  0
    6.0446    3.5054   24.2011 H   0  0  0  0  0  0  0  0  0  0  0  0
    6.2146    5.6653   23.7531 H   0  0  0  0  0  0  0  0  0  0  0  0
   10.0802    6.8932   22.3427 H   0  0  0  0  0  0  0  0  0  0  0  0
   10.8411    4.5050   22.4052 H   0  0  0  0  0  0  0  0  0  0  0  0
   10.2375    2.1811   22.3114 H   0  0  0  0  0  0  0  0  0  0  0  0
    9.9124    0.5939   24.2094 H   0  0  0  0  0  0  0  0  0  0  0  0
   10.4137    2.1782   24.8286 H   0  0  0  0  0  0  0  0  0  0  0  0
    8.7086    1.6955   24.9195 H   0  0  0  0  0  0  0  0  0  0  0  0
  1  2  1  0
  2  3  1  0
  3  4  1  0
  4  5  1  0
  5  6  1  0
  5  7  1  0
  5  8  1  0
  8  9  2  0
  9 10  1  0
 10 11  2  0
 11 12  1  0
 12 13  2  0
 13 14  1  0
 11 15  1  0
 10 16  1  0
  9 17  1  0
  4 18  1  0
  4 19  1  0
  3 20  1  0
  3 21  1  0
  2 22  1  0
 22 23  2  0
 23 24  1  0
 24 25  2  0
 25 26  1  0
 25 27  1  0
 27 28  2  0
 28 29  1  0
 29 30  1  0
 27 31  1  0
 24 32  1  0
 23 33  1  0
  2 34  1  0
  1 35  1  0
  1 36  1  0
  1 37  1  0
 13  8  1  0
 28 22  1  0
M  CHG  1   3   1
M  END
>  <plip>  (1) 
-0.06896551724137931

>  <filename>  (1) 
[H][O][c]1[c]([H])[c]([F])[c]([H])[c]([H])[c]1[C]([H])([C]([H])([H])[H])[N+]([H])([H])[C]([H])([H])[C]([F])([F])[c]1[c]([H])[n][c]([H])[c]([H])[c]1[H]

$$$$
