
     RDKit          3D

 37 40  0  0  0  0  0  0  0  0999 V2000
    4.9137    1.7890   16.9915 H   0  0  0  0  0  0  0  0  0  0  0  0
    5.3961    1.2971   17.8338 C   0  0  0  0  0  0  0  0  0  0  0  0
    6.5574    0.6759   17.5688 N   0  0  0  0  0  0  0  0  0  0  0  0
    7.1682    0.0569   18.5883 C   0  0  0  0  0  0  0  0  0  0  0  0
    8.1180   -0.4242   18.3629 H   0  0  0  0  0  0  0  0  0  0  0  0
    6.6801    0.0211   19.9215 C   0  0  0  0  0  0  0  0  0  0  0  0
    7.3656   -0.6504   20.9609 N   0  0  0  0  0  0  0  0  0  0  0  0
    7.7443   -0.1773   22.2218 C   0  0  0  0  0  0  0  0  0  0  0  0
    7.3928    1.1984   22.6561 C   0  0  1  0  0  0  0  0  0  0  0  0
    7.6305    1.9664   21.9277 H   0  0  0  0  0  0  0  0  0  0  0  0
    6.1735    1.4064   23.5176 C   0  0  0  0  0  0  0  0  0  0  0  0
    5.5795    2.3051   23.3669 H   0  0  0  0  0  0  0  0  0  0  0  0
    5.6088    0.5158   23.7923 H   0  0  0  0  0  0  0  0  0  0  0  0
    7.5469    1.5823   24.1072 C   0  0  2  0  0  0  0  0  0  0  0  0
    7.8909    0.7662   24.7404 H   0  0  0  0  0  0  0  0  0  0  0  0
    8.0381    2.9325   24.5185 C   0  0  0  0  0  0  0  0  0  0  0  0
    7.7094    4.0895   23.7907 C   0  0  0  0  0  0  0  0  0  0  0  0
    7.0958    4.0147   22.8975 H   0  0  0  0  0  0  0  0  0  0  0  0
    8.1433    5.3505   24.2031 C   0  0  0  0  0  0  0  0  0  0  0  0
    7.8769    6.2266   23.6222 H   0  0  0  0  0  0  0  0  0  0  0  0
    8.9116    5.4838   25.3604 C   0  0  0  0  0  0  0  0  0  0  0  0
    9.2622    6.4601   25.6872 H   0  0  0  0  0  0  0  0  0  0  0  0
    9.2284    4.3452   26.1019 C   0  0  0  0  0  0  0  0  0  0  0  0
    9.8085    4.4720   27.0057 H   0  0  0  0  0  0  0  0  0  0  0  0
    8.8077    3.0770   25.6860 C   0  0  0  0  0  0  0  0  0  0  0  0
    9.0700    2.1955   26.2733 H   0  0  0  0  0  0  0  0  0  0  0  0
    8.3444   -1.0249   22.9723 N   0  0  0  0  0  0  0  0  0  0  0  0
    8.4738   -2.2662   22.2254 C   0  0  0  0  0  0  0  0  0  0  0  0
    9.5284   -2.5528   22.1582 H   0  0  0  0  0  0  0  0  0  0  0  0
    7.9555   -3.0783   22.7469 H   0  0  0  0  0  0  0  0  0  0  0  0
    7.8789   -2.0068   20.8289 C   0  0  0  0  0  0  0  0  0  0  0  0
    7.0947   -2.7265   20.5476 H   0  0  0  0  0  0  0  0  0  0  0  0
    8.6623   -2.0227   20.0666 H   0  0  0  0  0  0  0  0  0  0  0  0
    5.4550    0.6632   20.1696 C   0  0  0  0  0  0  0  0  0  0  0  0
    5.0291    0.6214   21.1717 H   0  0  0  0  0  0  0  0  0  0  0  0
    4.8128    1.3104   19.1064 C   0  0  0  0  0  0  0  0  0  0  0  0
    3.8801    1.8357   19.2583 H   0  0  0  0  0  0  0  0  0  0  0  0
  1  2  1  0
  2  3  2  0
  3  4  1  0
  4  5  1  0
  4  6  2  0
  6  7  1  0
  7  8  1  0
  8  9  1  0
  9 10  1  6
  9 11  1  0
 11 12  1  0
 11 13  1  0
 11 14  1  0
 14 15  1  1
 14 16  1  0
 16 17  2  0
 17 18  1  0
 17 19  1  0
 19 20  1  0
 19 21  2  0
 21 22  1  0
 21 23  1  0
 23 24  1  0
 23 25  2  0
 25 26  1  0
  8 27  2  0
 27 28  1  0
 28 29  1  0
 28 30  1  0
 28 31  1  0
 31 32  1  0
 31 33  1  0
  6 34  1  0
 34 35  1  0
 34 36  2  0
 36 37  1  0
 36  2  1  0
 31  7  1  0
 14  9  1  0
 25 16  1  0
M  END
>  <plip>  (1) 
-0.07142857142857142

>  <filename>  (1) 
[H][c]1[n][c]([H])[c]([N]2[C]([C@@]3([H])[C]([H])([H])[C@]3([H])[c]3[c]([H])[c]([H])[c]([H])[c]([H])[c]3[H])=[N][C]([H])([H])[C]2([H])[H])[c]([H])[c]1[H]

$$$$
