
     RDKit          3D

 32 34  0  0  0  0  0  0  0  0999 V2000
    4.9252    1.8115   16.9730 H   0  0  0  0  0  0  0  0  0  0  0  0
    5.3869    1.3059   17.8209 C   0  0  0  0  0  0  0  0  0  0  0  0
    6.5478    0.6858   17.5657 N   0  0  0  0  0  0  0  0  0  0  0  0
    7.1384    0.0470   18.5829 C   0  0  0  0  0  0  0  0  0  0  0  0
    8.0968   -0.4176   18.3485 H   0  0  0  0  0  0  0  0  0  0  0  0
    6.6105   -0.0441   19.8816 C   0  0  0  0  0  0  0  0  0  0  0  0
    7.3858   -0.7281   20.9918 C   0  0  0  0  0  0  0  0  0  0  0  0
    6.7111   -1.0357   21.7971 H   0  0  0  0  0  0  0  0  0  0  0  0
    7.8690   -1.6454   20.6336 H   0  0  0  0  0  0  0  0  0  0  0  0
    8.4466    0.1909   21.5405 C   0  0  0  0  0  0  0  0  0  0  0  0
    9.7896    0.3163   21.1120 C   0  0  0  0  0  0  0  0  0  0  0  0
   10.3543   -0.3261   20.4381 H   0  0  0  0  0  0  0  0  0  0  0  0
   10.3949    1.3734   21.6230 N   0  0  0  0  0  0  0  0  0  0  0  0
    9.4483    1.9514   22.4023 N   0  0  0  0  0  0  0  0  0  0  0  0
    9.6704    2.7857   22.9324 H   0  0  0  0  0  0  0  0  0  0  0  0
    8.2867    1.2610   22.4028 C   0  0  0  0  0  0  0  0  0  0  0  0
    7.2639    1.7526   23.1502 O   0  0  0  0  0  0  0  0  0  0  0  0
    6.4200    0.9092   23.8396 C   0  0  0  0  0  0  0  0  0  0  0  0
    5.0957    1.3290   24.0418 C   0  0  0  0  0  0  0  0  0  0  0  0
    4.7622    2.2501   23.5677 H   0  0  0  0  0  0  0  0  0  0  0  0
    4.2336    0.5523   24.8269 C   0  0  0  0  0  0  0  0  0  0  0  0
    3.1936    0.8269   24.9758 H   0  0  0  0  0  0  0  0  0  0  0  0
    4.6978   -0.6466   25.3802 C   0  0  0  0  0  0  0  0  0  0  0  0
    3.5988   -1.6651   26.2631 Cl  0  0  0  0  0  0  0  0  0  0  0  0
    6.0061   -1.0785   25.1642 C   0  0  0  0  0  0  0  0  0  0  0  0
    6.3257   -2.0280   25.5793 H   0  0  0  0  0  0  0  0  0  0  0  0
    6.8741   -0.2924   24.4008 C   0  0  0  0  0  0  0  0  0  0  0  0
    7.9028   -0.5843   24.2068 H   0  0  0  0  0  0  0  0  0  0  0  0
    5.4131    0.6343   20.1314 C   0  0  0  0  0  0  0  0  0  0  0  0
    5.0060    0.6438   21.1451 H   0  0  0  0  0  0  0  0  0  0  0  0
    4.7860    1.3161   19.0838 C   0  0  0  0  0  0  0  0  0  0  0  0
    3.8605    1.8596   19.2260 H   0  0  0  0  0  0  0  0  0  0  0  0
  1  2  1  0
  2  3  2  0
  3  4  1  0
  4  5  1  0
  4  6  2  0
  6  7  1  0
  7  8  1  0
  7  9  1  0
  7 10  1  0
 10 11  1  0
 11 12  1  0
 11 13  2  0
 13 14  1  0
 14 15  1  0
 14 16  1  0
 16 17  1  0
 17 18  1  0
 18 19  2  0
 19 20  1  0
 19 21  1  0
 21 22  1  0
 21 23  2  0
 23 24  1  0
 23 25  1  0
 25 26  1  0
 25 27  2  0
 27 28  1  0
  6 29  1  0
 29 30  1  0
 29 31  2  0
 31 32  1  0
 31  2  1  0
 16 10  2  0
 27 18  1  0
M  END
>  <plip>  (1) 
-0.03571428571428571

>  <filename>  (1) 
[H][c]1[n][c]([H])[c]([C]([H])([H])[c]2[c]([H])[n][n]([H])[c]2[O][c]2[c]([H])[c]([H])[c]([Cl])[c]([H])[c]2[H])[c]([H])[c]1[H]

$$$$
