
     RDKit          3D

 37 40  0  0  0  0  0  0  0  0999 V2000
    7.1789    1.9110   28.5227 O   0  0  0  0  0  0  0  0  0  0  0  0
    8.0131    1.6271   27.4839 C   0  0  0  0  0  0  0  0  0  0  0  0
    8.4435    2.6729   26.6611 C   0  0  0  0  0  0  0  0  0  0  0  0
    9.3634    2.4358   25.6305 C   0  0  0  0  0  0  0  0  0  0  0  0
    9.8639    1.1478   25.4025 C   0  0  0  0  0  0  0  0  0  0  0  0
   10.7724    0.8627   24.2194 C   0  0  0  0  0  0  0  0  0  0  0  0
    9.9180    0.6887   23.0100 C   0  0  0  0  0  0  0  0  0  0  0  0
    9.2458   -0.3620   22.6547 N   0  0  0  0  0  0  0  0  0  0  0  0
    8.4497    0.1440   21.6400 C   0  0  0  0  0  0  0  0  0  0  0  0
    7.3409   -0.6455   21.0138 C   0  0  0  0  0  0  0  0  0  0  0  0
    6.5841    0.0422   19.9030 C   0  0  0  0  0  0  0  0  0  0  0  0
    5.3818    0.7347   20.1111 C   0  0  0  0  0  0  0  0  0  0  0  0
    4.7755    1.3851   19.0294 C   0  0  0  0  0  0  0  0  0  0  0  0
    5.3977    1.3229   17.7765 C   0  0  0  0  0  0  0  0  0  0  0  0
    6.5463    0.6684   17.5521 N   0  0  0  0  0  0  0  0  0  0  0  0
    7.1127    0.0573   18.6013 C   0  0  0  0  0  0  0  0  0  0  0  0
    8.0564   -0.4545   18.4159 H   0  0  0  0  0  0  0  0  0  0  0  0
    4.9587    1.8175   16.9118 H   0  0  0  0  0  0  0  0  0  0  0  0
    3.8478    1.9382   19.1379 H   0  0  0  0  0  0  0  0  0  0  0  0
    4.9387    0.7559   21.1090 H   0  0  0  0  0  0  0  0  0  0  0  0
    6.5606   -1.5806   21.9256 C   0  0  0  0  0  0  0  0  0  0  0  0
    7.4822   -2.1586   20.9134 C   0  0  0  0  0  0  0  0  0  0  0  0
    7.0046   -2.6231   20.0553 H   0  0  0  0  0  0  0  0  0  0  0  0
    8.4065   -2.6203   21.2559 H   0  0  0  0  0  0  0  0  0  0  0  0
    5.4941   -1.6724   21.7410 H   0  0  0  0  0  0  0  0  0  0  0  0
    6.8656   -1.6357   22.9684 H   0  0  0  0  0  0  0  0  0  0  0  0
    8.6835    1.3986   21.3532 N   0  0  0  0  0  0  0  0  0  0  0  0
    9.6456    1.7646   22.2748 O   0  0  0  0  0  0  0  0  0  0  0  0
   11.4861    1.6726   24.0543 H   0  0  0  0  0  0  0  0  0  0  0  0
   11.3243   -0.0665   24.3747 H   0  0  0  0  0  0  0  0  0  0  0  0
    9.3736    0.0876   26.1707 C   0  0  0  0  0  0  0  0  0  0  0  0
    8.4519    0.3292   27.1778 C   0  0  0  0  0  0  0  0  0  0  0  0
    7.9490   -0.7203   27.8613 F   0  0  0  0  0  0  0  0  0  0  0  0
    9.6832   -0.9398   26.0138 H   0  0  0  0  0  0  0  0  0  0  0  0
    9.6495    3.2505   24.9692 H   0  0  0  0  0  0  0  0  0  0  0  0
    8.0527    3.6614   26.8781 H   0  0  0  0  0  0  0  0  0  0  0  0
    7.1387    1.1376   29.1018 H   0  0  0  0  0  0  0  0  0  0  0  0
  1  2  1  0
  2  3  2  0
  3  4  1  0
  4  5  2  0
  5  6  1  0
  6  7  1  0
  7  8  2  0
  8  9  1  0
  9 10  1  0
 10 11  1  0
 11 12  2  0
 12 13  1  0
 13 14  2  0
 14 15  1  0
 15 16  2  0
 16 17  1  0
 14 18  1  0
 13 19  1  0
 12 20  1  0
 10 21  1  0
 21 22  1  0
 22 23  1  0
 22 24  1  0
 21 25  1  0
 21 26  1  0
  9 27  2  0
 27 28  1  0
  6 29  1  0
  6 30  1  0
  5 31  1  0
 31 32  2  0
 32 33  1  0
 31 34  1  0
  4 35  1  0
  3 36  1  0
  1 37  1  0
 32  2  1  0
 28  7  1  0
 22 10  1  0
 16 11  1  0
M  END
>  <plip>  (1) 
-0.13793103448275862

>  <filename>  (1) 
[H][O][c]1[c]([H])[c]([H])[c]([C]([H])([H])[c]2[n][c]([C]3([c]4[c]([H])[n][c]([H])[c]([H])[c]4[H])[C]([H])([H])[C]3([H])[H])[n][o]2)[c]([H])[c]1[F]

$$$$
