
     RDKit          3D

 42 44  0  0  0  0  0  0  0  0999 V2000
    4.9526    8.1839   25.5616 C   0  0  0  0  0  0  0  0  0  0  0  0
    6.0894    7.2659   25.1754 C   0  0  0  0  0  0  0  0  0  0  0  0
    7.4379    7.5562   25.5117 C   0  0  0  0  0  0  0  0  0  0  0  0
    8.4972    6.7099   25.1805 C   0  0  0  0  0  0  0  0  0  0  0  0
    8.1966    5.5188   24.4803 C   0  0  0  0  0  0  0  0  0  0  0  0
    8.9917    4.5016   24.0250 N   0  0  0  0  0  0  0  0  0  0  0  0
    8.2157    3.5364   23.3877 C   0  0  0  0  0  0  0  0  0  0  0  0
    8.8831    2.3308   22.8038 C   0  0  0  0  0  0  0  0  0  0  0  0
   10.1002    2.1863   22.8023 O   0  0  0  0  0  0  0  0  0  0  0  0
    8.0449    1.3937   22.2879 N   0  0  0  0  0  0  0  0  0  0  0  0
    8.5594    0.2226   21.5938 C   0  0  0  0  0  0  0  0  0  0  0  0
    7.4685   -0.6857   20.9921 C   0  0  0  0  0  0  0  0  0  0  0  0
    6.5939   -1.3539   22.0651 C   0  0  0  0  0  0  0  0  0  0  0  0
    7.3327   -2.2539   22.8691 O   0  0  0  0  0  0  0  0  0  0  0  0
    7.5451   -3.0360   22.3456 H   0  0  0  0  0  0  0  0  0  0  0  0
    5.7436   -1.8600   21.5779 H   0  0  0  0  0  0  0  0  0  0  0  0
    6.1861   -0.6065   22.7604 H   0  0  0  0  0  0  0  0  0  0  0  0
    6.6550    0.0017   19.8989 C   0  0  0  0  0  0  0  0  0  0  0  0
    5.4362    0.6552   20.1381 C   0  0  0  0  0  0  0  0  0  0  0  0
    4.7939    1.3178   19.0853 C   0  0  0  0  0  0  0  0  0  0  0  0
    5.3879    1.3042   17.8205 C   0  0  0  0  0  0  0  0  0  0  0  0
    6.5480    0.6822   17.5607 N   0  0  0  0  0  0  0  0  0  0  0  0
    7.1560    0.0645   18.5817 C   0  0  0  0  0  0  0  0  0  0  0  0
    8.1064   -0.4146   18.3399 H   0  0  0  0  0  0  0  0  0  0  0  0
    4.9184    1.8100   16.9779 H   0  0  0  0  0  0  0  0  0  0  0  0
    3.8619    1.8529   19.2357 H   0  0  0  0  0  0  0  0  0  0  0  0
    4.9878    0.6437   21.1329 H   0  0  0  0  0  0  0  0  0  0  0  0
    8.0295   -1.5045   20.5108 H   0  0  0  0  0  0  0  0  0  0  0  0
    9.2327    0.5406   20.7834 H   0  0  0  0  0  0  0  0  0  0  0  0
    9.1688   -0.3634   22.2924 H   0  0  0  0  0  0  0  0  0  0  0  0
    7.0673    1.6404   22.2456 H   0  0  0  0  0  0  0  0  0  0  0  0
    6.8957    3.9429   23.4352 C   0  0  0  0  0  0  0  0  0  0  0  0
    6.8674    5.1881   24.1225 C   0  0  0  0  0  0  0  0  0  0  0  0
    5.8421    6.0812   24.4842 C   0  0  0  0  0  0  0  0  0  0  0  0
    4.5797    5.7571   24.1454 F   0  0  0  0  0  0  0  0  0  0  0  0
    5.9979    3.4742   23.0371 H   0  0  0  0  0  0  0  0  0  0  0  0
    9.9986    4.4520   24.0977 H   0  0  0  0  0  0  0  0  0  0  0  0
    9.5156    6.9631   25.4564 H   0  0  0  0  0  0  0  0  0  0  0  0
    7.6417    8.4818   26.0519 H   0  0  0  0  0  0  0  0  0  0  0  0
    4.3754    7.7766   26.3986 H   0  0  0  0  0  0  0  0  0  0  0  0
    5.3151    9.1724   25.8563 H   0  0  0  0  0  0  0  0  0  0  0  0
    4.2512    8.3179   24.7332 H   0  0  0  0  0  0  0  0  0  0  0  0
  1  2  1  0
  2  3  2  0
  3  4  1  0
  4  5  2  0
  5  6  1  0
  6  7  1  0
  7  8  1  0
  8  9  2  0
  8 10  1  0
 10 11  1  0
 11 12  1  0
 12 13  1  0
 13 14  1  0
 14 15  1  0
 13 16  1  0
 13 17  1  0
 12 18  1  0
 18 19  2  0
 19 20  1  0
 20 21  2  0
 21 22  1  0
 22 23  2  0
 23 24  1  0
 21 25  1  0
 20 26  1  0
 19 27  1  0
 12 28  1  0
 11 29  1  0
 11 30  1  0
 10 31  1  0
  7 32  2  0
 32 33  1  0
 33 34  2  0
 34 35  1  0
 32 36  1  0
  6 37  1  0
  4 38  1  0
  3 39  1  0
  1 40  1  0
  1 41  1  0
  1 42  1  0
 34  2  1  0
 33  5  1  0
 23 18  1  0
M  END
>  <plip>  (1) 
-0.03571428571428571

>  <filename>  (1) 
[H][O][C]([H])([H])[C]([H])([c]1[c]([H])[n][c]([H])[c]([H])[c]1[H])[C]([H])([H])[N]([H])[C](=[O])[c]1[c]([H])[c]2[c]([F])[c]([C]([H])([H])[H])[c]([H])[c]([H])[c]2[n]1[H]

$$$$
