
     RDKit          3D

 43 45  0  0  0  0  0  0  0  0999 V2000
    6.1462   -5.9620   20.1792 C   0  0  0  0  0  0  0  0  0  0  0  0
    5.9792   -5.5701   21.6268 C   0  0  0  0  0  0  0  0  0  0  0  0
    6.6363   -6.5120   22.4522 O   0  0  0  0  0  0  0  0  0  0  0  0
    6.7650   -5.9517   23.7535 C   0  0  0  0  0  0  0  0  0  0  0  0
    6.6817   -4.4170   23.5877 C   0  0  0  0  0  0  0  0  0  0  0  0
    6.6559   -4.2695   22.0559 C   0  0  0  0  0  0  0  0  0  0  0  0
    5.7535   -2.9188   21.3760 S   0  0  0  0  0  0  0  0  0  0  0  0
    4.4436   -2.9956   21.9923 O   0  0  0  0  0  0  0  0  0  0  0  0
    5.8925   -2.8501   19.9389 O   0  0  0  0  0  0  0  0  0  0  0  0
    6.4055   -1.5852   22.1055 N   0  0  0  0  0  0  0  0  0  0  0  0
    7.2864   -0.6771   21.3620 C   0  0  0  0  0  0  0  0  0  0  0  0
    6.5727   -0.0613   20.1659 C   0  0  0  0  0  0  0  0  0  0  0  0
    5.3608    0.6436   20.2949 C   0  0  0  0  0  0  0  0  0  0  0  0
    4.8432    1.3164   19.1856 C   0  0  0  0  0  0  0  0  0  0  0  0
    5.5364    1.2522   17.9707 C   0  0  0  0  0  0  0  0  0  0  0  0
    6.6659    0.5551   17.8122 N   0  0  0  0  0  0  0  0  0  0  0  0
    7.1436   -0.0918   18.8851 C   0  0  0  0  0  0  0  0  0  0  0  0
    8.0661   -0.6396   18.6987 H   0  0  0  0  0  0  0  0  0  0  0  0
    5.1758    1.7805   17.0918 H   0  0  0  0  0  0  0  0  0  0  0  0
    3.9303    1.8956   19.2484 H   0  0  0  0  0  0  0  0  0  0  0  0
    4.8326    0.6961   21.2523 H   0  0  0  0  0  0  0  0  0  0  0  0
    7.7861    0.4031   22.3492 C   0  0  0  0  0  0  0  0  0  0  0  0
    9.1018    0.9437   21.7557 C   0  0  0  0  0  0  0  0  0  0  0  0
    9.6486   -0.2170   20.8900 C   0  0  0  0  0  0  0  0  0  0  0  0
    8.6255   -1.3613   21.0502 C   0  0  0  0  0  0  0  0  0  0  0  0
    8.8907   -1.9762   21.9168 H   0  0  0  0  0  0  0  0  0  0  0  0
    8.5433   -2.0204   20.1890 H   0  0  0  0  0  0  0  0  0  0  0  0
    9.6976    0.0925   19.8434 H   0  0  0  0  0  0  0  0  0  0  0  0
   10.6558   -0.5313   21.1772 H   0  0  0  0  0  0  0  0  0  0  0  0
    8.8996    1.8245   21.1342 H   0  0  0  0  0  0  0  0  0  0  0  0
    9.8059    1.2589   22.5342 H   0  0  0  0  0  0  0  0  0  0  0  0
    7.9658   -0.0971   23.3067 H   0  0  0  0  0  0  0  0  0  0  0  0
    7.0450    1.1891   22.5195 H   0  0  0  0  0  0  0  0  0  0  0  0
    5.5174   -1.1513   22.3460 H   0  0  0  0  0  0  0  0  0  0  0  0
    7.6539   -4.1878   21.6346 H   0  0  0  0  0  0  0  0  0  0  0  0
    7.5119   -3.8801   24.0574 H   0  0  0  0  0  0  0  0  0  0  0  0
    5.7450   -4.0533   24.0248 H   0  0  0  0  0  0  0  0  0  0  0  0
    5.9589   -6.3265   24.4004 H   0  0  0  0  0  0  0  0  0  0  0  0
    7.7268   -6.2702   24.1591 H   0  0  0  0  0  0  0  0  0  0  0  0
    4.9067   -5.5347   21.9033 H   0  0  0  0  0  0  0  0  0  0  0  0
    7.1654   -6.3365   20.0720 H   0  0  0  0  0  0  0  0  0  0  0  0
    5.9992   -5.1113   19.5104 H   0  0  0  0  0  0  0  0  0  0  0  0
    5.4346   -6.7498   19.9124 H   0  0  0  0  0  0  0  0  0  0  0  0
  1  2  1  0
  2  3  1  0
  3  4  1  0
  4  5  1  0
  5  6  1  0
  6  7  1  0
  7  8  2  0
  7  9  2  0
  7 10  1  0
 10 11  1  0
 11 12  1  0
 12 13  2  0
 13 14  1  0
 14 15  2  0
 15 16  1  0
 16 17  2  0
 17 18  1  0
 15 19  1  0
 14 20  1  0
 13 21  1  0
 11 22  1  0
 22 23  1  0
 23 24  1  0
 24 25  1  0
 25 26  1  0
 25 27  1  0
 24 28  1  0
 24 29  1  0
 23 30  1  0
 23 31  1  0
 22 32  1  0
 22 33  1  0
 10 34  1  0
  6 35  1  0
  5 36  1  0
  5 37  1  0
  4 38  1  0
  4 39  1  0
  2 40  1  0
  1 41  1  0
  1 42  1  0
  1 43  1  0
  6  2  1  0
 25 11  1  0
 17 12  1  0
M  END
>  <plip>  (1) 
-0.1724137931034483

>  <filename>  (1) 
[H][c]1[n][c]([H])[c]([C]2([N]([H])[S](=[O])(=[O])[C]3([H])[C]([H])([H])[C]([H])([H])[O][C]3([H])[C]([H])([H])[H])[C]([H])([H])[C]([H])([H])[C]([H])([H])[C]2([H])[H])[c]([H])[c]1[H]

$$$$
