
     RDKit          3D

 53 55  0  0  0  0  0  0  0  0999 V2000
    7.6068    2.2359   29.0001 C   0  0  0  0  0  0  0  0  0  0  0  0
    7.1883    2.8147   28.0297 C   0  0  0  0  0  0  0  0  0  0  0  0
    6.6425    3.4397   26.8526 C   0  0  0  0  0  0  0  0  0  0  0  0
    5.6669    4.4434   26.9557 C   0  0  0  0  0  0  0  0  0  0  0  0
    5.0912    4.9164   25.7824 C   0  0  0  0  0  0  0  0  0  0  0  0
    5.4239    4.4708   24.5623 N   0  0  0  0  0  0  0  0  0  0  0  0
    6.3388    3.5045   24.4592 C   0  0  0  0  0  0  0  0  0  0  0  0
    6.6403    3.0895   23.1585 N   0  0  0  0  0  0  0  0  0  0  0  0
    6.3723    3.9721   22.0082 C   0  0  0  0  0  0  0  0  0  0  0  0
    7.3627    5.1267   21.9149 C   0  0  0  0  0  0  0  0  0  0  0  0
    7.1441    5.7118   21.0154 H   0  0  0  0  0  0  0  0  0  0  0  0
    8.4019    4.7757   21.8567 H   0  0  0  0  0  0  0  0  0  0  0  0
    7.2671    5.7805   22.7882 H   0  0  0  0  0  0  0  0  0  0  0  0
    5.3503    4.3562   22.1007 H   0  0  0  0  0  0  0  0  0  0  0  0
    6.3945    3.3603   21.0968 H   0  0  0  0  0  0  0  0  0  0  0  0
    7.0195    1.7616   22.9762 C   0  0  0  0  0  0  0  0  0  0  0  0
    6.6287    0.8611   23.6959 O   0  0  0  0  0  0  0  0  0  0  0  0
    7.8787    1.6151   21.9353 N   0  0  0  0  0  0  0  0  0  0  0  0
    8.3971    0.3302   21.4887 C   0  0  0  0  0  0  0  0  0  0  0  0
    7.2702   -0.5954   20.9744 C   0  0  0  0  0  0  0  0  0  0  0  0
    6.5147    0.0180   19.8283 C   0  0  0  0  0  0  0  0  0  0  0  0
    5.3116    0.6978   20.0437 C   0  0  0  0  0  0  0  0  0  0  0  0
    4.7202    1.3720   18.9736 C   0  0  0  0  0  0  0  0  0  0  0  0
    5.3607    1.3430   17.7292 C   0  0  0  0  0  0  0  0  0  0  0  0
    6.5046    0.6826   17.4966 N   0  0  0  0  0  0  0  0  0  0  0  0
    7.0570    0.0372   18.5317 C   0  0  0  0  0  0  0  0  0  0  0  0
    7.9904   -0.4918   18.3288 H   0  0  0  0  0  0  0  0  0  0  0  0
    4.9308    1.8597   16.8751 H   0  0  0  0  0  0  0  0  0  0  0  0
    3.7891    1.9134   19.0903 H   0  0  0  0  0  0  0  0  0  0  0  0
    4.8812    0.7011   21.0492 H   0  0  0  0  0  0  0  0  0  0  0  0
    7.6946   -1.5519   20.6432 H   0  0  0  0  0  0  0  0  0  0  0  0
    6.6072   -0.8018   21.8215 H   0  0  0  0  0  0  0  0  0  0  0  0
    9.2331   -0.3384   22.5790 C   0  0  0  0  0  0  0  0  0  0  0  0
    9.9176   -1.6078   22.0646 C   0  0  0  0  0  0  0  0  0  0  0  0
   11.0805   -1.8650   23.0211 C   0  0  0  0  0  0  0  0  0  0  0  0
   11.3354   -0.5171   23.7618 C   0  0  0  0  0  0  0  0  0  0  0  0
   10.3920    0.5098   23.1263 C   0  0  0  0  0  0  0  0  0  0  0  0
   10.0670    1.2815   23.8375 H   0  0  0  0  0  0  0  0  0  0  0  0
   10.8973    1.0362   22.3051 H   0  0  0  0  0  0  0  0  0  0  0  0
   12.3846   -0.2024   23.7098 H   0  0  0  0  0  0  0  0  0  0  0  0
   11.1073   -0.6325   24.8287 H   0  0  0  0  0  0  0  0  0  0  0  0
   11.9646   -2.2160   22.4787 H   0  0  0  0  0  0  0  0  0  0  0  0
   10.8271   -2.6534   23.7387 H   0  0  0  0  0  0  0  0  0  0  0  0
    9.2234   -2.4520   21.9844 H   0  0  0  0  0  0  0  0  0  0  0  0
   10.2964   -1.4124   21.0530 H   0  0  0  0  0  0  0  0  0  0  0  0
    8.5615   -0.5767   23.4134 H   0  0  0  0  0  0  0  0  0  0  0  0
    9.0731    0.5437   20.6496 H   0  0  0  0  0  0  0  0  0  0  0  0
    8.2225    2.4711   21.5422 H   0  0  0  0  0  0  0  0  0  0  0  0
    6.9933    2.9720   25.5858 C   0  0  0  0  0  0  0  0  0  0  0  0
    7.7228    2.1874   25.4800 H   0  0  0  0  0  0  0  0  0  0  0  0
    4.3216    5.6856   25.8175 H   0  0  0  0  0  0  0  0  0  0  0  0
    5.3418    4.8124   27.9194 H   0  0  0  0  0  0  0  0  0  0  0  0
    7.9583    1.7000   29.8548 H   0  0  0  0  0  0  0  0  0  0  0  0
  1  2  3  0
  2  3  1  0
  3  4  2  0
  4  5  1  0
  5  6  2  0
  6  7  1  0
  7  8  1  0
  8  9  1  0
  9 10  1  0
 10 11  1  0
 10 12  1  0
 10 13  1  0
  9 14  1  0
  9 15  1  0
  8 16  1  0
 16 17  2  0
 16 18  1  0
 18 19  1  0
 19 20  1  0
 20 21  1  0
 21 22  2  0
 22 23  1  0
 23 24  2  0
 24 25  1  0
 25 26  2  0
 26 27  1  0
 24 28  1  0
 23 29  1  0
 22 30  1  0
 20 31  1  0
 20 32  1  0
 19 33  1  0
 33 34  1  0
 34 35  1  0
 35 36  1  0
 36 37  1  0
 37 38  1  0
 37 39  1  0
 36 40  1  0
 36 41  1  0
 35 42  1  0
 35 43  1  0
 34 44  1  0
 34 45  1  0
 33 46  1  0
 19 47  1  0
 18 48  1  0
  7 49  2  0
 49 50  1  0
  5 51  1  0
  4 52  1  0
  1 53  1  0
 49  3  1  0
 26 21  1  0
 37 33  1  0
M  END
>  <plip>  (1) 
-0.10714285714285714

>  <filename>  (1) 
[H][C]#[C][c]1[c]([H])[c]([H])[n][c]([N]([C](=[O])[N]([H])[C]([H])([C]([H])([H])[c]2[c]([H])[n][c]([H])[c]([H])[c]2[H])[C]2([H])[C]([H])([H])[C]([H])([H])[C]([H])([H])[C]2([H])[H])[C]([H])([H])[C]([H])([H])[H])[c]1[H]

$$$$
