
     RDKit          3D

 24 25  0  0  0  0  0  0  0  0999 V2000
    4.9231    1.7838   16.9916 H   0  0  0  0  0  0  0  0  0  0  0  0
    5.4013    1.2957   17.8358 C   0  0  0  0  0  0  0  0  0  0  0  0
    6.5667    0.6823   17.5766 N   0  0  0  0  0  0  0  0  0  0  0  0
    7.1685    0.0622   18.5946 C   0  0  0  0  0  0  0  0  0  0  0  0
    8.1126   -0.4355   18.3775 H   0  0  0  0  0  0  0  0  0  0  0  0
    6.6418    0.0298   19.8930 C   0  0  0  0  0  0  0  0  0  0  0  0
    7.3740   -0.7037   20.9186 C   0  0  0  0  0  0  0  0  0  0  0  0
    7.9600   -1.8560   20.7516 N   0  0  0  0  0  0  0  0  0  0  0  0
    8.4037   -2.2947   21.9726 N   0  0  0  0  0  0  0  0  0  0  0  0
    8.0975   -1.3831   22.8565 C   0  0  0  0  0  0  0  0  0  0  0  0
    8.2796   -1.4420   23.9184 H   0  0  0  0  0  0  0  0  0  0  0  0
    7.4834   -0.3302   22.2308 N   0  0  0  0  0  0  0  0  0  0  0  0
    6.9133    0.7575   22.8476 O   0  0  0  0  0  0  0  0  0  0  0  0
    7.4680    2.0133   22.4219 C   0  0  0  0  0  0  0  0  0  0  0  0
    6.8979    2.7472   22.9831 H   0  0  0  0  0  0  0  0  0  0  0  0
    7.3307    2.1823   21.3497 H   0  0  0  0  0  0  0  0  0  0  0  0
    8.9407    2.2244   22.7502 C   0  0  0  0  0  0  0  0  0  0  0  0
    9.2806    3.4965   22.4532 F   0  0  0  0  0  0  0  0  0  0  0  0
    9.1875    2.0511   24.0557 F   0  0  0  0  0  0  0  0  0  0  0  0
    9.7431    1.4220   22.0396 F   0  0  0  0  0  0  0  0  0  0  0  0
    5.4209    0.6637   20.1578 C   0  0  0  0  0  0  0  0  0  0  0  0
    5.0033    0.6512   21.1691 H   0  0  0  0  0  0  0  0  0  0  0  0
    4.7949    1.3158   19.0992 C   0  0  0  0  0  0  0  0  0  0  0  0
    3.8654    1.8483   19.2512 H   0  0  0  0  0  0  0  0  0  0  0  0
  1  2  1  0
  2  3  2  0
  3  4  1  0
  4  5  1  0
  4  6  2  0
  6  7  1  0
  7  8  2  0
  8  9  1  0
  9 10  2  0
 10 11  1  0
 10 12  1  0
 12 13  1  0
 13 14  1  0
 14 15  1  0
 14 16  1  0
 14 17  1  0
 17 18  1  0
 17 19  1  0
 17 20  1  0
  6 21  1  0
 21 22  1  0
 21 23  2  0
 23 24  1  0
 23  2  1  0
 12  7  1  0
M  END
>  <plip>  (1) 
-0.0

>  <filename>  (1) 
[H][c]1[n][c]([H])[c](-[c]2[n][n][c]([H])[n]2[O][C]([H])([H])[C]([F])([F])[F])[c]([H])[c]1[H]

$$$$
