
     RDKit          3D

 31 32  0  0  0  0  0  0  0  0999 V2000
    4.9064    1.7974   16.8949 H   0  0  0  0  0  0  0  0  0  0  0  0
    5.3943    1.2749   17.7132 C   0  0  0  0  0  0  0  0  0  0  0  0
    6.4846    0.5702   17.3678 N   0  0  0  0  0  0  0  0  0  0  0  0
    7.1335   -0.0663   18.3486 C   0  0  0  0  0  0  0  0  0  0  0  0
    8.0358   -0.6131   18.0851 H   0  0  0  0  0  0  0  0  0  0  0  0
    6.7496   -0.0088   19.6927 C   0  0  0  0  0  0  0  0  0  0  0  0
    7.8260   -0.7773   20.8770 S   0  0  0  0  0  0  0  0  0  0  0  0
    7.2416   -2.3808   20.8191 N   0  0  0  0  0  0  0  0  0  0  0  0
    6.4879   -2.5851   20.1715 H   0  0  0  0  0  0  0  0  0  0  0  0
    6.6469   -2.8338   22.0482 C   0  0  0  0  0  0  0  0  0  0  0  0
    6.0620   -2.0300   22.5142 H   0  0  0  0  0  0  0  0  0  0  0  0
    7.4021   -3.1296   22.8004 H   0  0  0  0  0  0  0  0  0  0  0  0
    5.7311   -3.8983   21.6534 N   0  0  0  0  0  0  0  0  0  0  0  0
    4.9553   -4.3624   22.8229 C   0  0  0  0  0  0  0  0  0  0  0  0
    4.1519   -5.0104   22.4406 H   0  0  0  0  0  0  0  0  0  0  0  0
    4.4783   -3.5039   23.3178 H   0  0  0  0  0  0  0  0  0  0  0  0
    5.7975   -5.1648   23.8597 C   0  0  0  0  0  0  0  0  0  0  0  0
    6.4915   -4.4739   24.3665 H   0  0  0  0  0  0  0  0  0  0  0  0
    5.1305   -5.5517   24.6334 H   0  0  0  0  0  0  0  0  0  0  0  0
    6.5681   -6.2827   23.2897 N   0  0  0  0  0  0  0  0  0  0  0  0
    5.9444   -7.0670   23.1232 H   0  0  0  0  0  0  0  0  0  0  0  0
    7.2430   -5.9179   22.0385 C   0  0  0  0  0  0  0  0  0  0  0  0
    8.1578   -5.3540   22.2757 H   0  0  0  0  0  0  0  0  0  0  0  0
    7.5617   -6.8299   21.5325 H   0  0  0  0  0  0  0  0  0  0  0  0
    6.3926   -5.0836   21.0496 C   0  0  0  0  0  0  0  0  0  0  0  0
    7.0347   -4.7664   20.2247 H   0  0  0  0  0  0  0  0  0  0  0  0
    5.5910   -5.7164   20.6338 H   0  0  0  0  0  0  0  0  0  0  0  0
    5.5918    0.6940   20.0443 C   0  0  0  0  0  0  0  0  0  0  0  0
    5.2695    0.7251   21.0861 H   0  0  0  0  0  0  0  0  0  0  0  0
    4.8969    1.3531   19.0225 C   0  0  0  0  0  0  0  0  0  0  0  0
    4.0127    1.9443   19.2366 H   0  0  0  0  0  0  0  0  0  0  0  0
  1  2  1  0
  2  3  2  0
  3  4  1  0
  4  5  1  0
  4  6  2  0
  6  7  1  0
  7  8  1  0
  8  9  1  0
  8 10  1  0
 10 11  1  0
 10 12  1  0
 10 13  1  0
 13 14  1  0
 14 15  1  0
 14 16  1  0
 14 17  1  0
 17 18  1  0
 17 19  1  0
 17 20  1  0
 20 21  1  0
 20 22  1  0
 22 23  1  0
 22 24  1  0
 22 25  1  0
 25 26  1  0
 25 27  1  0
  6 28  1  0
 28 29  1  0
 28 30  2  0
 30 31  1  0
 30  2  1  0
 25 13  1  0
M  END
>  <plip>  (1) 
-0.10344827586206896

>  <filename>  (1) 
[H][c]1[n][c]([H])[c]([S][N]([H])[C]([H])([H])[N]2[C]([H])([H])[C]([H])([H])[N]([H])[C]([H])([H])[C]2([H])[H])[c]([H])[c]1[H]

$$$$
