
     RDKit          3D

 46 48  0  0  0  0  0  0  0  0999 V2000
    5.0289    1.7589   16.9701 H   0  0  0  0  0  0  0  0  0  0  0  0
    5.4511    1.2891   17.8564 C   0  0  0  0  0  0  0  0  0  0  0  0
    6.6161    0.6498   17.6824 N   0  0  0  0  0  0  0  0  0  0  0  0
    7.1701    0.0813   18.7632 C   0  0  0  0  0  0  0  0  0  0  0  0
    8.1024   -0.4526   18.5621 H   0  0  0  0  0  0  0  0  0  0  0  0
    6.6271    0.1090   20.0694 C   0  0  0  0  0  0  0  0  0  0  0  0
    7.3113   -0.6225   21.2398 C   0  0  1  0  0  0  0  0  0  0  0  0
    6.6276   -0.6137   22.1058 H   0  0  0  0  0  0  0  0  0  0  0  0
    7.6050   -2.0740   20.8061 C   0  0  0  0  0  0  0  0  0  0  0  0
    6.7051   -2.5558   20.4039 H   0  0  0  0  0  0  0  0  0  0  0  0
    8.3230   -1.9601   19.9847 H   0  0  0  0  0  0  0  0  0  0  0  0
    8.2751   -2.9213   21.8912 C   0  0  0  0  0  0  0  0  0  0  0  0
    7.6393   -2.9451   22.7896 H   0  0  0  0  0  0  0  0  0  0  0  0
    8.3900   -3.9565   21.5496 H   0  0  0  0  0  0  0  0  0  0  0  0
    9.6371   -2.3162   22.2493 C   0  0  0  0  0  0  0  0  0  0  0  0
   10.2933   -2.3485   21.3649 H   0  0  0  0  0  0  0  0  0  0  0  0
   10.1550   -2.9005   23.0207 H   0  0  0  0  0  0  0  0  0  0  0  0
    9.4637   -0.8638   22.7108 C   0  0  0  0  0  0  0  0  0  0  0  0
   10.4404   -0.3835   22.8423 H   0  0  0  0  0  0  0  0  0  0  0  0
    8.9700   -0.8295   23.6935 H   0  0  0  0  0  0  0  0  0  0  0  0
    8.6690    0.0158   21.7231 C   0  0  2  0  0  0  0  0  0  0  0  0
    9.2860    0.1032   20.8070 H   0  0  0  0  0  0  0  0  0  0  0  0
    8.5644    1.3364   22.3436 N   0  0  0  0  0  0  0  0  0  0  0  0
    7.6884    1.4123   22.8562 H   0  0  0  0  0  0  0  0  0  0  0  0
    8.6664    2.4527   21.4125 C   0  0  0  0  0  0  0  0  0  0  0  0
    9.7030    2.4693   21.0500 H   0  0  0  0  0  0  0  0  0  0  0  0
    8.0388    2.3096   20.5161 H   0  0  0  0  0  0  0  0  0  0  0  0
    8.3507    3.7793   22.0530 C   0  0  0  0  0  0  0  0  0  0  0  0
    9.3238    4.4728   22.8008 C   0  0  0  0  0  0  0  0  0  0  0  0
   10.2816    3.9962   23.0160 H   0  0  0  0  0  0  0  0  0  0  0  0
    9.0925    5.7783   23.2361 C   0  0  0  0  0  0  0  0  0  0  0  0
    9.8429    6.3495   23.7728 H   0  0  0  0  0  0  0  0  0  0  0  0
    7.8727    6.4112   22.9460 C   0  0  0  0  0  0  0  0  0  0  0  0
    7.7603    7.7192   23.3207 O   0  0  0  0  0  0  0  0  0  0  0  0
    6.7243    8.5065   22.7536 C   0  0  0  0  0  0  0  0  0  0  0  0
    5.7294    8.1684   23.0706 H   0  0  0  0  0  0  0  0  0  0  0  0
    6.8820    9.5201   23.1195 H   0  0  0  0  0  0  0  0  0  0  0  0
    6.7558    8.5246   21.6543 H   0  0  0  0  0  0  0  0  0  0  0  0
    6.8611    5.6945   22.2985 C   0  0  0  0  0  0  0  0  0  0  0  0
    5.8989    6.1585   22.1157 H   0  0  0  0  0  0  0  0  0  0  0  0
    7.1123    4.3953   21.8477 C   0  0  0  0  0  0  0  0  0  0  0  0
    6.3293    3.8840   21.2868 H   0  0  0  0  0  0  0  0  0  0  0  0
    5.3953    0.7735   20.2102 C   0  0  0  0  0  0  0  0  0  0  0  0
    4.8993    0.8128   21.1826 H   0  0  0  0  0  0  0  0  0  0  0  0
    4.7992    1.3692   19.0903 C   0  0  0  0  0  0  0  0  0  0  0  0
    3.8580    1.9051   19.1630 H   0  0  0  0  0  0  0  0  0  0  0  0
  1  2  1  0
  2  3  2  0
  3  4  1  0
  4  5  1  0
  4  6  2  0
  6  7  1  0
  7  8  1  1
  7  9  1  0
  9 10  1  0
  9 11  1  0
  9 12  1  0
 12 13  1  0
 12 14  1  0
 12 15  1  0
 15 16  1  0
 15 17  1  0
 15 18  1  0
 18 19  1  0
 18 20  1  0
 18 21  1  0
 21 22  1  6
 21 23  1  0
 23 24  1  0
 23 25  1  0
 25 26  1  0
 25 27  1  0
 25 28  1  0
 28 29  2  0
 29 30  1  0
 29 31  1  0
 31 32  1  0
 31 33  2  0
 33 34  1  0
 34 35  1  0
 35 36  1  0
 35 37  1  0
 35 38  1  0
 33 39  1  0
 39 40  1  0
 39 41  2  0
 41 42  1  0
  6 43  1  0
 43 44  1  0
 43 45  2  0
 45 46  1  0
 45  2  1  0
 21  7  1  0
 41 28  1  0
M  END
>  <plip>  (1) 
-0.03571428571428571

>  <filename>  (1) 
[H][c]1[n][c]([H])[c]([C@@]2([H])[C]([H])([H])[C]([H])([H])[C]([H])([H])[C]([H])([H])[C@]2([H])[N]([H])[C]([H])([H])[c]2[c]([H])[c]([H])[c]([O][C]([H])([H])[H])[c]([H])[c]2[H])[c]([H])[c]1[H]

$$$$
