
     RDKit          3D

 52 55  0  0  0  0  0  0  0  0999 V2000
    6.6100   -3.0408   20.7255 C   0  0  0  0  0  0  0  0  0  0  0  0
    6.6681   -1.8328   21.5847 N   0  0  0  0  0  4  0  0  0  0  0  0
    7.2172   -2.0924   22.9569 C   0  0  0  0  0  0  0  0  0  0  0  0
    7.9419   -0.7930   23.3645 C   0  0  0  0  0  0  0  0  0  0  0  0
    7.8316    0.1819   22.1723 C   0  0  1  0  0  0  0  0  0  0  0  0
    9.0861    1.0343   21.8905 C   0  0  0  0  0  0  0  0  0  0  0  0
    9.4101    1.9585   22.9623 N   0  0  0  0  0  0  0  0  0  0  0  0
    8.6168    3.0271   23.2468 C   0  0  0  0  0  0  0  0  0  0  0  0
    7.7450    3.4119   22.4874 O   0  0  0  0  0  0  0  0  0  0  0  0
    8.9066    3.6457   24.5920 C   0  0  2  0  0  0  0  0  0  0  0  0
    8.7571    2.8622   25.8710 C   0  0  0  0  0  0  0  0  0  0  0  0
    7.7548    3.9289   25.5291 C   0  0  1  0  0  0  0  0  0  0  0  0
    7.7142    5.1924   26.3468 C   0  0  0  0  0  0  0  0  0  0  0  0
    7.5579    5.1259   27.7407 C   0  0  0  0  0  0  0  0  0  0  0  0
    7.5159    6.2868   28.5248 C   0  0  0  0  0  0  0  0  0  0  0  0
    7.6278    7.5377   27.9159 C   0  0  0  0  0  0  0  0  0  0  0  0
    7.7624    7.6125   26.5263 C   0  0  0  0  0  0  0  0  0  0  0  0
    7.8774    8.8530   25.9884 O   0  0  0  0  0  0  0  0  0  0  0  0
    7.9311    8.7518   25.0319 H   0  0  0  0  0  0  0  0  0  0  0  0
    7.7990    6.4548   25.7399 C   0  0  0  0  0  0  0  0  0  0  0  0
    7.9024    6.5431   24.6599 H   0  0  0  0  0  0  0  0  0  0  0  0
    7.6278    8.4699   28.4731 H   0  0  0  0  0  0  0  0  0  0  0  0
    7.4145    6.2100   29.6066 H   0  0  0  0  0  0  0  0  0  0  0  0
    7.4696    4.1435   28.1915 H   0  0  0  0  0  0  0  0  0  0  0  0
    6.7744    3.5987   25.1780 H   0  0  0  0  0  0  0  0  0  0  0  0
    9.4317    3.0918   26.6787 H   0  0  0  0  0  0  0  0  0  0  0  0
    8.4612    1.8166   25.8421 H   0  0  0  0  0  0  0  0  0  0  0  0
    9.7120    4.3763   24.5332 H   0  0  0  0  0  0  0  0  0  0  0  0
   10.0805    1.7277   23.6701 H   0  0  0  0  0  0  0  0  0  0  0  0
    9.9530    0.3803   21.7134 H   0  0  0  0  0  0  0  0  0  0  0  0
    8.9180    1.6265   20.9848 H   0  0  0  0  0  0  0  0  0  0  0  0
    7.4693   -0.6958   20.9708 C   0  0  2  0  0  0  0  0  0  0  0  0
    6.6662   -0.0073   19.8934 C   0  0  0  0  0  0  0  0  0  0  0  0
    5.4379    0.6344   20.1389 C   0  0  0  0  0  0  0  0  0  0  0  0
    4.7983    1.3006   19.0921 C   0  0  0  0  0  0  0  0  0  0  0  0
    5.3976    1.2907   17.8275 C   0  0  0  0  0  0  0  0  0  0  0  0
    6.5549    0.6672   17.5641 N   0  0  0  0  0  0  0  0  0  0  0  0
    7.1619    0.0462   18.5839 C   0  0  0  0  0  0  0  0  0  0  0  0
    8.1137   -0.4305   18.3424 H   0  0  0  0  0  0  0  0  0  0  0  0
    4.9296    1.8086   16.9911 H   0  0  0  0  0  0  0  0  0  0  0  0
    3.8688    1.8443   19.2401 H   0  0  0  0  0  0  0  0  0  0  0  0
    4.9945    0.6477   21.1403 H   0  0  0  0  0  0  0  0  0  0  0  0
    8.3776   -1.1278   20.5319 H   0  0  0  0  0  0  0  0  0  0  0  0
    6.9911    0.8699   22.3492 H   0  0  0  0  0  0  0  0  0  0  0  0
    8.9879   -1.0287   23.5843 H   0  0  0  0  0  0  0  0  0  0  0  0
    7.5239   -0.3594   24.2792 H   0  0  0  0  0  0  0  0  0  0  0  0
    7.9157   -2.9339   22.9032 H   0  0  0  0  0  0  0  0  0  0  0  0
    6.4134   -2.3897   23.6369 H   0  0  0  0  0  0  0  0  0  0  0  0
    5.7162   -1.4001   21.6818 H   0  0  0  0  0  0  0  0  0  0  0  0
    7.6329   -3.4216   20.5650 H   0  0  0  0  0  0  0  0  0  0  0  0
    6.0305   -3.8517   21.1820 H   0  0  0  0  0  0  0  0  0  0  0  0
    6.1846   -2.8003   19.7460 H   0  0  0  0  0  0  0  0  0  0  0  0
  1  2  1  0
  2  3  1  0
  3  4  1  0
  4  5  1  0
  5  6  1  0
  6  7  1  0
  7  8  1  0
  8  9  2  0
  8 10  1  0
 10 11  1  0
 11 12  1  0
 12 13  1  0
 13 14  2  0
 14 15  1  0
 15 16  2  0
 16 17  1  0
 17 18  1  0
 18 19  1  0
 17 20  2  0
 20 21  1  0
 16 22  1  0
 15 23  1  0
 14 24  1  0
 12 25  1  6
 11 26  1  0
 11 27  1  0
 10 28  1  6
  7 29  1  0
  6 30  1  0
  6 31  1  0
  5 32  1  0
 32 33  1  0
 33 34  2  0
 34 35  1  0
 35 36  2  0
 36 37  1  0
 37 38  2  0
 38 39  1  0
 36 40  1  0
 35 41  1  0
 34 42  1  0
 32 43  1  6
  5 44  1  1
  4 45  1  0
  4 46  1  0
  3 47  1  0
  3 48  1  0
  2 49  1  0
  1 50  1  0
  1 51  1  0
  1 52  1  0
 32  2  1  0
 38 33  1  0
 12 10  1  0
 20 13  1  0
M  CHG  1   2   1
M  END
>  <plip>  (1) 
-0.07142857142857142

>  <filename>  (1) 
[H][O][c]1[c]([H])[c]([H])[c]([H])[c]([C@]2([H])[C]([H])([H])[C@@]2([H])[C](=[O])[N]([H])[C]([H])([H])[C@]2([H])[C]([H])([H])[C]([H])([H])[N+]([H])([C]([H])([H])[H])[C@@]2([H])[c]2[c]([H])[n][c]([H])[c]([H])[c]2[H])[c]1[H]

$$$$
