
     RDKit          3D

 23 25  0  0  0  0  0  0  0  0999 V2000
    4.9244    1.7782   16.9984 H   0  0  0  0  0  0  0  0  0  0  0  0
    5.4076    1.2877   17.8406 C   0  0  0  0  0  0  0  0  0  0  0  0
    6.5718    0.6704   17.5843 N   0  0  0  0  0  0  0  0  0  0  0  0
    7.1821    0.0523   18.6035 C   0  0  0  0  0  0  0  0  0  0  0  0
    8.1277   -0.4324   18.3768 H   0  0  0  0  0  0  0  0  0  0  0  0
    6.6642    0.0025   19.9120 C   0  0  0  0  0  0  0  0  0  0  0  0
    7.3720   -0.6993   20.9924 C   0  0  0  0  0  0  0  0  0  0  0  0
    8.5392   -1.4150   20.7929 N   0  0  0  0  0  0  0  0  0  0  0  0
    8.8837   -1.8979   21.9518 C   0  0  0  0  0  0  0  0  0  0  0  0
    9.7598   -2.5113   22.1361 H   0  0  0  0  0  0  0  0  0  0  0  0
    7.9894   -1.5370   22.9361 N   0  0  0  0  0  0  0  0  0  0  0  0
    8.0683   -1.8839   24.2715 C   0  0  0  0  0  0  0  0  0  0  0  0
    7.1558   -1.4942   25.1943 N   0  0  0  0  0  0  0  0  0  0  0  0
    7.5509   -2.0015   26.3218 N   0  0  0  0  0  0  0  0  0  0  0  0
    8.6501   -2.6588   26.0579 N   0  0  0  0  0  0  0  0  0  0  0  0
    9.1420   -3.1456   26.7932 H   0  0  0  0  0  0  0  0  0  0  0  0
    9.0366   -2.6304   24.7886 N   0  0  0  0  0  0  0  0  0  0  0  0
    7.0178   -0.7635   22.3085 C   0  0  0  0  0  0  0  0  0  0  0  0
    6.1829   -0.3317   22.8501 H   0  0  0  0  0  0  0  0  0  0  0  0
    5.4404    0.6525   20.1559 C   0  0  0  0  0  0  0  0  0  0  0  0
    4.9909    0.6442   21.1504 H   0  0  0  0  0  0  0  0  0  0  0  0
    4.8084    1.3084   19.1046 C   0  0  0  0  0  0  0  0  0  0  0  0
    3.8773    1.8405   19.2579 H   0  0  0  0  0  0  0  0  0  0  0  0
  1  2  1  0
  2  3  2  0
  3  4  1  0
  4  5  1  0
  4  6  2  0
  6  7  1  0
  7  8  1  0
  8  9  2  0
  9 10  1  0
  9 11  1  0
 11 12  1  0
 12 13  1  0
 13 14  2  0
 14 15  1  0
 15 16  1  0
 15 17  1  0
 11 18  1  0
 18 19  1  0
  6 20  1  0
 20 21  1  0
 20 22  2  0
 22 23  1  0
 22  2  1  0
 18  7  2  0
 17 12  2  0
M  END
>  <plip>  (1) 
-0.034482758620689655

>  <filename>  (1) 
[H][c]1[n][c]([H])[c](-[c]2[n][c]([H])[n](-[c]3[n][n][n]([H])[n]3)[c]2[H])[c]([H])[c]1[H]

$$$$
