
     RDKit          3D

 31 32  0  0  0  0  0  0  0  0999 V2000
    7.0942    4.0270   23.3714 C   0  0  0  0  0  0  0  0  0  0  0  0
    8.1778    3.2303   22.6969 C   0  0  0  0  0  0  0  0  0  0  0  0
    7.9414    1.9232   22.2518 C   0  0  0  0  0  0  0  0  0  0  0  0
    8.9454    1.1924   21.6074 C   0  0  0  0  0  0  0  0  0  0  0  0
    8.7293   -0.1127   21.1551 N   0  0  0  0  0  0  0  0  0  0  0  0
    9.8902   -0.9691   20.8494 C   0  0  0  0  0  0  0  0  0  0  0  0
   10.4368   -0.5382   20.0298 H   0  0  0  0  0  0  0  0  0  0  0  0
   10.5660   -1.0608   21.7064 H   0  0  0  0  0  0  0  0  0  0  0  0
    9.5850   -1.9695   20.5326 H   0  0  0  0  0  0  0  0  0  0  0  0
    7.3886   -0.6931   20.9956 C   0  0  0  0  0  0  0  0  0  0  0  0
    6.6640    0.0320   19.9089 C   0  0  0  0  0  0  0  0  0  0  0  0
    5.4429    0.6552   20.1666 C   0  0  0  0  0  0  0  0  0  0  0  0
    4.8206    1.3048   19.1044 C   0  0  0  0  0  0  0  0  0  0  0  0
    5.4059    1.2915   17.8324 C   0  0  0  0  0  0  0  0  0  0  0  0
    6.5759    0.6716   17.5857 N   0  0  0  0  0  0  0  0  0  0  0  0
    7.1969    0.0651   18.6134 C   0  0  0  0  0  0  0  0  0  0  0  0
    8.1363   -0.4381   18.4093 H   0  0  0  0  0  0  0  0  0  0  0  0
    4.8934    1.7932   17.0168 H   0  0  0  0  0  0  0  0  0  0  0  0
    3.8856    1.8288   19.2576 H   0  0  0  0  0  0  0  0  0  0  0  0
    4.9997    0.6393   21.1640 H   0  0  0  0  0  0  0  0  0  0  0  0
    6.8326   -0.6599   21.9391 H   0  0  0  0  0  0  0  0  0  0  0  0
    7.4737   -1.7493   20.7127 H   0  0  0  0  0  0  0  0  0  0  0  0
   10.1626    1.7069   21.4154 N   0  0  0  0  0  0  0  0  0  0  0  0
   10.3953    2.9536   21.8625 C   0  0  0  0  0  0  0  0  0  0  0  0
    9.4477    3.7620   22.5008 C   0  0  0  0  0  0  0  0  0  0  0  0
    9.9641    5.8933   23.1104 I   0  0  0  0  0  0  0  0  0  0  0  0
   11.3627    3.4055   21.6821 H   0  0  0  0  0  0  0  0  0  0  0  0
    6.9794    1.4594   22.4152 H   0  0  0  0  0  0  0  0  0  0  0  0
    6.1694    3.4482   23.4494 H   0  0  0  0  0  0  0  0  0  0  0  0
    7.4142    4.3118   24.3776 H   0  0  0  0  0  0  0  0  0  0  0  0
    6.8862    4.9419   22.8075 H   0  0  0  0  0  0  0  0  0  0  0  0
  1  2  1  0
  2  3  2  0
  3  4  1  0
  4  5  1  0
  5  6  1  0
  6  7  1  0
  6  8  1  0
  6  9  1  0
  5 10  1  0
 10 11  1  0
 11 12  2  0
 12 13  1  0
 13 14  2  0
 14 15  1  0
 15 16  2  0
 16 17  1  0
 14 18  1  0
 13 19  1  0
 12 20  1  0
 10 21  1  0
 10 22  1  0
  4 23  2  0
 23 24  1  0
 24 25  2  0
 25 26  1  0
 24 27  1  0
  3 28  1  0
  1 29  1  0
  1 30  1  0
  1 31  1  0
 25  2  1  0
 16 11  1  0
M  END
>  <plip>  (1) 
-0.07142857142857142

>  <filename>  (1) 
[H][c]1[n][c]([H])[c]([C]([H])([H])[N]([c]2[n][c]([H])[c]([I])[c]([C]([H])([H])[H])[c]2[H])[C]([H])([H])[H])[c]([H])[c]1[H]

$$$$
