
     RDKit          3D

 43 44  0  0  0  0  0  0  0  0999 V2000
    8.9538   -1.3574   23.4564 O   0  0  0  0  0  0  0  0  0  0  0  0
    9.3242   -0.1386   22.7528 S   0  0  0  0  0  0  0  0  0  0  0  0
   10.6906    0.1398   22.3727 O   0  0  0  0  0  0  0  0  0  0  0  0
    8.5163    1.2562   23.4896 C   0  0  0  0  0  0  0  0  0  0  0  0
    9.2228    1.8658   24.7070 C   0  0  0  0  0  0  0  0  0  0  0  0
    9.4034    0.8470   25.8463 C   0  0  0  0  0  0  0  0  0  0  0  0
    8.1121    0.6359   26.6575 C   0  0  0  0  0  0  0  0  0  0  0  0
    7.4544    1.9628   27.0402 C   0  0  0  0  0  0  0  0  0  0  0  0
    7.2572    2.7957   25.9104 O   0  0  0  0  0  0  0  0  0  0  0  0
    8.4583    3.1086   25.2226 C   0  0  0  0  0  0  0  0  0  0  0  0
    9.1180    3.7020   25.8766 H   0  0  0  0  0  0  0  0  0  0  0  0
    8.1556    3.7459   24.3844 H   0  0  0  0  0  0  0  0  0  0  0  0
    6.4582    1.8029   27.4655 H   0  0  0  0  0  0  0  0  0  0  0  0
    8.0592    2.4875   27.7993 H   0  0  0  0  0  0  0  0  0  0  0  0
    7.3929    0.0481   26.0711 H   0  0  0  0  0  0  0  0  0  0  0  0
    8.3250    0.0592   27.5645 H   0  0  0  0  0  0  0  0  0  0  0  0
   10.2080    1.2096   26.4930 H   0  0  0  0  0  0  0  0  0  0  0  0
    9.7496   -0.1136   25.4492 H   0  0  0  0  0  0  0  0  0  0  0  0
   10.2106    2.2112   24.3707 H   0  0  0  0  0  0  0  0  0  0  0  0
    8.4386    1.9702   22.6650 H   0  0  0  0  0  0  0  0  0  0  0  0
    7.5226    0.8720   23.7350 H   0  0  0  0  0  0  0  0  0  0  0  0
    8.5378   -0.0664   21.3063 N   0  0  0  0  0  0  0  0  0  0  0  0
    7.1676   -0.5649   21.2401 C   0  0  2  0  0  0  0  0  0  0  0  0
    7.2286   -2.0757   21.0703 C   0  0  0  0  0  0  0  0  0  0  0  0
    5.8740   -2.7359   20.9325 C   0  0  0  0  0  0  0  0  0  0  0  0
    6.0003   -4.1165   20.6671 O   0  0  0  0  0  0  0  0  0  0  0  0
    6.5080   -4.4922   21.3998 H   0  0  0  0  0  0  0  0  0  0  0  0
    5.2811   -2.5576   21.8478 H   0  0  0  0  0  0  0  0  0  0  0  0
    5.3462   -2.2935   20.0799 H   0  0  0  0  0  0  0  0  0  0  0  0
    7.7975   -2.5199   21.8917 H   0  0  0  0  0  0  0  0  0  0  0  0
    7.8009   -2.2223   20.1609 H   0  0  0  0  0  0  0  0  0  0  0  0
    6.5110    0.1553   20.0869 C   0  0  0  0  0  0  0  0  0  0  0  0
    5.2714    0.8070   20.1764 C   0  0  0  0  0  0  0  0  0  0  0  0
    4.7344    1.3845   19.0225 C   0  0  0  0  0  0  0  0  0  0  0  0
    5.4560    1.3000   17.8278 C   0  0  0  0  0  0  0  0  0  0  0  0
    6.6456    0.6938   17.7243 N   0  0  0  0  0  0  0  0  0  0  0  0
    7.1536    0.1527   18.8390 C   0  0  0  0  0  0  0  0  0  0  0  0
    8.1251   -0.3223   18.7052 H   0  0  0  0  0  0  0  0  0  0  0  0
    5.0642    1.7414   16.9147 H   0  0  0  0  0  0  0  0  0  0  0  0
    3.7859    1.9089   19.0373 H   0  0  0  0  0  0  0  0  0  0  0  0
    4.7461    0.8782   21.1319 H   0  0  0  0  0  0  0  0  0  0  0  0
    6.6286   -0.3257   22.1693 H   0  0  0  0  0  0  0  0  0  0  0  0
    9.1953   -0.5697   20.7232 H   0  0  0  0  0  0  0  0  0  0  0  0
  1  2  2  0
  2  3  2  0
  2  4  1  0
  4  5  1  0
  5  6  1  0
  6  7  1  0
  7  8  1  0
  8  9  1  0
  9 10  1  0
 10 11  1  0
 10 12  1  0
  8 13  1  0
  8 14  1  0
  7 15  1  0
  7 16  1  0
  6 17  1  0
  6 18  1  0
  5 19  1  0
  4 20  1  0
  4 21  1  0
  2 22  1  0
 22 23  1  0
 23 24  1  0
 24 25  1  0
 25 26  1  0
 26 27  1  0
 25 28  1  0
 25 29  1  0
 24 30  1  0
 24 31  1  0
 23 32  1  0
 32 33  2  0
 33 34  1  0
 34 35  2  0
 35 36  1  0
 36 37  2  0
 37 38  1  0
 35 39  1  0
 34 40  1  0
 33 41  1  0
 23 42  1  1
 22 43  1  0
 10  5  1  0
 37 32  1  0
M  END
>  <plip>  (1) 
-0.1724137931034483

>  <filename>  (1) 
[H][O][C]([H])([H])[C]([H])([H])[C@]([H])([c]1[c]([H])[n][c]([H])[c]([H])[c]1[H])[N]([H])[S](=[O])(=[O])[C]([H])([H])[C]1([H])[C]([H])([H])[O][C]([H])([H])[C]([H])([H])[C]1([H])[H]

$$$$
