
     RDKit          3D

 28 30  0  0  0  0  0  0  0  0999 V2000
   14.4381    0.9101   23.1102 H   0  0  0  0  0  0  0  0  0  0  0  0
   13.4285    0.5585   23.3005 C   0  0  0  0  0  0  0  0  0  0  0  0
   12.6853    0.0396   22.2628 N   0  0  0  0  0  0  0  0  0  0  0  0
   11.5349   -0.3894   22.6887 C   0  0  0  0  0  0  0  0  0  0  0  0
   10.6970   -1.0390   21.7616 N   0  0  0  0  0  0  0  0  0  0  0  0
   10.9621   -0.7780   20.8163 H   0  0  0  0  0  0  0  0  0  0  0  0
    9.3701   -1.3197   21.7800 N   0  0  0  0  0  0  0  0  0  0  0  0
    8.7234   -0.7944   20.7390 N   0  0  0  0  0  0  0  0  0  0  0  0
    7.4158   -0.9290   20.6963 C   0  0  0  0  0  0  0  0  0  0  0  0
    6.6851   -0.0751   19.6982 C   0  0  0  0  0  0  0  0  0  0  0  0
    7.2897    0.1489   18.4449 C   0  0  0  0  0  0  0  0  0  0  0  0
    8.2775   -0.2557   18.2451 H   0  0  0  0  0  0  0  0  0  0  0  0
    6.7216    0.8426   17.4543 N   0  0  0  0  0  0  0  0  0  0  0  0
    5.5352    1.4112   17.7089 C   0  0  0  0  0  0  0  0  0  0  0  0
    5.0983    1.9855   16.8933 H   0  0  0  0  0  0  0  0  0  0  0  0
    4.8728    1.3119   18.9362 C   0  0  0  0  0  0  0  0  0  0  0  0
    3.9361    1.8377   19.0842 H   0  0  0  0  0  0  0  0  0  0  0  0
    5.4426    0.5394   19.9512 C   0  0  0  0  0  0  0  0  0  0  0  0
    4.9340    0.4130   20.9100 H   0  0  0  0  0  0  0  0  0  0  0  0
    6.7151   -1.9228   21.5871 C   0  0  0  0  0  0  0  0  0  0  0  0
    5.5373   -2.2574   21.4683 O   0  0  0  0  0  0  0  0  0  0  0  0
    7.5481   -2.5135   22.6140 C   0  0  0  0  0  0  0  0  0  0  0  0
    7.0669   -3.2084   23.2856 H   0  0  0  0  0  0  0  0  0  0  0  0
    8.8468   -2.2103   22.6645 C   0  0  0  0  0  0  0  0  0  0  0  0
    9.6178   -2.6168   23.3145 H   0  0  0  0  0  0  0  0  0  0  0  0
   11.2478   -0.1338   24.4026 S   0  0  0  0  0  0  0  0  0  0  0  0
   12.8374    0.5542   24.5161 C   0  0  0  0  0  0  0  0  0  0  0  0
   13.2294    0.9128   25.4522 H   0  0  0  0  0  0  0  0  0  0  0  0
  1  2  1  0
  2  3  1  0
  3  4  2  0
  4  5  1  0
  5  6  1  0
  5  7  1  0
  7  8  1  0
  8  9  2  0
  9 10  1  0
 10 11  2  0
 11 12  1  0
 11 13  1  0
 13 14  2  0
 14 15  1  0
 14 16  1  0
 16 17  1  0
 16 18  2  0
 18 19  1  0
  9 20  1  0
 20 21  2  0
 20 22  1  0
 22 23  1  0
 22 24  2  0
 24 25  1  0
  4 26  1  0
 26 27  1  0
 27 28  1  0
 27  2  2  0
 24  7  1  0
 18 10  1  0
M  END
>  <plip>  (1) 
-0.06896551724137931

>  <filename>  (1) 
[H][c]1[n][c]([N]([H])[n]2[n][c](-[c]3[c]([H])[n][c]([H])[c]([H])[c]3[H])[c](=[O])[c]([H])[c]2[H])[s][c]1[H]

$$$$
