
     RDKit          3D

 51 54  0  0  0  0  0  0  0  0999 V2000
    5.7501   -2.9076   19.1083 C   0  0  0  0  0  0  0  0  0  0  0  0
    5.8722   -2.5085   20.4656 O   0  0  0  0  0  0  0  0  0  0  0  0
    7.1541   -2.0911   20.8714 C   0  0  0  0  0  0  0  0  0  0  0  0
    7.5759   -2.7498   22.0248 O   0  0  0  0  0  0  0  0  0  0  0  0
    7.7393   -4.1504   21.9089 C   0  0  0  0  0  0  0  0  0  0  0  0
    8.3770   -4.4605   22.7433 H   0  0  0  0  0  0  0  0  0  0  0  0
    8.2261   -4.4397   20.9642 H   0  0  0  0  0  0  0  0  0  0  0  0
    6.7725   -4.6637   21.9739 H   0  0  0  0  0  0  0  0  0  0  0  0
    7.2314   -0.5611   21.1290 C   0  0  0  0  0  0  0  0  0  0  0  0
    8.6326   -0.1621   21.2791 N   0  0  0  0  0  0  0  0  0  0  0  0
    8.9814    1.0700   21.7423 C   0  0  0  0  0  0  0  0  0  0  0  0
    8.1587    1.9551   21.8881 O   0  0  0  0  0  0  0  0  0  0  0  0
   10.4568    1.2320   21.9925 C   0  0  2  0  0  0  0  0  0  0  0  0
   11.3028    0.2471   22.7392 C   0  0  0  0  0  0  0  0  0  0  0  0
   10.9781    1.5689   23.3823 C   0  0  2  0  0  0  0  0  0  0  0  0
   10.0135    1.6020   24.5663 C   0  0  0  0  0  0  0  0  0  0  0  0
    9.3710    2.9901   24.6229 C   0  0  0  0  0  0  0  0  0  0  0  0
   10.3440    4.0451   24.6936 O   0  0  0  0  0  0  0  0  0  0  0  0
   11.5430    3.9056   24.0523 C   0  0  0  0  0  0  0  0  0  0  0  0
   12.3558    5.0440   24.0148 C   0  0  0  0  0  0  0  0  0  0  0  0
   13.5852    4.9958   23.3699 C   0  0  0  0  0  0  0  0  0  0  0  0
   14.0534    3.7965   22.8199 C   0  0  0  0  0  0  0  0  0  0  0  0
   13.2369    2.6696   22.8523 C   0  0  0  0  0  0  0  0  0  0  0  0
   11.9611    2.7035   23.4421 C   0  0  0  0  0  0  0  0  0  0  0  0
   13.5766    1.7497   22.3892 H   0  0  0  0  0  0  0  0  0  0  0  0
   15.0469    3.7332   22.3863 H   0  0  0  0  0  0  0  0  0  0  0  0
   14.1675    5.9034   23.2732 H   0  0  0  0  0  0  0  0  0  0  0  0
   11.9848    5.9490   24.4871 H   0  0  0  0  0  0  0  0  0  0  0  0
    8.7413    3.1354   23.7364 H   0  0  0  0  0  0  0  0  0  0  0  0
    8.7411    3.1136   25.5111 H   0  0  0  0  0  0  0  0  0  0  0  0
   10.5642    1.3948   25.4955 H   0  0  0  0  0  0  0  0  0  0  0  0
    9.2300    0.8431   24.4763 H   0  0  0  0  0  0  0  0  0  0  0  0
   12.3070    0.0399   22.3779 H   0  0  0  0  0  0  0  0  0  0  0  0
   10.8047   -0.6268   23.1604 H   0  0  0  0  0  0  0  0  0  0  0  0
   10.9316    1.7505   21.1628 H   0  0  0  0  0  0  0  0  0  0  0  0
    9.3427   -0.8743   21.3447 H   0  0  0  0  0  0  0  0  0  0  0  0
    6.6112    0.2414   20.0063 C   0  0  0  0  0  0  0  0  0  0  0  0
    5.3463    0.8273   20.1371 C   0  0  0  0  0  0  0  0  0  0  0  0
    4.7410    1.3761   19.0016 C   0  0  0  0  0  0  0  0  0  0  0  0
    5.4303    1.3220   17.7851 C   0  0  0  0  0  0  0  0  0  0  0  0
    6.6616    0.8028   17.6488 N   0  0  0  0  0  0  0  0  0  0  0  0
    7.2430    0.3189   18.7556 C   0  0  0  0  0  0  0  0  0  0  0  0
    8.2613   -0.0539   18.6308 H   0  0  0  0  0  0  0  0  0  0  0  0
    4.9779    1.7176   16.8781 H   0  0  0  0  0  0  0  0  0  0  0  0
    3.7644    1.8465   19.0502 H   0  0  0  0  0  0  0  0  0  0  0  0
    4.8540    0.8664   21.1129 H   0  0  0  0  0  0  0  0  0  0  0  0
    6.6574   -0.3875   22.0529 H   0  0  0  0  0  0  0  0  0  0  0  0
    7.8835   -2.2703   20.0713 H   0  0  0  0  0  0  0  0  0  0  0  0
    4.6879   -2.8351   18.8619 H   0  0  0  0  0  0  0  0  0  0  0  0
    6.3252   -2.2689   18.4162 H   0  0  0  0  0  0  0  0  0  0  0  0
    6.0644   -3.9522   18.9608 H   0  0  0  0  0  0  0  0  0  0  0  0
  1  2  1  0
  2  3  1  0
  3  4  1  0
  4  5  1  0
  5  6  1  0
  5  7  1  0
  5  8  1  0
  3  9  1  0
  9 10  1  0
 10 11  1  0
 11 12  2  0
 11 13  1  0
 13 14  1  0
 15 14  1  1
 15 16  1  0
 16 17  1  0
 17 18  1  0
 18 19  1  0
 19 20  2  0
 20 21  1  0
 21 22  2  0
 22 23  1  0
 23 24  2  0
 23 25  1  0
 22 26  1  0
 21 27  1  0
 20 28  1  0
 17 29  1  0
 17 30  1  0
 16 31  1  0
 16 32  1  0
 14 33  1  0
 14 34  1  0
 13 35  1  6
 10 36  1  0
  9 37  1  0
 37 38  2  0
 38 39  1  0
 39 40  2  0
 40 41  1  0
 41 42  2  0
 42 43  1  0
 40 44  1  0
 39 45  1  0
 38 46  1  0
  9 47  1  0
  3 48  1  0
  1 49  1  0
  1 50  1  0
  1 51  1  0
 15 13  1  0
 24 19  1  0
 42 37  1  0
 24 15  1  0
M  END
>  <plip>  (1) 
-0.10344827586206896

>  <filename>  (1) 
[H][c]1[n][c]([H])[c]([C]([H])([N]([H])[C](=[O])[C@]2([H])[C]([H])([H])[C@@]23[c]2[c]([H])[c]([H])[c]([H])[c]([H])[c]2[O][C]([H])([H])[C]3([H])[H])[C]([H])([O][C]([H])([H])[H])[O][C]([H])([H])[H])[c]([H])[c]1[H]

$$$$
