
     RDKit          3D

 28 29  0  0  0  0  0  0  0  0999 V2000
    4.9273    1.7847   16.9889 H   0  0  0  0  0  0  0  0  0  0  0  0
    5.4019    1.2945   17.8358 C   0  0  0  0  0  0  0  0  0  0  0  0
    6.5662    0.6769   17.5850 N   0  0  0  0  0  0  0  0  0  0  0  0
    7.1561    0.0559   18.6142 C   0  0  0  0  0  0  0  0  0  0  0  0
    8.1081   -0.4201   18.3801 H   0  0  0  0  0  0  0  0  0  0  0  0
    6.6372   -0.0053   19.9142 C   0  0  0  0  0  0  0  0  0  0  0  0
    7.4531   -0.6964   20.9823 C   0  0  1  0  0  0  0  0  0  0  0  0
    7.9488   -1.5521   20.5050 H   0  0  0  0  0  0  0  0  0  0  0  0
    8.5372    0.2285   21.5497 C   0  0  0  0  0  0  0  0  0  0  0  0
    9.8848   -0.1565   21.5397 C   0  0  0  0  0  0  0  0  0  0  0  0
   10.1595   -1.1186   21.1143 H   0  0  0  0  0  0  0  0  0  0  0  0
   10.8811    0.6627   22.0695 C   0  0  0  0  0  0  0  0  0  0  0  0
   11.9224    0.3547   22.0661 H   0  0  0  0  0  0  0  0  0  0  0  0
   10.5385    1.9066   22.6281 C   0  0  0  0  0  0  0  0  0  0  0  0
   11.5041    2.7072   23.1713 N   0  0  0  0  0  0  0  0  0  0  0  0
   11.2628    3.6096   23.5306 H   0  0  0  0  0  0  0  0  0  0  0  0
   12.4661    2.4354   23.1276 H   0  0  0  0  0  0  0  0  0  0  0  0
    9.1908    2.3113   22.6403 C   0  0  0  0  0  0  0  0  0  0  0  0
    8.9320    3.2729   23.0732 H   0  0  0  0  0  0  0  0  0  0  0  0
    8.2132    1.4765   22.1052 C   0  0  0  0  0  0  0  0  0  0  0  0
    7.1764    1.8088   22.1197 H   0  0  0  0  0  0  0  0  0  0  0  0
    6.5720   -1.2648   22.0107 N   0  0  0  0  0  0  0  0  0  0  0  0
    6.3169   -0.5100   22.6437 H   0  0  0  0  0  0  0  0  0  0  0  0
    7.1218   -1.8898   22.5902 H   0  0  0  0  0  0  0  0  0  0  0  0
    5.4253    0.6531   20.1540 C   0  0  0  0  0  0  0  0  0  0  0  0
    4.9830    0.6298   21.1527 H   0  0  0  0  0  0  0  0  0  0  0  0
    4.8004    1.3154   19.0979 C   0  0  0  0  0  0  0  0  0  0  0  0
    3.8710    1.8464   19.2487 H   0  0  0  0  0  0  0  0  0  0  0  0
  1  2  1  0
  2  3  2  0
  3  4  1  0
  4  5  1  0
  4  6  2  0
  6  7  1  0
  7  8  1  6
  7  9  1  0
  9 10  2  0
 10 11  1  0
 10 12  1  0
 12 13  1  0
 12 14  2  0
 14 15  1  0
 15 16  1  0
 15 17  1  0
 14 18  1  0
 18 19  1  0
 18 20  2  0
 20 21  1  0
  7 22  1  0
 22 23  1  0
 22 24  1  0
  6 25  1  0
 25 26  1  0
 25 27  2  0
 27 28  1  0
 27  2  1  0
 20  9  1  0
M  END
>  <plip>  (1) 
-0.03571428571428571

>  <filename>  (1) 
[H][c]1[n][c]([H])[c]([C@@]([H])([c]2[c]([H])[c]([H])[c]([N]([H])[H])[c]([H])[c]2[H])[N]([H])[H])[c]([H])[c]1[H]

$$$$
