
     RDKit          3D

 24 25  0  0  0  0  0  0  0  0999 V2000
    9.4503   -5.2579   23.7889 H   0  0  0  0  0  0  0  0  0  0  0  0
    8.8430   -4.5491   23.2417 C   0  0  0  0  0  0  0  0  0  0  0  0
    8.0387   -4.7859   22.2629 N   0  0  0  0  0  0  0  0  0  0  0  0
    7.5119   -3.5335   21.9537 C   0  0  0  0  0  0  0  0  0  0  0  0
    6.7958   -3.3647   21.1706 H   0  0  0  0  0  0  0  0  0  0  0  0
    8.0703   -2.6103   22.7821 C   0  0  0  0  0  0  0  0  0  0  0  0
    7.9651   -1.2548   23.0283 N   0  0  0  0  0  0  0  0  0  0  0  0
    8.7362   -0.8263   23.5064 H   0  0  0  0  0  0  0  0  0  0  0  0
    7.5975   -0.3907   22.0334 C   0  0  0  0  0  0  0  0  0  0  0  0
    7.2367   -0.7743   20.8919 N   0  0  0  0  0  0  0  0  0  0  0  0
    6.6518    0.0511   19.9076 C   0  0  0  0  0  0  0  0  0  0  0  0
    7.1757    0.0949   18.5858 C   0  0  0  0  0  0  0  0  0  0  0  0
    8.1124   -0.4212   18.3702 H   0  0  0  0  0  0  0  0  0  0  0  0
    6.5866    0.7293   17.5653 N   0  0  0  0  0  0  0  0  0  0  0  0
    5.4168    1.3528   17.8094 C   0  0  0  0  0  0  0  0  0  0  0  0
    4.9622    1.8533   16.9590 H   0  0  0  0  0  0  0  0  0  0  0  0
    4.8009    1.3623   19.0642 C   0  0  0  0  0  0  0  0  0  0  0  0
    3.8604    1.8860   19.2058 H   0  0  0  0  0  0  0  0  0  0  0  0
    5.4311    0.7047   20.1301 C   0  0  0  0  0  0  0  0  0  0  0  0
    4.9798    0.6501   21.1210 H   0  0  0  0  0  0  0  0  0  0  0  0
    7.7774    0.8599   22.5596 N   0  0  0  0  0  0  0  0  0  0  0  0
    7.4232    0.7884   23.4992 H   0  0  0  0  0  0  0  0  0  0  0  0
    7.2928    1.5374   21.9910 H   0  0  0  0  0  0  0  0  0  0  0  0
    8.9197   -3.2422   23.6164 O   0  0  0  0  0  0  0  0  0  0  0  0
  1  2  1  0
  2  3  2  0
  3  4  1  0
  4  5  1  0
  4  6  2  0
  6  7  1  0
  7  8  1  0
  7  9  1  0
  9 10  2  3
 10 11  1  0
 11 12  2  0
 12 13  1  0
 12 14  1  0
 14 15  2  0
 15 16  1  0
 15 17  1  0
 17 18  1  0
 17 19  2  0
 19 20  1  0
  9 21  1  0
 21 22  1  0
 21 23  1  0
  6 24  1  0
 24  2  1  0
 19 11  1  0
M  END
>  <plip>  (1) 
-0.034482758620689655

>  <filename>  (1) 
[H][c]1[n][c]([H])[c]([N]([H])[C](=[N][c]2[c]([H])[n][c]([H])[c]([H])[c]2[H])[N]([H])[H])[o]1

$$$$
