
     RDKit          3D

 42 42  0  0  0  0  0  0  0  0999 V2000
    7.0929    2.7977   26.3996 C   0  0  0  0  0  0  0  0  0  0  0  0
    8.2098    1.7681   26.5885 C   0  0  0  0  0  0  0  0  0  0  0  0
    7.9128    0.3732   26.0291 C   0  0  0  0  0  0  0  0  0  0  0  0
    9.0008   -0.6258   26.4344 C   0  0  0  0  0  0  0  0  0  0  0  0
    9.9703   -0.3426   26.0007 H   0  0  0  0  0  0  0  0  0  0  0  0
    9.1129   -0.6584   27.5241 H   0  0  0  0  0  0  0  0  0  0  0  0
    8.7583   -1.6339   26.0852 H   0  0  0  0  0  0  0  0  0  0  0  0
    7.7663    0.4318   24.5084 C   0  0  0  0  0  0  0  0  0  0  0  0
    7.4002   -1.1278   23.8058 S   0  0  0  0  0  0  0  0  0  0  0  0
    6.3251   -1.7566   24.5346 O   0  0  0  0  0  0  0  0  0  0  0  0
    8.6433   -1.8435   23.5648 O   0  0  0  0  0  0  0  0  0  0  0  0
    6.6654   -0.6419   22.4048 N   0  0  0  0  0  0  0  0  0  0  0  0
    7.4572   -0.5554   21.1886 C   0  0  0  0  0  0  0  0  0  0  0  0
    8.7401    0.2646   21.3710 C   0  0  0  0  0  0  0  0  0  0  0  0
    9.2331    0.3857   20.4017 H   0  0  0  0  0  0  0  0  0  0  0  0
    8.4905    1.2567   21.7610 H   0  0  0  0  0  0  0  0  0  0  0  0
    9.4386   -0.2322   22.0441 H   0  0  0  0  0  0  0  0  0  0  0  0
    7.7920   -1.9829   20.7871 C   0  0  0  0  0  0  0  0  0  0  0  0
    6.4337   -2.6690   20.5542 C   0  0  0  0  0  0  0  0  0  0  0  0
    6.0282   -2.8128   19.3994 O   0  0  0  0  0  0  0  0  0  0  0  0
    5.8364   -2.9610   21.6216 O   0  0  0  0  0  1  0  0  0  0  0  0
    8.4153   -1.9265   19.9055 H   0  0  0  0  0  0  0  0  0  0  0  0
    8.3358   -2.5079   21.5728 H   0  0  0  0  0  0  0  0  0  0  0  0
    6.6407    0.1213   20.0831 C   0  0  0  0  0  0  0  0  0  0  0  0
    5.4112    0.7669   20.2634 C   0  0  0  0  0  0  0  0  0  0  0  0
    4.7952    1.3681   19.1596 C   0  0  0  0  0  0  0  0  0  0  0  0
    5.4305    1.3126   17.9152 C   0  0  0  0  0  0  0  0  0  0  0  0
    6.5885    0.6680   17.7112 N   0  0  0  0  0  0  0  0  0  0  0  0
    7.1503    0.0806   18.7768 C   0  0  0  0  0  0  0  0  0  0  0  0
    8.0782   -0.4491   18.5509 H   0  0  0  0  0  0  0  0  0  0  0  0
    5.0003    1.8095   17.0469 H   0  0  0  0  0  0  0  0  0  0  0  0
    3.8512    1.8929   19.2647 H   0  0  0  0  0  0  0  0  0  0  0  0
    4.9579    0.7834   21.2547 H   0  0  0  0  0  0  0  0  0  0  0  0
    6.0570   -1.4892   22.3734 H   0  0  0  0  0  0  0  0  0  0  0  0
    6.9318    1.0479   24.1742 H   0  0  0  0  0  0  0  0  0  0  0  0
    8.6776    0.7423   24.0001 H   0  0  0  0  0  0  0  0  0  0  0  0
    6.9495    0.0253   26.4362 H   0  0  0  0  0  0  0  0  0  0  0  0
    8.4058    1.6566   27.6617 H   0  0  0  0  0  0  0  0  0  0  0  0
    9.1440    2.1327   26.1336 H   0  0  0  0  0  0  0  0  0  0  0  0
    6.9469    3.0572   25.3456 H   0  0  0  0  0  0  0  0  0  0  0  0
    7.3254    3.7240   26.9347 H   0  0  0  0  0  0  0  0  0  0  0  0
    6.1373    2.4185   26.7834 H   0  0  0  0  0  0  0  0  0  0  0  0
  1  2  1  0
  2  3  1  0
  3  4  1  0
  4  5  1  0
  4  6  1  0
  4  7  1  0
  3  8  1  0
  8  9  1  0
  9 10  2  0
  9 11  2  0
  9 12  1  0
 12 13  1  0
 13 14  1  0
 14 15  1  0
 14 16  1  0
 14 17  1  0
 13 18  1  0
 18 19  1  0
 19 20  2  0
 19 21  1  0
 18 22  1  0
 18 23  1  0
 13 24  1  0
 24 25  2  0
 25 26  1  0
 26 27  2  0
 27 28  1  0
 28 29  2  0
 29 30  1  0
 27 31  1  0
 26 32  1  0
 25 33  1  0
 12 34  1  0
  8 35  1  0
  8 36  1  0
  3 37  1  0
  2 38  1  0
  2 39  1  0
  1 40  1  0
  1 41  1  0
  1 42  1  0
 29 24  1  0
M  CHG  1  21  -1
M  END
>  <plip>  (1) 
-0.20689655172413793

>  <filename>  (1) 
[H][c]1[n][c]([H])[c]([C]([N]([H])[S](=[O])(=[O])[C]([H])([H])[C]([H])([C]([H])([H])[H])[C]([H])([H])[C]([H])([H])[H])([C]([H])([H])[H])[C]([H])([H])[C](=[O])[O-])[c]([H])[c]1[H]

$$$$
