
     RDKit          3D

 35 37  0  0  0  0  0  0  0  0999 V2000
    4.9359    1.7969   17.0252 H   0  0  0  0  0  0  0  0  0  0  0  0
    5.4343    1.2890   17.8518 C   0  0  0  0  0  0  0  0  0  0  0  0
    6.6044    0.6931   17.5655 N   0  0  0  0  0  0  0  0  0  0  0  0
    7.2359    0.0523   18.5548 C   0  0  0  0  0  0  0  0  0  0  0  0
    8.1981   -0.4109   18.3302 H   0  0  0  0  0  0  0  0  0  0  0  0
    6.7266   -0.0690   19.8607 C   0  0  0  0  0  0  0  0  0  0  0  0
    7.4216   -0.7890   20.8596 N   0  0  0  0  0  0  0  0  0  0  0  0
    6.8109   -1.6750   21.7546 C   0  0  0  0  0  0  0  0  0  0  0  0
    5.7226   -2.1902   21.6703 O   0  0  0  0  0  0  0  0  0  0  0  0
    7.7303   -1.8932   22.7491 N   0  0  0  0  0  0  0  0  0  0  0  0
    7.4874   -2.6646   23.3507 H   0  0  0  0  0  0  0  0  0  0  0  0
    9.0826   -1.5774   22.3276 C   0  0  0  0  0  0  0  0  0  0  0  0
    9.6144   -1.0056   23.0950 H   0  0  0  0  0  0  0  0  0  0  0  0
    9.6687   -2.4616   22.0480 H   0  0  0  0  0  0  0  0  0  0  0  0
    8.8638   -0.7292   21.0548 C   0  0  2  0  0  0  0  0  0  0  0  0
    9.3887   -1.1706   20.1987 H   0  0  0  0  0  0  0  0  0  0  0  0
    9.5825    0.9445   21.1201 S   0  0  0  0  0  0  0  0  0  0  0  0
    8.5010    1.7769   22.3261 C   0  0  0  0  0  0  0  0  0  0  0  0
    8.7486    2.8402   22.2098 H   0  0  0  0  0  0  0  0  0  0  0  0
    7.4703    1.6456   21.9889 H   0  0  0  0  0  0  0  0  0  0  0  0
    8.6885    1.3436   23.7633 C   0  0  0  0  0  0  0  0  0  0  0  0
    7.6390    0.7646   24.4970 C   0  0  0  0  0  0  0  0  0  0  0  0
    6.6676    0.6136   24.0334 H   0  0  0  0  0  0  0  0  0  0  0  0
    7.8344    0.3559   25.8224 C   0  0  0  0  0  0  0  0  0  0  0  0
    7.0138   -0.0888   26.3785 H   0  0  0  0  0  0  0  0  0  0  0  0
    9.0785    0.5161   26.4334 C   0  0  0  0  0  0  0  0  0  0  0  0
    9.2342    0.1891   27.4589 H   0  0  0  0  0  0  0  0  0  0  0  0
   10.1256    1.0968   25.7114 C   0  0  0  0  0  0  0  0  0  0  0  0
   11.0905    1.2296   26.1773 H   0  0  0  0  0  0  0  0  0  0  0  0
    9.9354    1.5129   24.3925 C   0  0  0  0  0  0  0  0  0  0  0  0
   10.7597    1.9652   23.8449 H   0  0  0  0  0  0  0  0  0  0  0  0
    5.5140    0.5689   20.1537 C   0  0  0  0  0  0  0  0  0  0  0  0
    5.1030    0.5154   21.1642 H   0  0  0  0  0  0  0  0  0  0  0  0
    4.8616    1.2669   19.1290 C   0  0  0  0  0  0  0  0  0  0  0  0
    3.9282    1.7873   19.3054 H   0  0  0  0  0  0  0  0  0  0  0  0
  1  2  1  0
  2  3  2  0
  3  4  1  0
  4  5  1  0
  4  6  2  0
  6  7  1  0
  7  8  1  0
  8  9  2  0
  8 10  1  0
 10 11  1  0
 10 12  1  0
 12 13  1  0
 12 14  1  0
 12 15  1  0
 15 16  1  6
 15 17  1  0
 17 18  1  0
 18 19  1  0
 18 20  1  0
 18 21  1  0
 21 22  2  0
 22 23  1  0
 22 24  1  0
 24 25  1  0
 24 26  2  0
 26 27  1  0
 26 28  1  0
 28 29  1  0
 28 30  2  0
 30 31  1  0
  6 32  1  0
 32 33  1  0
 32 34  2  0
 34 35  1  0
 34  2  1  0
 15  7  1  0
 30 21  1  0
M  END
>  <plip>  (1) 
-0.10714285714285714

>  <filename>  (1) 
[H][c]1[n][c]([H])[c]([N]2[C](=[O])[N]([H])[C]([H])([H])[C@]2([H])[S][C]([H])([H])[c]2[c]([H])[c]([H])[c]([H])[c]([H])[c]2[H])[c]([H])[c]1[H]

$$$$
