
     RDKit          3D

 43 43  0  0  0  0  0  0  0  0999 V2000
    8.9095   -1.6955   24.4114 C   0  0  0  0  0  0  0  0  0  0  0  0
    9.2869   -1.4143   23.3009 C   0  0  0  0  0  0  0  0  0  0  0  0
    9.6604   -1.0412   21.9245 C   0  0  0  0  0  0  0  0  0  0  0  0
    8.6949   -0.1246   21.3051 N   0  0  0  0  0  0  0  0  0  0  0  0
    7.3679   -0.6895   21.0197 C   0  0  0  0  0  0  0  0  0  0  0  0
    6.6329    0.0450   19.9372 C   0  0  0  0  0  0  0  0  0  0  0  0
    5.3997    0.6800   20.1427 C   0  0  0  0  0  0  0  0  0  0  0  0
    4.7767    1.3257   19.0689 C   0  0  0  0  0  0  0  0  0  0  0  0
    5.4111    1.2999   17.8240 C   0  0  0  0  0  0  0  0  0  0  0  0
    6.5834    0.6857   17.6052 N   0  0  0  0  0  0  0  0  0  0  0  0
    7.1793    0.0941   18.6494 C   0  0  0  0  0  0  0  0  0  0  0  0
    8.1382   -0.3777   18.4341 H   0  0  0  0  0  0  0  0  0  0  0  0
    4.9544    1.7892   16.9660 H   0  0  0  0  0  0  0  0  0  0  0  0
    3.8349    1.8544   19.1909 H   0  0  0  0  0  0  0  0  0  0  0  0
    4.9328    0.6761   21.1321 H   0  0  0  0  0  0  0  0  0  0  0  0
    7.5490   -1.7236   20.6823 H   0  0  0  0  0  0  0  0  0  0  0  0
    6.7344   -0.7720   21.9241 H   0  0  0  0  0  0  0  0  0  0  0  0
    8.7840    1.4719   21.8147 S   0  0  0  0  0  0  0  0  0  0  0  0
    8.3416    2.2938   20.7124 O   0  0  0  0  0  0  0  0  0  0  0  0
   10.1042    1.6407   22.3952 O   0  0  0  0  0  0  0  0  0  0  0  0
    7.5859    1.6052   23.1497 C   0  0  0  0  0  0  0  0  0  0  0  0
    7.8441    2.7764   24.1389 C   0  0  0  0  0  0  0  0  0  0  0  0
    6.9086    2.6606   25.3495 C   0  0  0  0  0  0  0  0  0  0  0  0
    5.8558    2.7742   25.0578 H   0  0  0  0  0  0  0  0  0  0  0  0
    7.1306    3.4394   26.0891 H   0  0  0  0  0  0  0  0  0  0  0  0
    7.0146    1.6919   25.8520 H   0  0  0  0  0  0  0  0  0  0  0  0
    7.6957    4.1421   23.4513 C   0  0  0  0  0  0  0  0  0  0  0  0
    8.0460    5.1836   24.3438 O   0  0  0  0  0  0  0  0  0  0  0  0
    7.7172    6.4875   23.8945 C   0  0  0  0  0  0  0  0  0  0  0  0
    6.3437    6.9258   24.3906 C   0  0  0  0  0  0  0  0  0  0  0  0
    6.1074    7.9373   24.0444 H   0  0  0  0  0  0  0  0  0  0  0  0
    5.5575    6.2592   24.0198 H   0  0  0  0  0  0  0  0  0  0  0  0
    6.3022    6.9255   25.4843 H   0  0  0  0  0  0  0  0  0  0  0  0
    7.7710    6.5555   22.7942 H   0  0  0  0  0  0  0  0  0  0  0  0
    8.4925    7.1515   24.2887 H   0  0  0  0  0  0  0  0  0  0  0  0
    6.6513    4.2582   23.1096 H   0  0  0  0  0  0  0  0  0  0  0  0
    8.3383    4.1729   22.5584 H   0  0  0  0  0  0  0  0  0  0  0  0
    8.8792    2.7006   24.5000 H   0  0  0  0  0  0  0  0  0  0  0  0
    7.6402    0.6365   23.6618 H   0  0  0  0  0  0  0  0  0  0  0  0
    6.6217    1.7007   22.6355 H   0  0  0  0  0  0  0  0  0  0  0  0
   10.6481   -0.5760   21.9067 H   0  0  0  0  0  0  0  0  0  0  0  0
    9.7212   -1.9315   21.2817 H   0  0  0  0  0  0  0  0  0  0  0  0
    8.5457   -1.9226   25.3896 H   0  0  0  0  0  0  0  0  0  0  0  0
  1  2  3  0
  2  3  1  0
  3  4  1  0
  4  5  1  0
  5  6  1  0
  6  7  2  0
  7  8  1  0
  8  9  2  0
  9 10  1  0
 10 11  2  0
 11 12  1  0
  9 13  1  0
  8 14  1  0
  7 15  1  0
  5 16  1  0
  5 17  1  0
  4 18  1  0
 18 19  2  0
 18 20  2  0
 18 21  1  0
 21 22  1  0
 22 23  1  0
 23 24  1  0
 23 25  1  0
 23 26  1  0
 22 27  1  0
 27 28  1  0
 28 29  1  0
 29 30  1  0
 30 31  1  0
 30 32  1  0
 30 33  1  0
 29 34  1  0
 29 35  1  0
 27 36  1  0
 27 37  1  0
 22 38  1  0
 21 39  1  0
 21 40  1  0
  3 41  1  0
  3 42  1  0
  1 43  1  0
 11  6  1  0
M  END
>  <plip>  (1) 
-0.03571428571428571

>  <filename>  (1) 
[H][C]#[C][C]([H])([H])[N]([C]([H])([H])[c]1[c]([H])[n][c]([H])[c]([H])[c]1[H])[S](=[O])(=[O])[C]([H])([H])[C]([H])([C]([H])([H])[H])[C]([H])([H])[O][C]([H])([H])[C]([H])([H])[H]

$$$$
