
     RDKit          3D

 47 51  0  0  0  0  0  0  0  0999 V2000
    4.7829    1.3053   19.0842 C   0  0  0  0  0  0  0  0  0  0  0  0
    5.3982    1.2946   17.8293 C   0  0  0  0  0  0  0  0  0  0  0  0
    6.5695    0.6850   17.5857 N   0  0  0  0  0  0  0  0  0  0  0  0
    7.1638    0.0740   18.6167 C   0  0  0  0  0  0  0  0  0  0  0  0
    6.6280    0.0001   19.9078 C   0  0  0  0  0  0  0  0  0  0  0  0
    7.4709   -0.6626   20.9736 C   0  0  0  0  0  0  0  0  0  0  0  0
    6.6786   -1.0907   22.2196 C   0  0  0  0  0  0  0  0  0  0  0  0
    7.4698   -1.9928   23.1709 C   0  0  0  0  0  0  0  0  0  0  0  0
    7.8108   -3.3842   22.6043 C   0  0  0  0  0  0  0  0  0  0  0  0
    7.8935   -4.2725   23.8576 C   0  0  0  0  0  0  0  0  0  0  0  0
    7.2132   -3.5913   24.9028 O   0  0  0  0  0  0  0  0  0  0  0  0
    6.7033   -2.3508   24.4507 C   0  0  0  0  0  0  0  0  0  0  0  0
    6.8432   -1.6123   25.2495 H   0  0  0  0  0  0  0  0  0  0  0  0
    5.6185   -2.4242   24.2623 H   0  0  0  0  0  0  0  0  0  0  0  0
    8.9318   -4.4449   24.1701 H   0  0  0  0  0  0  0  0  0  0  0  0
    7.4309   -5.2574   23.7101 H   0  0  0  0  0  0  0  0  0  0  0  0
    8.7407   -3.4035   22.0214 H   0  0  0  0  0  0  0  0  0  0  0  0
    7.0090   -3.7329   21.9373 H   0  0  0  0  0  0  0  0  0  0  0  0
    8.3999   -1.4840   23.4704 H   0  0  0  0  0  0  0  0  0  0  0  0
    5.7856   -1.6322   21.8693 H   0  0  0  0  0  0  0  0  0  0  0  0
    6.3411   -0.1936   22.7525 H   0  0  0  0  0  0  0  0  0  0  0  0
    8.6122    0.1864   21.2751 N   0  0  0  0  0  0  0  0  0  0  0  0
    8.5583    1.3866   21.8663 C   0  0  0  0  0  0  0  0  0  0  0  0
    7.3800    1.9584   22.0795 N   0  0  0  0  0  0  0  0  0  0  0  0
    7.3960    3.1959   22.6066 C   0  0  0  0  0  0  0  0  0  0  0  0
    8.4489    3.8904   22.9903 N   0  0  0  0  0  0  0  0  0  0  0  0
    9.6235    3.2623   22.7866 C   0  0  0  0  0  0  0  0  0  0  0  0
    9.7622    2.0126   22.2335 C   0  0  0  0  0  0  0  0  0  0  0  0
   11.0789    1.6019   22.1582 O   0  0  0  0  0  0  0  0  0  0  0  0
   11.7900    2.6484   22.6855 C   0  0  0  0  0  0  0  0  0  0  0  0
   13.1777    2.7112   22.7954 C   0  0  0  0  0  0  0  0  0  0  0  0
   13.7157    3.8947   23.2995 C   0  0  0  0  0  0  0  0  0  0  0  0
   12.9008    4.9456   23.7544 C   0  0  0  0  0  0  0  0  0  0  0  0
   11.5110    4.8732   23.6520 C   0  0  0  0  0  0  0  0  0  0  0  0
   10.9570    3.7073   23.0963 C   0  0  0  0  0  0  0  0  0  0  0  0
   10.8879    5.7085   23.9716 H   0  0  0  0  0  0  0  0  0  0  0  0
   13.3779    5.8217   24.1783 H   0  0  0  0  0  0  0  0  0  0  0  0
   14.7855    4.0578   23.3158 H   0  0  0  0  0  0  0  0  0  0  0  0
   13.7836    1.8680   22.4854 H   0  0  0  0  0  0  0  0  0  0  0  0
    6.4277    3.6781   22.7415 H   0  0  0  0  0  0  0  0  0  0  0  0
    9.5473   -0.1738   21.2301 H   0  0  0  0  0  0  0  0  0  0  0  0
    7.9031   -1.5708   20.5299 H   0  0  0  0  0  0  0  0  0  0  0  0
    5.4047    0.6384   20.1421 C   0  0  0  0  0  0  0  0  0  0  0  0
    4.9754    0.6632   21.1467 H   0  0  0  0  0  0  0  0  0  0  0  0
    8.1192   -0.4016   18.3836 H   0  0  0  0  0  0  0  0  0  0  0  0
    4.9362    1.7937   16.9806 H   0  0  0  0  0  0  0  0  0  0  0  0
    3.8579    1.8519   19.2350 H   0  0  0  0  0  0  0  0  0  0  0  0
  1  2  2  0
  2  3  1  0
  3  4  2  0
  4  5  1  0
  5  6  1  0
  6  7  1  0
  7  8  1  0
  8  9  1  0
  9 10  1  0
 10 11  1  0
 11 12  1  0
 12 13  1  0
 12 14  1  0
 10 15  1  0
 10 16  1  0
  9 17  1  0
  9 18  1  0
  8 19  1  0
  7 20  1  0
  7 21  1  0
  6 22  1  0
 22 23  1  0
 23 24  2  0
 24 25  1  0
 25 26  2  0
 26 27  1  0
 27 28  2  0
 28 29  1  0
 29 30  1  0
 30 31  2  0
 31 32  1  0
 32 33  2  0
 33 34  1  0
 34 35  2  0
 34 36  1  0
 33 37  1  0
 32 38  1  0
 31 39  1  0
 25 40  1  0
 22 41  1  0
  6 42  1  0
  5 43  2  0
 43 44  1  0
  4 45  1  0
  2 46  1  0
  1 47  1  0
 43  1  1  0
 12  8  1  0
 28 23  1  0
 35 30  1  0
 35 27  1  0
M  END
>  <plip>  (1) 
-0.034482758620689655

>  <filename>  (1) 
[H][c]1[n][c]([N]([H])[C]([H])([c]2[c]([H])[n][c]([H])[c]([H])[c]2[H])[C]([H])([H])[C]2([H])[C]([H])([H])[O][C]([H])([H])[C]2([H])[H])[c]2[o][c]3[c]([H])[c]([H])[c]([H])[c]([H])[c]3[c]2[n]1

$$$$
