
     RDKit          3D

 34 36  0  0  0  0  0  0  0  0999 V2000
    4.9226    1.7906   16.9919 H   0  0  0  0  0  0  0  0  0  0  0  0
    5.4017    1.2920   17.8324 C   0  0  0  0  0  0  0  0  0  0  0  0
    6.5650    0.6756   17.5748 N   0  0  0  0  0  0  0  0  0  0  0  0
    7.1744    0.0580   18.5947 C   0  0  0  0  0  0  0  0  0  0  0  0
    8.1229   -0.4205   18.3459 H   0  0  0  0  0  0  0  0  0  0  0  0
    6.6678    0.0027   19.9066 C   0  0  0  0  0  0  0  0  0  0  0  0
    7.3897   -0.7222   21.0169 C   0  0  0  0  0  0  0  0  0  0  0  0
    8.3225   -1.1594   20.6448 H   0  0  0  0  0  0  0  0  0  0  0  0
    6.5541   -1.7574   21.8372 C   0  0  0  0  0  0  0  0  0  0  0  0
    6.9700   -2.7631   21.9303 H   0  0  0  0  0  0  0  0  0  0  0  0
    5.5046   -1.8565   21.5400 H   0  0  0  0  0  0  0  0  0  0  0  0
    6.7792   -0.9357   23.0244 N   0  0  0  0  0  0  0  0  0  0  0  0
    6.3836   -0.9561   24.3271 C   0  0  0  0  0  0  0  0  0  0  0  0
    6.7195   -0.0673   25.0994 O   0  0  0  0  0  0  0  0  0  0  0  0
    5.4789   -2.1941   24.7971 C   0  0  0  0  0  0  0  0  0  0  0  0
    5.4024   -3.1930   24.1022 O   0  0  0  0  0  0  0  0  0  0  0  0
    4.7440   -2.1277   26.1207 C   0  0  0  0  0  0  0  0  0  0  0  0
    4.2116   -0.9328   26.6482 C   0  0  0  0  0  0  0  0  0  0  0  0
    4.3443    0.0122   26.1247 H   0  0  0  0  0  0  0  0  0  0  0  0
    3.5111   -0.9405   27.8593 C   0  0  0  0  0  0  0  0  0  0  0  0
    3.0921   -0.0395   28.2918 H   0  0  0  0  0  0  0  0  0  0  0  0
    3.3514   -2.1401   28.5446 C   0  0  0  0  0  0  0  0  0  0  0  0
    2.6812   -2.1465   29.7078 F   0  0  0  0  0  0  0  0  0  0  0  0
    3.8637   -3.3388   28.0557 C   0  0  0  0  0  0  0  0  0  0  0  0
    3.7029   -4.2476   28.6244 H   0  0  0  0  0  0  0  0  0  0  0  0
    4.5525   -3.3280   26.8430 C   0  0  0  0  0  0  0  0  0  0  0  0
    4.9441   -4.2605   26.4441 H   0  0  0  0  0  0  0  0  0  0  0  0
    7.6035    0.0623   22.3520 C   0  0  0  0  0  0  0  0  0  0  0  0
    7.2109    1.0864   22.3706 H   0  0  0  0  0  0  0  0  0  0  0  0
    8.6320    0.1046   22.7280 H   0  0  0  0  0  0  0  0  0  0  0  0
    5.4479    0.6513   20.1475 C   0  0  0  0  0  0  0  0  0  0  0  0
    5.0138    0.6374   21.1489 H   0  0  0  0  0  0  0  0  0  0  0  0
    4.8099    1.3090   19.0980 C   0  0  0  0  0  0  0  0  0  0  0  0
    3.8795    1.8380   19.2530 H   0  0  0  0  0  0  0  0  0  0  0  0
  1  2  1  0
  2  3  2  0
  3  4  1  0
  4  5  1  0
  4  6  2  0
  6  7  1  0
  7  8  1  0
  7  9  1  0
  9 10  1  0
  9 11  1  0
  9 12  1  0
 12 13  1  0
 13 14  2  0
 13 15  1  0
 15 16  2  0
 15 17  1  0
 17 18  2  0
 18 19  1  0
 18 20  1  0
 20 21  1  0
 20 22  2  0
 22 23  1  0
 22 24  1  0
 24 25  1  0
 24 26  2  0
 26 27  1  0
 12 28  1  0
 28 29  1  0
 28 30  1  0
  6 31  1  0
 31 32  1  0
 31 33  2  0
 33 34  1  0
 33  2  1  0
 28  7  1  0
 26 17  1  0
M  END
>  <plip>  (1) 
-0.03571428571428571

>  <filename>  (1) 
[H][c]1[n][c]([H])[c]([C]2([H])[C]([H])([H])[N]([C](=[O])[C](=[O])[c]3[c]([H])[c]([H])[c]([F])[c]([H])[c]3[H])[C]2([H])[H])[c]([H])[c]1[H]

$$$$
