
     RDKit          3D

 33 34  0  0  0  0  0  0  0  0999 V2000
    5.6790   -1.7873   21.4874 H   0  0  0  0  0  0  0  0  0  0  0  0
    6.7262   -1.5852   21.7244 C   0  0  0  0  0  0  0  0  0  0  0  0
    7.3859   -0.7058   20.9669 C   0  0  0  0  0  0  0  0  0  0  0  0
    6.6580    0.0187   19.8965 C   0  0  0  0  0  0  0  0  0  0  0  0
    7.1724    0.0772   18.5924 C   0  0  0  0  0  0  0  0  0  0  0  0
    8.1149   -0.4223   18.3766 H   0  0  0  0  0  0  0  0  0  0  0  0
    6.5621    0.6798   17.5656 N   0  0  0  0  0  0  0  0  0  0  0  0
    5.4001    1.2957   17.8340 C   0  0  0  0  0  0  0  0  0  0  0  0
    4.9113    1.7813   16.9942 H   0  0  0  0  0  0  0  0  0  0  0  0
    4.8026    1.3174   19.1022 C   0  0  0  0  0  0  0  0  0  0  0  0
    3.8687    1.8468   19.2578 H   0  0  0  0  0  0  0  0  0  0  0  0
    5.4314    0.6485   20.1491 C   0  0  0  0  0  0  0  0  0  0  0  0
    5.0144    0.6261   21.1614 H   0  0  0  0  0  0  0  0  0  0  0  0
    8.8485   -0.3988   21.1678 C   0  0  0  0  0  0  0  0  0  0  0  0
    9.2024    0.3620   20.4680 H   0  0  0  0  0  0  0  0  0  0  0  0
    9.0227   -0.0235   22.1852 H   0  0  0  0  0  0  0  0  0  0  0  0
    9.4570   -1.3040   21.0447 H   0  0  0  0  0  0  0  0  0  0  0  0
    7.3319   -2.4365   22.8032 C   0  0  0  0  0  0  0  0  0  0  0  0
    8.1970   -1.9040   23.2324 H   0  0  0  0  0  0  0  0  0  0  0  0
    7.8358   -3.7694   22.2162 C   0  0  0  0  0  0  0  0  0  0  0  0
    8.6101   -3.5868   21.4608 H   0  0  0  0  0  0  0  0  0  0  0  0
    7.0063   -4.2737   21.7017 H   0  0  0  0  0  0  0  0  0  0  0  0
    8.3573   -4.6887   23.3211 C   0  0  0  0  0  0  0  0  0  0  0  0
    9.2546   -4.2474   23.7737 H   0  0  0  0  0  0  0  0  0  0  0  0
    8.6644   -5.6568   22.9114 H   0  0  0  0  0  0  0  0  0  0  0  0
    7.3809   -4.9104   24.3926 N   0  0  0  0  0  0  0  0  0  0  0  0
    6.5686   -5.3538   23.9685 H   0  0  0  0  0  0  0  0  0  0  0  0
    6.9155   -3.6482   24.9769 C   0  0  0  0  0  0  0  0  0  0  0  0
    7.7696   -3.1727   25.4750 H   0  0  0  0  0  0  0  0  0  0  0  0
    6.1821   -3.8608   25.7610 H   0  0  0  0  0  0  0  0  0  0  0  0
    6.3323   -2.6872   23.9415 C   0  0  0  0  0  0  0  0  0  0  0  0
    6.0458   -1.7371   24.4074 H   0  0  0  0  0  0  0  0  0  0  0  0
    5.4175   -3.1317   23.5266 H   0  0  0  0  0  0  0  0  0  0  0  0
  1  2  1  0
  2  3  2  3
  3  4  1  0
  4  5  2  0
  5  6  1  0
  5  7  1  0
  7  8  2  0
  8  9  1  0
  8 10  1  0
 10 11  1  0
 10 12  2  0
 12 13  1  0
  3 14  1  0
 14 15  1  0
 14 16  1  0
 14 17  1  0
  2 18  1  0
 18 19  1  0
 18 20  1  0
 20 21  1  0
 20 22  1  0
 20 23  1  0
 23 24  1  0
 23 25  1  0
 23 26  1  0
 26 27  1  0
 26 28  1  0
 28 29  1  0
 28 30  1  0
 28 31  1  0
 31 32  1  0
 31 33  1  0
 12  4  1  0
 31 18  1  0
M  END
>  <plip>  (1) 
-0.03571428571428571

>  <filename>  (1) 
[H][C](=[C]([c]1[c]([H])[n][c]([H])[c]([H])[c]1[H])[C]([H])([H])[H])[C]1([H])[C]([H])([H])[C]([H])([H])[N]([H])[C]([H])([H])[C]1([H])[H]

$$$$
