
     RDKit          3D

 40 42  0  0  0  0  0  0  0  0999 V2000
    4.9128    1.7961   16.9865 H   0  0  0  0  0  0  0  0  0  0  0  0
    5.3932    1.3017   17.8283 C   0  0  0  0  0  0  0  0  0  0  0  0
    6.5513    0.6803   17.5591 N   0  0  0  0  0  0  0  0  0  0  0  0
    7.1698    0.0651   18.5738 C   0  0  0  0  0  0  0  0  0  0  0  0
    8.1093   -0.4338   18.3457 H   0  0  0  0  0  0  0  0  0  0  0  0
    6.6640    0.0129   19.8928 C   0  0  0  0  0  0  0  0  0  0  0  0
    7.3353   -0.6968   20.9397 N   0  0  0  0  0  0  0  0  0  0  0  0
    6.8199   -1.7165   21.7100 C   0  0  0  0  0  0  0  0  0  0  0  0
    5.8194   -2.0964   21.5767 H   0  0  0  0  0  0  0  0  0  0  0  0
    7.7103   -2.1711   22.5469 N   0  0  0  0  0  0  0  0  0  0  0  0
    8.8474   -1.4232   22.3809 N   0  0  0  0  0  0  0  0  0  0  0  0
    8.6166   -0.5395   21.4350 C   0  0  0  0  0  0  0  0  0  0  0  0
    9.5772    0.5512   21.0001 C   0  0  0  0  0  0  0  0  0  0  0  0
    9.3982    0.7991   19.9475 H   0  0  0  0  0  0  0  0  0  0  0  0
   10.5876    0.1315   21.0417 H   0  0  0  0  0  0  0  0  0  0  0  0
    9.5587    1.7957   21.7789 N   0  0  0  0  0  0  0  0  0  0  0  0
    8.2469    2.4511   21.8197 C   0  0  0  0  0  0  0  0  0  0  0  0
    7.3989    1.7491   21.9105 H   0  0  0  0  0  0  0  0  0  0  0  0
    8.1001    2.9732   20.8872 H   0  0  0  0  0  0  0  0  0  0  0  0
    8.3237    3.3987   23.0080 C   0  0  0  0  0  0  0  0  0  0  0  0
    7.3320    3.6082   23.4179 H   0  0  0  0  0  0  0  0  0  0  0  0
    8.7538    4.3610   22.7165 H   0  0  0  0  0  0  0  0  0  0  0  0
    9.2387    2.6760   24.0237 C   0  0  1  0  0  0  0  0  0  0  0  0
    9.9587    3.3894   24.4345 H   0  0  0  0  0  0  0  0  0  0  0  0
    8.5509    2.0802   25.1855 N   0  0  0  0  0  0  0  0  0  0  0  0
    7.4014    1.2392   24.8588 C   0  0  0  0  0  0  0  0  0  0  0  0
    7.1405    0.6394   25.7364 H   0  0  0  0  0  0  0  0  0  0  0  0
    6.4979    1.8094   24.5733 H   0  0  0  0  0  0  0  0  0  0  0  0
    7.6209    0.5469   24.0408 H   0  0  0  0  0  0  0  0  0  0  0  0
    8.2047    3.0760   26.1884 C   0  0  0  0  0  0  0  0  0  0  0  0
    9.1069    3.6020   26.5191 H   0  0  0  0  0  0  0  0  0  0  0  0
    7.4791    3.8381   25.8395 H   0  0  0  0  0  0  0  0  0  0  0  0
    7.7730    2.5863   27.0680 H   0  0  0  0  0  0  0  0  0  0  0  0
   10.0170    1.6421   23.1735 C   0  0  0  0  0  0  0  0  0  0  0  0
    9.8235    0.6268   23.5449 H   0  0  0  0  0  0  0  0  0  0  0  0
   11.1012    1.7975   23.2274 H   0  0  0  0  0  0  0  0  0  0  0  0
    5.4423    0.6435   20.1568 C   0  0  0  0  0  0  0  0  0  0  0  0
    5.0311    0.6185   21.1718 H   0  0  0  0  0  0  0  0  0  0  0  0
    4.8077    1.3089   19.1001 C   0  0  0  0  0  0  0  0  0  0  0  0
    3.8786    1.8396   19.2567 H   0  0  0  0  0  0  0  0  0  0  0  0
  1  2  1  0
  2  3  2  0
  3  4  1  0
  4  5  1  0
  4  6  2  0
  6  7  1  0
  7  8  1  0
  8  9  1  0
  8 10  2  0
 10 11  1  0
 11 12  2  0
 12 13  1  0
 13 14  1  0
 13 15  1  0
 13 16  1  0
 16 17  1  0
 17 18  1  0
 17 19  1  0
 17 20  1  0
 20 21  1  0
 20 22  1  0
 20 23  1  0
 23 24  1  1
 23 25  1  0
 25 26  1  0
 26 27  1  0
 26 28  1  0
 26 29  1  0
 25 30  1  0
 30 31  1  0
 30 32  1  0
 30 33  1  0
 23 34  1  0
 34 35  1  0
 34 36  1  0
  6 37  1  0
 37 38  1  0
 37 39  2  0
 39 40  1  0
 39  2  1  0
 12  7  1  0
 34 16  1  0
M  END
>  <plip>  (1) 
-0.07142857142857142

>  <filename>  (1) 
[H][c]1[n][c]([H])[c](-[n]2[c]([H])[n][n][c]2[C]([H])([H])[N]2[C]([H])([H])[C]([H])([H])[C@@]([H])([N]([C]([H])([H])[H])[C]([H])([H])[H])[C]2([H])[H])[c]([H])[c]1[H]

$$$$
