
     RDKit          3D

 47 49  0  0  0  0  0  0  0  0999 V2000
    8.0515   -3.7892   21.8161 C   0  0  0  0  0  0  0  0  0  0  0  0
    7.2709   -2.7612   22.3806 O   0  0  0  0  0  0  0  0  0  0  0  0
    6.6121   -1.9558   21.4253 C   0  0  0  0  0  0  0  0  0  0  0  0
    7.4054   -0.6993   21.0147 C   0  0  2  0  0  0  0  0  0  0  0  0
    7.6573    0.1855   22.1526 N   0  0  0  0  0  0  0  0  0  0  0  0
    8.5143    1.2431   22.0293 C   0  0  0  0  0  0  0  0  0  0  0  0
    9.2078    1.3729   21.0341 O   0  0  0  0  0  0  0  0  0  0  0  0
    8.6391    2.1973   23.2427 C   0  0  0  0  0  0  0  0  0  0  0  0
    8.1464    3.4846   22.8883 O   0  0  0  0  0  0  0  0  0  0  0  0
    8.2281    4.5527   23.7443 C   0  0  0  0  0  0  0  0  0  0  0  0
    8.7615    4.5122   25.0459 C   0  0  0  0  0  0  0  0  0  0  0  0
    8.7734    5.6727   25.8280 C   0  0  0  0  0  0  0  0  0  0  0  0
    8.2645    6.8706   25.3241 C   0  0  0  0  0  0  0  0  0  0  0  0
    8.3142    7.9627   26.1448 O   0  0  0  0  0  0  0  0  0  0  0  0
    7.8454    9.2021   25.7473 C   0  0  0  0  0  0  0  0  0  0  0  0
    7.9301   10.1154   26.5233 O   0  0  0  0  0  0  0  0  0  0  0  0
    7.2820    9.2922   24.3983 C   0  0  0  0  0  0  0  0  0  0  0  0
    7.2067    8.2360   23.5656 C   0  0  0  0  0  0  0  0  0  0  0  0
    6.6044    8.3706   22.1895 C   0  0  0  0  0  0  0  0  0  0  0  0
    7.3278    8.1000   21.4142 H   0  0  0  0  0  0  0  0  0  0  0  0
    5.7408    7.7082   22.0770 H   0  0  0  0  0  0  0  0  0  0  0  0
    6.2730    9.3957   22.0000 H   0  0  0  0  0  0  0  0  0  0  0  0
    7.7266    6.9340   24.0216 C   0  0  0  0  0  0  0  0  0  0  0  0
    7.7207    5.7556   23.2450 C   0  0  0  0  0  0  0  0  0  0  0  0
    7.3143    5.7603   22.2357 H   0  0  0  0  0  0  0  0  0  0  0  0
    6.9267   10.2763   24.1253 H   0  0  0  0  0  0  0  0  0  0  0  0
    9.1694    5.6813   26.8376 H   0  0  0  0  0  0  0  0  0  0  0  0
    9.1586    3.5781   25.4364 H   0  0  0  0  0  0  0  0  0  0  0  0
    9.7125    2.2421   23.4665 H   0  0  0  0  0  0  0  0  0  0  0  0
    8.1157    1.8064   24.1275 H   0  0  0  0  0  0  0  0  0  0  0  0
    7.1127    0.0702   22.9905 H   0  0  0  0  0  0  0  0  0  0  0  0
    6.6707    0.0424   19.9094 C   0  0  0  0  0  0  0  0  0  0  0  0
    5.4399    0.6675   20.1492 C   0  0  0  0  0  0  0  0  0  0  0  0
    4.8022    1.3116   19.0908 C   0  0  0  0  0  0  0  0  0  0  0  0
    5.3974    1.2907   17.8240 C   0  0  0  0  0  0  0  0  0  0  0  0
    6.5578    0.6738   17.5649 N   0  0  0  0  0  0  0  0  0  0  0  0
    7.1718    0.0820   18.6026 C   0  0  0  0  0  0  0  0  0  0  0  0
    8.1177   -0.4080   18.3699 H   0  0  0  0  0  0  0  0  0  0  0  0
    4.9217    1.7897   16.9814 H   0  0  0  0  0  0  0  0  0  0  0  0
    3.8719    1.8411   19.2447 H   0  0  0  0  0  0  0  0  0  0  0  0
    4.9972    0.6588   21.1490 H   0  0  0  0  0  0  0  0  0  0  0  0
    8.3803   -1.0377   20.6300 H   0  0  0  0  0  0  0  0  0  0  0  0
    6.3833   -2.5292   20.5144 H   0  0  0  0  0  0  0  0  0  0  0  0
    5.6479   -1.6550   21.8466 H   0  0  0  0  0  0  0  0  0  0  0  0
    8.7443   -3.4190   21.0424 H   0  0  0  0  0  0  0  0  0  0  0  0
    8.6319   -4.2283   22.6302 H   0  0  0  0  0  0  0  0  0  0  0  0
    7.4112   -4.5597   21.3567 H   0  0  0  0  0  0  0  0  0  0  0  0
  1  2  1  0
  2  3  1  0
  3  4  1  0
  4  5  1  0
  5  6  1  0
  6  7  2  0
  6  8  1  0
  8  9  1  0
  9 10  1  0
 10 11  2  0
 11 12  1  0
 12 13  2  0
 13 14  1  0
 14 15  1  0
 15 16  2  0
 15 17  1  0
 17 18  2  0
 18 19  1  0
 19 20  1  0
 19 21  1  0
 19 22  1  0
 18 23  1  0
 23 24  2  0
 24 25  1  0
 17 26  1  0
 12 27  1  0
 11 28  1  0
  8 29  1  0
  8 30  1  0
  5 31  1  0
  4 32  1  0
 32 33  2  0
 33 34  1  0
 34 35  2  0
 35 36  1  0
 36 37  2  0
 37 38  1  0
 35 39  1  0
 34 40  1  0
 33 41  1  0
  4 42  1  6
  3 43  1  0
  3 44  1  0
  1 45  1  0
  1 46  1  0
  1 47  1  0
 24 10  1  0
 37 32  1  0
 23 13  1  0
M  END
>  <plip>  (1) 
-0.17857142857142858

>  <filename>  (1) 
[H][c]1[n][c]([H])[c]([C@@]([H])([N]([H])[C](=[O])[C]([H])([H])[O][c]2[c]([H])[c]([H])[c]3[o][c](=[O])[c]([H])[c]([C]([H])([H])[H])[c]3[c]2[H])[C]([H])([H])[O][C]([H])([H])[H])[c]([H])[c]1[H]

$$$$
