
     RDKit          3D

 50 51  0  0  0  0  0  0  0  0999 V2000
   11.7843    1.0679   22.9865 C   0  0  0  0  0  0  0  0  0  0  0  0
   10.8400    2.2395   22.9044 C   0  0  0  0  0  0  0  0  0  0  0  0
    9.6412    2.1395   22.1692 C   0  0  0  0  0  0  0  0  0  0  0  0
    9.2719    0.9378   21.3339 C   0  0  0  0  0  0  0  0  0  0  0  0
    8.0253    0.2706   21.9148 N   0  0  0  0  0  4  0  0  0  0  0  0
    8.3046   -0.3650   23.2673 C   0  0  0  0  0  0  0  0  0  0  0  0
    9.0751   -1.6967   23.1707 C   0  0  0  0  0  0  0  0  0  0  0  0
    9.6231   -2.1441   24.5036 N   0  0  0  0  0  4  0  0  0  0  0  0
   10.5817   -3.2780   24.3250 C   0  0  0  0  0  0  0  0  0  0  0  0
   10.0673   -4.1339   23.8662 H   0  0  0  0  0  0  0  0  0  0  0  0
   11.4087   -2.9955   23.6655 H   0  0  0  0  0  0  0  0  0  0  0  0
   10.9928   -3.6037   25.2859 H   0  0  0  0  0  0  0  0  0  0  0  0
    8.5271   -2.5730   25.4423 C   0  0  0  0  0  0  0  0  0  0  0  0
    8.9450   -2.9811   26.3683 H   0  0  0  0  0  0  0  0  0  0  0  0
    7.8685   -1.7398   25.7009 H   0  0  0  0  0  0  0  0  0  0  0  0
    7.9187   -3.3580   24.9693 H   0  0  0  0  0  0  0  0  0  0  0  0
   10.1336   -1.3278   24.9213 H   0  0  0  0  0  0  0  0  0  0  0  0
    8.4172   -2.4881   22.7815 H   0  0  0  0  0  0  0  0  0  0  0  0
    9.9027   -1.6042   22.4530 H   0  0  0  0  0  0  0  0  0  0  0  0
    8.8763    0.3332   23.8899 H   0  0  0  0  0  0  0  0  0  0  0  0
    7.3572   -0.5391   23.7931 H   0  0  0  0  0  0  0  0  0  0  0  0
    7.3692   -0.7037   20.9767 C   0  0  0  0  0  0  0  0  0  0  0  0
    6.6342    0.0108   19.8872 C   0  0  0  0  0  0  0  0  0  0  0  0
    5.4222    0.6649   20.1378 C   0  0  0  0  0  0  0  0  0  0  0  0
    4.7889    1.3261   19.0861 C   0  0  0  0  0  0  0  0  0  0  0  0
    5.3923    1.3089   17.8253 C   0  0  0  0  0  0  0  0  0  0  0  0
    6.5521    0.6870   17.5710 N   0  0  0  0  0  0  0  0  0  0  0  0
    7.1547    0.0640   18.5883 C   0  0  0  0  0  0  0  0  0  0  0  0
    8.1069   -0.4179   18.3535 H   0  0  0  0  0  0  0  0  0  0  0  0
    4.9251    1.8124   16.9802 H   0  0  0  0  0  0  0  0  0  0  0  0
    3.8577    1.8631   19.2305 H   0  0  0  0  0  0  0  0  0  0  0  0
    4.9982    0.6635   21.1448 H   0  0  0  0  0  0  0  0  0  0  0  0
    6.6689   -1.3298   21.5439 H   0  0  0  0  0  0  0  0  0  0  0  0
    8.1207   -1.3786   20.5433 H   0  0  0  0  0  0  0  0  0  0  0  0
    7.3910    1.1091   21.9940 H   0  0  0  0  0  0  0  0  0  0  0  0
   10.0940    0.2169   21.2566 H   0  0  0  0  0  0  0  0  0  0  0  0
    9.0137    1.2444   20.3174 H   0  0  0  0  0  0  0  0  0  0  0  0
    8.7674    3.2386   22.1850 C   0  0  0  0  0  0  0  0  0  0  0  0
    7.5425    3.0845   21.5912 O   0  0  0  0  0  0  0  0  0  0  0  0
    7.2956    3.9605   21.2614 H   0  0  0  0  0  0  0  0  0  0  0  0
    9.1017    4.4505   22.7705 C   0  0  0  0  0  0  0  0  0  0  0  0
   10.2761    4.5220   23.5016 C   0  0  0  0  0  0  0  0  0  0  0  0
   10.5402    5.6819   24.1529 O   0  0  0  0  0  0  0  0  0  0  0  0
   11.3562    5.5513   24.6463 H   0  0  0  0  0  0  0  0  0  0  0  0
   11.1348    3.4248   23.5875 C   0  0  0  0  0  0  0  0  0  0  0  0
   12.0169    3.4984   24.2124 H   0  0  0  0  0  0  0  0  0  0  0  0
    8.4882    5.3394   22.6715 H   0  0  0  0  0  0  0  0  0  0  0  0
   11.2535    0.1848   23.3643 H   0  0  0  0  0  0  0  0  0  0  0  0
   12.1734    0.8195   21.9914 H   0  0  0  0  0  0  0  0  0  0  0  0
   12.6259    1.2819   23.6529 H   0  0  0  0  0  0  0  0  0  0  0  0
  1  2  1  0
  2  3  2  0
  3  4  1  0
  4  5  1  0
  5  6  1  0
  6  7  1  0
  7  8  1  0
  8  9  1  0
  9 10  1  0
  9 11  1  0
  9 12  1  0
  8 13  1  0
 13 14  1  0
 13 15  1  0
 13 16  1  0
  8 17  1  0
  7 18  1  0
  7 19  1  0
  6 20  1  0
  6 21  1  0
  5 22  1  0
 22 23  1  0
 23 24  2  0
 24 25  1  0
 25 26  2  0
 26 27  1  0
 27 28  2  0
 28 29  1  0
 26 30  1  0
 25 31  1  0
 24 32  1  0
 22 33  1  0
 22 34  1  0
  5 35  1  0
  4 36  1  0
  4 37  1  0
  3 38  1  0
 38 39  1  0
 39 40  1  0
 38 41  2  0
 41 42  1  0
 42 43  1  0
 43 44  1  0
 42 45  2  0
 45 46  1  0
 41 47  1  0
  1 48  1  0
  1 49  1  0
  1 50  1  0
 45  2  1  0
 28 23  1  0
M  CHG  2   5   1   8   1
M  END
>  <plip>  (1) 
-0.17857142857142858

>  <filename>  (1) 
[H][O][c]1[c]([H])[c]([O][H])[c]([C]([H])([H])[N+]([H])([C]([H])([H])[c]2[c]([H])[n][c]([H])[c]([H])[c]2[H])[C]([H])([H])[C]([H])([H])[N+]([H])([C]([H])([H])[H])[C]([H])([H])[H])[c]([C]([H])([H])[H])[c]1[H]

$$$$
