
     RDKit          3D

 41 43  0  0  0  0  0  0  0  0999 V2000
    5.1026    1.6884   16.9396 H   0  0  0  0  0  0  0  0  0  0  0  0
    5.5105    1.3149   17.8765 C   0  0  0  0  0  0  0  0  0  0  0  0
    6.7099    0.7244   17.7959 N   0  0  0  0  0  0  0  0  0  0  0  0
    7.2210    0.2387   18.9361 C   0  0  0  0  0  0  0  0  0  0  0  0
    8.2091   -0.2115   18.8689 H   0  0  0  0  0  0  0  0  0  0  0  0
    6.5724    0.2605   20.1794 C   0  0  0  0  0  0  0  0  0  0  0  0
    7.2281   -0.4481   21.3219 C   0  0  0  0  0  0  0  0  0  0  0  0
    8.0590    0.3552   22.1486 O   0  0  0  0  0  0  0  0  0  0  0  0
    9.3121    0.6468   21.7396 C   0  0  0  0  0  0  0  0  0  0  0  0
    9.7832    0.2812   20.6856 O   0  0  0  0  0  0  0  0  0  0  0  0
   10.0015    1.5547   22.7552 C   0  0  0  0  0  0  0  0  0  0  0  0
    9.6176    1.2671   23.7375 H   0  0  0  0  0  0  0  0  0  0  0  0
   11.5488    1.4392   22.8112 C   0  0  0  0  0  0  0  0  0  0  0  0
   11.8953    0.4496   22.4895 H   0  0  0  0  0  0  0  0  0  0  0  0
   11.8778    1.5553   23.8540 H   0  0  0  0  0  0  0  0  0  0  0  0
   12.2463    2.5142   21.9730 C   0  0  0  0  0  0  0  0  0  0  0  0
   13.3187    2.3861   22.0963 H   0  0  0  0  0  0  0  0  0  0  0  0
   12.0122    2.3575   20.9102 H   0  0  0  0  0  0  0  0  0  0  0  0
   11.8714    3.8635   22.4118 N   0  0  0  0  0  0  0  0  0  0  0  0
   12.7223    4.9447   22.3930 C   0  0  0  0  0  0  0  0  0  0  0  0
   12.4515    5.9793   22.9840 O   0  0  0  0  0  0  0  0  0  0  0  0
   14.0018    4.8023   21.5940 C   0  0  0  0  0  0  0  0  0  0  0  0
   14.6513    4.0340   22.0249 H   0  0  0  0  0  0  0  0  0  0  0  0
   13.7865    4.5217   20.5561 H   0  0  0  0  0  0  0  0  0  0  0  0
   14.5164    5.7618   21.6232 H   0  0  0  0  0  0  0  0  0  0  0  0
   10.5225    4.0545   22.9725 C   0  0  0  0  0  0  0  0  0  0  0  0
   10.1728    5.0563   22.7159 H   0  0  0  0  0  0  0  0  0  0  0  0
   10.5578    4.0049   24.0697 H   0  0  0  0  0  0  0  0  0  0  0  0
    9.5515    3.0110   22.4311 C   0  0  0  0  0  0  0  0  0  0  0  0
    9.4726    3.1241   21.3448 H   0  0  0  0  0  0  0  0  0  0  0  0
    8.5471    3.1996   22.8238 H   0  0  0  0  0  0  0  0  0  0  0  0
    6.5301   -1.5018   22.1183 C   0  0  0  0  0  0  0  0  0  0  0  0
    5.5226   -1.7696   21.8305 H   0  0  0  0  0  0  0  0  0  0  0  0
    6.7386   -1.5307   23.1833 H   0  0  0  0  0  0  0  0  0  0  0  0
    7.6353   -1.8844   21.1751 C   0  0  0  0  0  0  0  0  0  0  0  0
    8.5925   -2.1720   21.5941 H   0  0  0  0  0  0  0  0  0  0  0  0
    7.3485   -2.3692   20.2465 H   0  0  0  0  0  0  0  0  0  0  0  0
    5.3366    0.9313   20.2484 C   0  0  0  0  0  0  0  0  0  0  0  0
    4.8060    1.0439   21.1957 H   0  0  0  0  0  0  0  0  0  0  0  0
    4.7997    1.4591   19.0720 C   0  0  0  0  0  0  0  0  0  0  0  0
    3.8470    1.9778   19.0579 H   0  0  0  0  0  0  0  0  0  0  0  0
  1  2  1  0
  2  3  2  0
  3  4  1  0
  4  5  1  0
  4  6  2  0
  6  7  1  0
  7  8  1  0
  8  9  1  0
  9 10  2  0
  9 11  1  0
 11 12  1  0
 11 13  1  0
 13 14  1  0
 13 15  1  0
 13 16  1  0
 16 17  1  0
 16 18  1  0
 16 19  1  0
 19 20  1  0
 20 21  2  0
 20 22  1  0
 22 23  1  0
 22 24  1  0
 22 25  1  0
 19 26  1  0
 26 27  1  0
 26 28  1  0
 26 29  1  0
 29 30  1  0
 29 31  1  0
  7 32  1  0
 32 33  1  0
 32 34  1  0
 32 35  1  0
 35 36  1  0
 35 37  1  0
  6 38  1  0
 38 39  1  0
 38 40  2  0
 40 41  1  0
 40  2  1  0
 35  7  1  0
 29 11  1  0
M  END
>  <plip>  (1) 
-0.06896551724137931

>  <filename>  (1) 
[H][c]1[n][c]([H])[c]([C]2([O][C](=[O])[C]3([H])[C]([H])([H])[C]([H])([H])[N]([C](=[O])[C]([H])([H])[H])[C]([H])([H])[C]3([H])[H])[C]([H])([H])[C]2([H])[H])[c]([H])[c]1[H]

$$$$
