
     RDKit          3D

 33 35  0  0  0  0  0  0  0  0999 V2000
    4.9375    1.7839   17.0050 H   0  0  0  0  0  0  0  0  0  0  0  0
    5.4106    1.2832   17.8460 C   0  0  0  0  0  0  0  0  0  0  0  0
    6.5686    0.6586   17.5886 N   0  0  0  0  0  0  0  0  0  0  0  0
    7.1874    0.0404   18.6047 C   0  0  0  0  0  0  0  0  0  0  0  0
    8.1290   -0.4446   18.3567 H   0  0  0  0  0  0  0  0  0  0  0  0
    6.6757    0.0120   19.9186 C   0  0  0  0  0  0  0  0  0  0  0  0
    7.2420   -0.6671   20.9760 O   0  0  0  0  0  0  0  0  0  0  0  0
    8.6015   -0.7407   21.1294 C   0  0  0  0  0  0  0  0  0  0  0  0
    9.6350    0.0786   20.6245 C   0  0  0  0  0  0  0  0  0  0  0  0
    9.6006    0.9510   19.9874 H   0  0  0  0  0  0  0  0  0  0  0  0
   10.8140   -0.3551   21.0571 N   0  0  0  0  0  0  0  0  0  0  0  0
   10.5616   -1.4100   21.8129 N   0  0  0  0  0  0  0  0  0  0  0  0
   11.3469   -1.9243   22.2028 H   0  0  0  0  0  0  0  0  0  0  0  0
    9.2267   -1.6912   21.9279 C   0  0  0  0  0  0  0  0  0  0  0  0
    8.7409   -2.8733   22.6880 C   0  0  0  0  0  0  0  0  0  0  0  0
    9.5131   -3.7393   23.0714 O   0  0  0  0  0  0  0  0  0  0  0  0
    7.3904   -2.9185   22.9045 N   0  0  0  0  0  0  0  0  0  0  0  0
    6.8865   -2.0522   22.8211 H   0  0  0  0  0  0  0  0  0  0  0  0
    6.6588   -4.0836   23.2201 C   0  0  0  0  0  0  0  0  0  0  0  0
    5.5176   -3.9991   24.0272 C   0  0  0  0  0  0  0  0  0  0  0  0
    5.2038   -3.0324   24.4172 H   0  0  0  0  0  0  0  0  0  0  0  0
    4.7960   -5.1614   24.3448 C   0  0  0  0  0  0  0  0  0  0  0  0
    3.9155   -5.1436   24.9803 H   0  0  0  0  0  0  0  0  0  0  0  0
    5.2198   -6.3823   23.8246 C   0  0  0  0  0  0  0  0  0  0  0  0
    4.5449   -7.5034   24.1318 F   0  0  0  0  0  0  0  0  0  0  0  0
    6.3327   -6.4801   22.9922 C   0  0  0  0  0  0  0  0  0  0  0  0
    6.6304   -7.4552   22.6182 H   0  0  0  0  0  0  0  0  0  0  0  0
    7.0576   -5.3250   22.6997 C   0  0  0  0  0  0  0  0  0  0  0  0
    7.9466   -5.3692   22.0797 H   0  0  0  0  0  0  0  0  0  0  0  0
    5.4580    0.6460   20.1741 C   0  0  0  0  0  0  0  0  0  0  0  0
    5.0419    0.6104   21.1799 H   0  0  0  0  0  0  0  0  0  0  0  0
    4.8237    1.3010   19.1167 C   0  0  0  0  0  0  0  0  0  0  0  0
    3.8893    1.8251   19.2663 H   0  0  0  0  0  0  0  0  0  0  0  0
  1  2  1  0
  2  3  2  0
  3  4  1  0
  4  5  1  0
  4  6  2  0
  6  7  1  0
  7  8  1  0
  8  9  1  0
  9 10  1  0
  9 11  2  0
 11 12  1  0
 12 13  1  0
 12 14  1  0
 14 15  1  0
 15 16  2  0
 15 17  1  0
 17 18  1  0
 17 19  1  0
 19 20  2  0
 20 21  1  0
 20 22  1  0
 22 23  1  0
 22 24  2  0
 24 25  1  0
 24 26  1  0
 26 27  1  0
 26 28  2  0
 28 29  1  0
  6 30  1  0
 30 31  1  0
 30 32  2  0
 32 33  1  0
 32  2  1  0
 14  8  2  0
 28 19  1  0
M  END
>  <plip>  (1) 
-0.13793103448275862

>  <filename>  (1) 
[H][c]1[n][c]([H])[c]([O][c]2[c]([H])[n][n]([H])[c]2[C](=[O])[N]([H])[c]2[c]([H])[c]([H])[c]([F])[c]([H])[c]2[H])[c]([H])[c]1[H]

$$$$
