
     RDKit          3D

 29 29  0  0  0  0  0  0  0  0999 V2000
    9.5166   -4.6345   25.9437 H   0  0  0  0  0  0  0  0  0  0  0  0
    9.2732   -5.2802   25.2676 O   0  0  0  0  0  0  0  0  0  0  0  0
    9.2700   -4.6600   23.9912 C   0  0  0  0  0  0  0  0  0  0  0  0
   10.2040   -4.1010   23.8148 H   0  0  0  0  0  0  0  0  0  0  0  0
    9.2305   -5.4786   23.2636 H   0  0  0  0  0  0  0  0  0  0  0  0
    8.0395   -3.7691   23.7321 C   0  0  0  0  0  0  0  0  0  0  0  0
    7.1377   -4.3666   23.9252 H   0  0  0  0  0  0  0  0  0  0  0  0
    8.0280   -2.9445   24.4583 H   0  0  0  0  0  0  0  0  0  0  0  0
    7.9467   -3.1935   22.3878 N   0  0  0  0  0  0  0  0  0  0  0  0
    7.9654   -3.9355   21.6901 H   0  0  0  0  0  0  0  0  0  0  0  0
    8.9399   -2.1412   22.0918 C   0  0  0  0  0  0  0  0  0  0  0  0
    9.9558   -2.5381   21.9364 H   0  0  0  0  0  0  0  0  0  0  0  0
    8.9874   -1.4489   22.9468 H   0  0  0  0  0  0  0  0  0  0  0  0
    8.6334   -1.2426   20.8712 C   0  0  2  0  0  0  0  0  0  0  0  0
    8.4883   -1.8727   19.9832 H   0  0  0  0  0  0  0  0  0  0  0  0
    9.6806   -0.3287   20.6511 O   0  0  0  0  0  0  0  0  0  0  0  0
    9.1744    0.4745   20.8553 H   0  0  0  0  0  0  0  0  0  0  0  0
    7.4780   -0.3713   21.0642 N   0  0  0  0  0  0  0  0  0  0  0  0
    6.7972   -0.7986   21.6869 H   0  0  0  0  0  0  0  0  0  0  0  0
    6.7789    0.1331   19.9325 C   0  0  0  0  0  0  0  0  0  0  0  0
    7.2516    0.1422   18.5925 C   0  0  0  0  0  0  0  0  0  0  0  0
    8.2000   -0.3304   18.3495 H   0  0  0  0  0  0  0  0  0  0  0  0
    6.5987    0.6963   17.5570 N   0  0  0  0  0  0  0  0  0  0  0  0
    5.4177    1.2789   17.8145 C   0  0  0  0  0  0  0  0  0  0  0  0
    4.9039    1.7355   16.9698 H   0  0  0  0  0  0  0  0  0  0  0  0
    4.8440    1.2929   19.0928 C   0  0  0  0  0  0  0  0  0  0  0  0
    3.8780    1.7590   19.2444 H   0  0  0  0  0  0  0  0  0  0  0  0
    5.5200    0.7025   20.1613 C   0  0  0  0  0  0  0  0  0  0  0  0
    5.1084    0.6852   21.1736 H   0  0  0  0  0  0  0  0  0  0  0  0
  1  2  1  0
  2  3  1  0
  3  4  1  0
  3  5  1  0
  3  6  1  0
  6  7  1  0
  6  8  1  0
  6  9  1  0
  9 10  1  0
  9 11  1  0
 11 12  1  0
 11 13  1  0
 11 14  1  0
 14 15  1  6
 14 16  1  0
 16 17  1  0
 14 18  1  0
 18 19  1  0
 18 20  1  0
 20 21  2  0
 21 22  1  0
 21 23  1  0
 23 24  2  0
 24 25  1  0
 24 26  1  0
 26 27  1  0
 26 28  2  0
 28 29  1  0
 28 20  1  0
M  END
>  <plip>  (1) 
-0.10344827586206896

>  <filename>  (1) 
[H][O][C]([H])([H])[C]([H])([H])[N]([H])[C]([H])([H])[C@]([H])([O][H])[N]([H])[c]1[c]([H])[n][c]([H])[c]([H])[c]1[H]

$$$$
