
     RDKit          3D

 32 35  0  0  0  0  0  0  0  0999 V2000
    8.7747   -1.5433   27.8684 O   0  0  0  0  0  0  0  0  0  0  0  0
    8.3687   -1.8884   26.7772 C   0  0  0  0  0  0  0  0  0  0  0  0
    7.4324   -1.0562   26.1643 N   0  0  0  0  0  0  0  0  0  0  0  0
    7.2057   -1.0065   24.8183 C   0  0  0  0  0  0  0  0  0  0  0  0
    7.8580   -1.8904   24.0117 C   0  0  0  0  0  0  0  0  0  0  0  0
    7.8447   -1.5589   22.5962 C   0  0  0  0  0  0  0  0  0  0  0  0
    6.9812   -0.7697   22.0273 N   0  0  0  0  0  0  0  0  0  0  0  0
    7.4244   -0.7259   20.7386 C   0  0  0  0  0  0  0  0  0  0  0  0
    6.6872    0.0301   19.7336 C   0  0  0  0  0  0  0  0  0  0  0  0
    5.4742    0.6767   20.0288 C   0  0  0  0  0  0  0  0  0  0  0  0
    4.8239    1.3430   18.9954 C   0  0  0  0  0  0  0  0  0  0  0  0
    5.4041    1.3451   17.7213 C   0  0  0  0  0  0  0  0  0  0  0  0
    6.5590    0.7268   17.4363 N   0  0  0  0  0  0  0  0  0  0  0  0
    7.1838    0.0866   18.4272 C   0  0  0  0  0  0  0  0  0  0  0  0
    8.1166   -0.4064   18.1582 H   0  0  0  0  0  0  0  0  0  0  0  0
    4.9164    1.8599   16.8963 H   0  0  0  0  0  0  0  0  0  0  0  0
    3.8846    1.8598   19.1594 H   0  0  0  0  0  0  0  0  0  0  0  0
    5.0555    0.6548   21.0388 H   0  0  0  0  0  0  0  0  0  0  0  0
    8.5084   -1.4201   20.5066 N   0  0  0  0  0  0  0  0  0  0  0  0
    8.7893   -1.9845   21.7491 O   0  0  0  0  0  0  0  0  0  0  0  0
    8.4918   -3.0788   24.5896 C   0  0  0  0  0  0  0  0  0  0  0  0
    8.8120   -4.2437   23.8393 C   0  0  0  0  0  0  0  0  0  0  0  0
    9.2322   -5.3964   24.4868 C   0  0  0  0  0  0  0  0  0  0  0  0
    9.4095   -5.4255   25.8841 C   0  0  0  0  0  0  0  0  0  0  0  0
    9.1648   -4.2794   26.6267 C   0  0  0  0  0  0  0  0  0  0  0  0
    8.7101   -3.1053   25.9936 C   0  0  0  0  0  0  0  0  0  0  0  0
    9.3222   -4.2915   27.7018 H   0  0  0  0  0  0  0  0  0  0  0  0
    9.7153   -6.3561   26.3646 H   0  0  0  0  0  0  0  0  0  0  0  0
    9.4026   -6.3109   23.9272 H   0  0  0  0  0  0  0  0  0  0  0  0
    8.6952   -4.2003   22.7619 H   0  0  0  0  0  0  0  0  0  0  0  0
    6.5184   -0.2493   24.4326 H   0  0  0  0  0  0  0  0  0  0  0  0
    7.1964   -0.3165   26.8104 H   0  0  0  0  0  0  0  0  0  0  0  0
  1  2  2  0
  2  3  1  0
  3  4  1  0
  4  5  2  0
  5  6  1  0
  6  7  2  0
  7  8  1  0
  8  9  1  0
  9 10  2  0
 10 11  1  0
 11 12  2  0
 12 13  1  0
 13 14  2  0
 14 15  1  0
 12 16  1  0
 11 17  1  0
 10 18  1  0
  8 19  2  0
 19 20  1  0
  5 21  1  0
 21 22  2  0
 22 23  1  0
 23 24  2  0
 24 25  1  0
 25 26  2  0
 25 27  1  0
 24 28  1  0
 23 29  1  0
 22 30  1  0
  4 31  1  0
  3 32  1  0
 26  2  1  0
 20  6  1  0
 26 21  1  0
 14  9  1  0
M  END
>  <plip>  (1) 
-0.07142857142857142

>  <filename>  (1) 
[H][c]1[n][c]([H])[c](-[c]2[n][o][c](-[c]3[c]([H])[n]([H])[c](=[O])[c]4[c]([H])[c]([H])[c]([H])[c]([H])[c]34)[n]2)[c]([H])[c]1[H]

$$$$
