
     RDKit          3D

 47 50  0  0  0  0  0  0  0  0999 V2000
    5.6754   -2.9144   20.5322 O   0  0  0  0  0  0  0  0  0  0  0  0
    5.6898   -2.5542   21.6956 C   0  0  0  0  0  0  0  0  0  0  0  0
    5.0255   -3.3859   22.7987 C   0  0  0  0  0  0  0  0  0  0  0  0
    5.8925   -4.6097   23.2205 C   0  0  0  0  0  0  0  0  0  0  0  0
    7.2507   -4.1592   23.4115 O   0  0  0  0  0  0  0  0  0  0  0  0
    7.4908   -3.4551   24.5688 C   0  0  0  0  0  0  0  0  0  0  0  0
    8.5501   -2.5490   24.6178 C   0  0  0  0  0  0  0  0  0  0  0  0
    8.7288   -1.7437   25.7511 C   0  0  0  0  0  0  0  0  0  0  0  0
    7.8760   -1.8792   26.8563 C   0  0  0  0  0  0  0  0  0  0  0  0
    6.8655   -2.8494   26.8383 C   0  0  0  0  0  0  0  0  0  0  0  0
    6.6734   -3.6491   25.7128 C   0  0  0  0  0  0  0  0  0  0  0  0
    5.6718   -4.6400   25.6589 N   0  0  0  0  0  0  0  0  0  0  0  0
    5.3308   -5.2923   24.5055 C   0  0  0  0  0  0  0  0  0  0  0  0
    4.5883   -6.2497   24.5058 O   0  0  0  0  0  0  0  0  0  0  0  0
    5.2366   -5.0381   26.4794 H   0  0  0  0  0  0  0  0  0  0  0  0
    6.2158   -2.9936   27.6959 H   0  0  0  0  0  0  0  0  0  0  0  0
    8.0017   -1.2596   27.7419 H   0  0  0  0  0  0  0  0  0  0  0  0
    9.5298   -1.0097   25.7578 H   0  0  0  0  0  0  0  0  0  0  0  0
    9.2313   -2.5087   23.7711 H   0  0  0  0  0  0  0  0  0  0  0  0
    5.9440   -5.3719   22.4418 H   0  0  0  0  0  0  0  0  0  0  0  0
    4.8618   -2.7889   23.7048 H   0  0  0  0  0  0  0  0  0  0  0  0
    4.0510   -3.7202   22.4336 H   0  0  0  0  0  0  0  0  0  0  0  0
    6.2911   -1.4053   22.1231 N   0  0  0  0  0  0  0  0  0  0  0  0
    7.2310   -0.6339   21.3164 C   0  0  0  0  0  0  0  0  0  0  0  0
    6.5113   -0.0080   20.1047 C   0  0  0  0  0  0  0  0  0  0  0  0
    5.3026    0.7045   20.2450 C   0  0  0  0  0  0  0  0  0  0  0  0
    4.7665    1.3764   19.1427 C   0  0  0  0  0  0  0  0  0  0  0  0
    5.4401    1.3154   17.9184 C   0  0  0  0  0  0  0  0  0  0  0  0
    6.5633    0.6114   17.7391 N   0  0  0  0  0  0  0  0  0  0  0  0
    7.0632   -0.0285   18.8105 C   0  0  0  0  0  0  0  0  0  0  0  0
    7.9757   -0.5864   18.6102 H   0  0  0  0  0  0  0  0  0  0  0  0
    5.0655    1.8556   17.0496 H   0  0  0  0  0  0  0  0  0  0  0  0
    3.8498    1.9519   19.2147 H   0  0  0  0  0  0  0  0  0  0  0  0
    4.7844    0.7362   21.2043 H   0  0  0  0  0  0  0  0  0  0  0  0
    7.9452    0.4173   22.1969 C   0  0  0  0  0  0  0  0  0  0  0  0
    9.2773    0.7310   21.4836 C   0  0  0  0  0  0  0  0  0  0  0  0
    9.6510   -0.5818   20.7434 C   0  0  0  0  0  0  0  0  0  0  0  0
    8.4518   -1.5171   20.9716 C   0  0  0  0  0  0  0  0  0  0  0  0
    8.6492   -2.1806   21.8210 H   0  0  0  0  0  0  0  0  0  0  0  0
    8.2025   -2.1590   20.1410 H   0  0  0  0  0  0  0  0  0  0  0  0
    9.7760   -0.4104   19.6705 H   0  0  0  0  0  0  0  0  0  0  0  0
   10.5936   -1.0361   21.0789 H   0  0  0  0  0  0  0  0  0  0  0  0
    9.1395    1.5439   20.7614 H   0  0  0  0  0  0  0  0  0  0  0  0
   10.0442    1.0508   22.1985 H   0  0  0  0  0  0  0  0  0  0  0  0
    7.3156    1.2904   22.4025 H   0  0  0  0  0  0  0  0  0  0  0  0
    8.1872   -0.0629   23.1547 H   0  0  0  0  0  0  0  0  0  0  0  0
    6.3931   -1.3103   23.1176 H   0  0  0  0  0  0  0  0  0  0  0  0
  1  2  2  0
  2  3  1  0
  3  4  1  0
  4  5  1  0
  5  6  1  0
  6  7  2  0
  7  8  1  0
  8  9  2  0
  9 10  1  0
 10 11  2  0
 11 12  1  0
 12 13  1  0
 13 14  2  0
 12 15  1  0
 10 16  1  0
  9 17  1  0
  8 18  1  0
  7 19  1  0
  4 20  1  0
  3 21  1  0
  3 22  1  0
  2 23  1  0
 23 24  1  0
 24 25  1  0
 25 26  2  0
 26 27  1  0
 27 28  2  0
 28 29  1  0
 29 30  2  0
 30 31  1  0
 28 32  1  0
 27 33  1  0
 26 34  1  0
 24 35  1  0
 35 36  1  0
 36 37  1  0
 37 38  1  0
 38 39  1  0
 38 40  1  0
 37 41  1  0
 37 42  1  0
 36 43  1  0
 36 44  1  0
 35 45  1  0
 35 46  1  0
 23 47  1  0
 13  4  1  0
 38 24  1  0
 11  6  1  0
 30 25  1  0
M  END
>  <plip>  (1) 
-0.06896551724137931

>  <filename>  (1) 
[H][c]1[n][c]([H])[c]([C]2([N]([H])[C](=[O])[C]([H])([H])[C]3([H])[O][c]4[c]([H])[c]([H])[c]([H])[c]([H])[c]4[N]([H])[C]3=[O])[C]([H])([H])[C]([H])([H])[C]([H])([H])[C]2([H])[H])[c]([H])[c]1[H]

$$$$
