
     RDKit          3D

 41 43  0  0  0  0  0  0  0  0999 V2000
    8.4966   -3.6825   21.8836 O   0  0  0  0  0  0  0  0  0  0  0  0
    7.5622   -2.9348   22.1516 C   0  0  0  0  0  0  0  0  0  0  0  0
    6.8581   -2.1637   21.0447 C   0  0  0  0  0  0  0  0  0  0  0  0
    7.3683   -0.7217   20.9910 C   0  0  0  0  0  0  0  0  0  0  0  0
    6.6494    0.0086   19.8910 C   0  0  0  0  0  0  0  0  0  0  0  0
    5.4408    0.6487   20.1540 C   0  0  0  0  0  0  0  0  0  0  0  0
    4.8215    1.3046   19.0948 C   0  0  0  0  0  0  0  0  0  0  0  0
    5.4014    1.2982   17.8212 C   0  0  0  0  0  0  0  0  0  0  0  0
    6.5657    0.6763   17.5638 N   0  0  0  0  0  0  0  0  0  0  0  0
    7.1753    0.0479   18.5867 C   0  0  0  0  0  0  0  0  0  0  0  0
    8.1256   -0.4437   18.4000 H   0  0  0  0  0  0  0  0  0  0  0  0
    4.8884    1.8103   17.0136 H   0  0  0  0  0  0  0  0  0  0  0  0
    3.8900    1.8273   19.2513 H   0  0  0  0  0  0  0  0  0  0  0  0
    5.0099    0.6365   21.1560 H   0  0  0  0  0  0  0  0  0  0  0  0
    8.4513   -0.7091   20.8103 H   0  0  0  0  0  0  0  0  0  0  0  0
    7.1839   -0.2331   21.9555 H   0  0  0  0  0  0  0  0  0  0  0  0
    7.0491   -2.6557   20.0959 H   0  0  0  0  0  0  0  0  0  0  0  0
    5.7750   -2.1879   21.2062 H   0  0  0  0  0  0  0  0  0  0  0  0
    7.1292   -2.7928   23.4535 N   0  0  0  0  0  0  0  0  0  0  0  0
    7.7489   -3.5018   24.5746 C   0  0  0  0  0  0  0  0  0  0  0  0
    7.0461   -3.2168   25.9035 C   0  0  0  0  0  0  0  0  0  0  0  0
    5.6611   -3.7986   25.9128 C   0  0  0  0  0  0  0  0  0  0  0  0
    5.3324   -5.1264   26.0573 C   0  0  0  0  0  0  0  0  0  0  0  0
    3.9433   -5.2109   25.9741 N   0  0  0  0  0  0  0  0  0  0  0  0
    3.3900   -3.9553   25.7795 C   0  0  0  0  0  0  0  0  0  0  0  0
    2.0647   -3.5528   25.6245 C   0  0  0  0  0  0  0  0  0  0  0  0
    1.7797   -2.1903   25.4363 C   0  0  0  0  0  0  0  0  0  0  0  0
   -0.0368   -1.6223   25.2088 Br  0  0  0  0  0  0  0  0  0  0  0  0
    2.8295   -1.2562   25.4151 C   0  0  0  0  0  0  0  0  0  0  0  0
    4.1613   -1.6781   25.5721 C   0  0  0  0  0  0  0  0  0  0  0  0
    4.4283   -3.0411   25.7460 C   0  0  0  0  0  0  0  0  0  0  0  0
    4.9811   -0.9691   25.5438 H   0  0  0  0  0  0  0  0  0  0  0  0
    2.6082   -0.2019   25.2619 H   0  0  0  0  0  0  0  0  0  0  0  0
    1.2706   -4.2910   25.6493 H   0  0  0  0  0  0  0  0  0  0  0  0
    3.3949   -6.0624   26.0258 H   0  0  0  0  0  0  0  0  0  0  0  0
    6.0353   -5.9487   26.1976 H   0  0  0  0  0  0  0  0  0  0  0  0
    7.6289   -3.6709   26.7097 H   0  0  0  0  0  0  0  0  0  0  0  0
    7.0067   -2.1388   26.0882 H   0  0  0  0  0  0  0  0  0  0  0  0
    8.7998   -3.1960   24.6557 H   0  0  0  0  0  0  0  0  0  0  0  0
    7.7166   -4.5821   24.3887 H   0  0  0  0  0  0  0  0  0  0  0  0
    6.3401   -2.1710   23.6191 H   0  0  0  0  0  0  0  0  0  0  0  0
  1  2  2  0
  2  3  1  0
  3  4  1  0
  4  5  1  0
  5  6  2  0
  6  7  1  0
  7  8  2  0
  8  9  1  0
  9 10  2  0
 10 11  1  0
  8 12  1  0
  7 13  1  0
  6 14  1  0
  4 15  1  0
  4 16  1  0
  3 17  1  0
  3 18  1  0
  2 19  1  0
 19 20  1  0
 20 21  1  0
 21 22  1  0
 22 23  2  0
 23 24  1  0
 24 25  1  0
 25 26  2  0
 26 27  1  0
 27 28  1  0
 27 29  2  0
 29 30  1  0
 30 31  2  0
 30 32  1  0
 29 33  1  0
 26 34  1  0
 24 35  1  0
 23 36  1  0
 21 37  1  0
 21 38  1  0
 20 39  1  0
 20 40  1  0
 19 41  1  0
 10  5  1  0
 31 22  1  0
 31 25  1  0
M  END
>  <plip>  (1) 
-0.06896551724137931

>  <filename>  (1) 
[H][c]1[n][c]([H])[c]([C]([H])([H])[C]([H])([H])[C](=[O])[N]([H])[C]([H])([H])[C]([H])([H])[c]2[c]([H])[n]([H])[c]3[c]([H])[c]([Br])[c]([H])[c]([H])[c]23)[c]([H])[c]1[H]

$$$$
