
     RDKit          3D

 38 40  0  0  0  0  0  0  0  0999 V2000
   11.2385    0.4665   23.4356 O   0  0  0  0  0  0  0  0  0  0  0  0
   10.8318    1.2179   22.2888 C   0  0  1  0  0  0  0  0  0  0  0  0
    9.3072    1.1505   22.2171 C   0  0  0  0  0  0  0  0  0  0  0  0
    8.8037   -0.2960   22.2075 N   0  0  0  0  0  4  0  0  0  0  0  0
    8.7301   -1.0087   20.8174 C   0  0  0  0  0  0  0  0  0  0  0  0
    7.1696   -0.9771   20.8102 C   0  0  0  0  0  0  0  0  0  0  0  0
    6.6185   -2.2608   20.7279 F   0  0  0  0  0  0  0  0  0  0  0  0
    6.5000   -0.1127   19.7732 C   0  0  0  0  0  0  0  0  0  0  0  0
    5.3145    0.6025   20.0067 C   0  0  0  0  0  0  0  0  0  0  0  0
    4.7689    1.3546   18.9629 C   0  0  0  0  0  0  0  0  0  0  0  0
    5.4180    1.3623   17.7227 C   0  0  0  0  0  0  0  0  0  0  0  0
    6.5260    0.6496   17.4674 N   0  0  0  0  0  0  0  0  0  0  0  0
    7.0291   -0.0714   18.4700 C   0  0  0  0  0  0  0  0  0  0  0  0
    7.9123   -0.6642   18.2372 H   0  0  0  0  0  0  0  0  0  0  0  0
    5.0390    1.9639   16.8988 H   0  0  0  0  0  0  0  0  0  0  0  0
    3.8710    1.9502   19.0953 H   0  0  0  0  0  0  0  0  0  0  0  0
    4.8206    0.5684   20.9812 H   0  0  0  0  0  0  0  0  0  0  0  0
    7.2614   -0.4758   22.2863 C   0  0  0  0  0  0  0  0  0  0  0  0
    6.9907   -1.2568   22.9909 H   0  0  0  0  0  0  0  0  0  0  0  0
    6.7600    0.4608   22.5202 H   0  0  0  0  0  0  0  0  0  0  0  0
    9.2335   -0.4295   20.0489 H   0  0  0  0  0  0  0  0  0  0  0  0
    9.1058   -2.0261   20.8620 H   0  0  0  0  0  0  0  0  0  0  0  0
    9.3824   -0.7819   22.9369 H   0  0  0  0  0  0  0  0  0  0  0  0
    8.8953    1.6406   23.0934 H   0  0  0  0  0  0  0  0  0  0  0  0
    8.9382    1.6812   21.3376 H   0  0  0  0  0  0  0  0  0  0  0  0
   11.3458    2.6527   22.3442 C   0  0  0  0  0  0  0  0  0  0  0  0
   12.1225    3.1279   21.2749 C   0  0  0  0  0  0  0  0  0  0  0  0
   12.7810    4.3601   21.3254 C   0  0  0  0  0  0  0  0  0  0  0  0
   12.6578    5.1624   22.4631 C   0  0  0  0  0  0  0  0  0  0  0  0
   11.8434    4.7510   23.5208 C   0  0  0  0  0  0  0  0  0  0  0  0
   11.1577    3.5338   23.4306 C   0  0  0  0  0  0  0  0  0  0  0  0
   10.0396    3.1679   24.7304 Cl  0  0  0  0  0  0  0  0  0  0  0  0
   11.7434    5.3440   24.4262 H   0  0  0  0  0  0  0  0  0  0  0  0
   13.1813    6.1127   22.5241 H   0  0  0  0  0  0  0  0  0  0  0  0
   13.4212    4.6689   20.5000 H   0  0  0  0  0  0  0  0  0  0  0  0
   12.2308    2.5023   20.3956 H   0  0  0  0  0  0  0  0  0  0  0  0
   11.2418    0.7436   21.3755 H   0  0  0  0  0  0  0  0  0  0  0  0
   12.0831    0.8351   23.7337 H   0  0  0  0  0  0  0  0  0  0  0  0
  1  2  1  0
  2  3  1  0
  3  4  1  0
  4  5  1  0
  5  6  1  0
  6  7  1  0
  6  8  1  0
  8  9  2  0
  9 10  1  0
 10 11  2  0
 11 12  1  0
 12 13  2  0
 13 14  1  0
 11 15  1  0
 10 16  1  0
  9 17  1  0
  6 18  1  0
 18 19  1  0
 18 20  1  0
  5 21  1  0
  5 22  1  0
  4 23  1  0
  3 24  1  0
  3 25  1  0
  2 26  1  0
 26 27  2  0
 27 28  1  0
 28 29  2  0
 29 30  1  0
 30 31  2  0
 31 32  1  0
 30 33  1  0
 29 34  1  0
 28 35  1  0
 27 36  1  0
  2 37  1  6
  1 38  1  0
 18  4  1  0
 31 26  1  0
 13  8  1  0
M  CHG  1   4   1
M  END
>  <plip>  (1) 
-0.10344827586206896

>  <filename>  (1) 
[H][O][C@]([H])([c]1[c]([H])[c]([H])[c]([H])[c]([H])[c]1[Cl])[C]([H])([H])[N+]1([H])[C]([H])([H])[C]([F])([c]2[c]([H])[n][c]([H])[c]([H])[c]2[H])[C]1([H])[H]

$$$$
