
     RDKit          3D

 33 35  0  0  0  0  0  0  0  0999 V2000
    4.9314    1.8162   16.9760 H   0  0  0  0  0  0  0  0  0  0  0  0
    5.4036    1.2944   17.8074 C   0  0  0  0  0  0  0  0  0  0  0  0
    6.5560    0.6657   17.5350 N   0  0  0  0  0  0  0  0  0  0  0  0
    7.1594    0.0285   18.5471 C   0  0  0  0  0  0  0  0  0  0  0  0
    8.1085   -0.4478   18.2998 H   0  0  0  0  0  0  0  0  0  0  0  0
    6.6613   -0.0372   19.8659 C   0  0  0  0  0  0  0  0  0  0  0  0
    7.3978   -0.7784   20.9872 C   0  0  1  0  0  0  0  0  0  0  0  0
    8.3863   -1.0769   20.6215 H   0  0  0  0  0  0  0  0  0  0  0  0
    7.7237    0.1126   22.2007 C   0  0  0  0  0  0  0  0  0  0  0  0
    8.4582    1.0747   22.1830 O   0  0  0  0  0  0  0  0  0  0  0  0
    7.0725   -0.4607   23.2856 N   0  0  0  0  0  0  0  0  0  0  0  0
    6.9189    0.0917   24.5592 N   0  0  0  0  0  0  0  0  0  0  0  0
    7.4519   -0.3475   25.2967 H   0  0  0  0  0  0  0  0  0  0  0  0
    6.7983    1.4645   24.7924 C   0  0  0  0  0  0  0  0  0  0  0  0
    6.2502    2.2670   24.0756 O   0  0  0  0  0  0  0  0  0  0  0  0
    7.3245    1.8017   26.1628 C   0  0  0  0  0  0  0  0  0  0  0  0
    6.5175    1.7826   26.8897 H   0  0  0  0  0  0  0  0  0  0  0  0
    8.6593    1.3982   26.7128 C   0  0  0  0  0  0  0  0  0  0  0  0
    9.3993    0.9121   26.0764 H   0  0  0  0  0  0  0  0  0  0  0  0
    8.6432    1.0646   27.7465 H   0  0  0  0  0  0  0  0  0  0  0  0
    8.3785    2.8481   26.4129 C   0  0  0  0  0  0  0  0  0  0  0  0
    8.2219    3.5548   27.2245 H   0  0  0  0  0  0  0  0  0  0  0  0
    8.9097    3.2630   25.5584 H   0  0  0  0  0  0  0  0  0  0  0  0
    6.7761   -1.8749   23.0987 C   0  0  0  0  0  0  0  0  0  0  0  0
    7.5853   -2.5129   23.4979 H   0  0  0  0  0  0  0  0  0  0  0  0
    5.8536   -2.1495   23.6325 H   0  0  0  0  0  0  0  0  0  0  0  0
    6.6435   -1.9989   21.5741 C   0  0  0  0  0  0  0  0  0  0  0  0
    5.5831   -1.9827   21.3038 H   0  0  0  0  0  0  0  0  0  0  0  0
    7.0500   -2.9481   21.2134 H   0  0  0  0  0  0  0  0  0  0  0  0
    5.4564    0.6333   20.1226 C   0  0  0  0  0  0  0  0  0  0  0  0
    5.0460    0.6604   21.1364 H   0  0  0  0  0  0  0  0  0  0  0  0
    4.8163    1.3025   19.0753 C   0  0  0  0  0  0  0  0  0  0  0  0
    3.8891    1.8392   19.2292 H   0  0  0  0  0  0  0  0  0  0  0  0
  1  2  1  0
  2  3  2  0
  3  4  1  0
  4  5  1  0
  4  6  2  0
  6  7  1  0
  7  8  1  6
  7  9  1  0
  9 10  2  0
  9 11  1  0
 11 12  1  0
 12 13  1  0
 12 14  1  0
 14 15  2  0
 14 16  1  0
 16 17  1  0
 16 18  1  0
 18 19  1  0
 18 20  1  0
 18 21  1  0
 21 22  1  0
 21 23  1  0
 11 24  1  0
 24 25  1  0
 24 26  1  0
 24 27  1  0
 27 28  1  0
 27 29  1  0
  6 30  1  0
 30 31  1  0
 30 32  2  0
 32 33  1  0
 32  2  1  0
 27  7  1  0
 21 16  1  0
M  END
>  <plip>  (1) 
-0.07142857142857142

>  <filename>  (1) 
[H][c]1[n][c]([H])[c]([C@@]2([H])[C](=[O])[N]([N]([H])[C](=[O])[C]3([H])[C]([H])([H])[C]3([H])[H])[C]([H])([H])[C]2([H])[H])[c]([H])[c]1[H]

$$$$
