
     RDKit          3D

 38 39  0  0  0  0  0  0  0  0999 V2000
    9.5680   -2.8166   20.8845 O   0  0  0  0  0  0  0  0  0  0  0  0
    9.0873   -2.8085   22.2320 C   0  0  0  0  0  0  0  0  0  0  0  0
    7.5493   -2.7982   22.1951 C   0  0  1  0  0  0  0  0  0  0  0  0
    6.9197   -2.5014   23.5734 C   0  0  0  0  0  0  0  0  0  0  0  0
    7.2436   -3.5719   24.6100 C   0  0  0  0  0  0  0  0  0  0  0  0
    8.4150   -3.5082   25.3858 C   0  0  0  0  0  0  0  0  0  0  0  0
    8.7086   -4.4824   26.3479 C   0  0  0  0  0  0  0  0  0  0  0  0
    7.8293   -5.5483   26.5473 C   0  0  0  0  0  0  0  0  0  0  0  0
    8.0467   -6.5012   27.4903 O   0  0  0  0  0  0  0  0  0  0  0  0
    8.9658   -6.4565   27.7866 H   0  0  0  0  0  0  0  0  0  0  0  0
    6.6713   -5.6505   25.7700 C   0  0  0  0  0  0  0  0  0  0  0  0
    6.3930   -4.6787   24.8062 C   0  0  0  0  0  0  0  0  0  0  0  0
    5.4918   -4.7959   24.2027 H   0  0  0  0  0  0  0  0  0  0  0  0
    6.0151   -6.4958   25.9500 H   0  0  0  0  0  0  0  0  0  0  0  0
    9.6058   -4.4221   26.9550 H   0  0  0  0  0  0  0  0  0  0  0  0
    9.1276   -2.6976   25.2333 H   0  0  0  0  0  0  0  0  0  0  0  0
    5.8324   -2.4364   23.4466 H   0  0  0  0  0  0  0  0  0  0  0  0
    7.2531   -1.5169   23.9295 H   0  0  0  0  0  0  0  0  0  0  0  0
    7.0828   -1.9159   21.0512 N   0  0  0  0  0  4  0  0  0  0  0  0
    7.3893   -0.4486   21.0735 C   0  0  0  0  0  0  0  0  0  0  0  0
    6.6163    0.1305   19.9246 C   0  0  0  0  0  0  0  0  0  0  0  0
    5.3863    0.7790   20.1010 C   0  0  0  0  0  0  0  0  0  0  0  0
    4.7717    1.3729   18.9982 C   0  0  0  0  0  0  0  0  0  0  0  0
    5.3962    1.2706   17.7509 C   0  0  0  0  0  0  0  0  0  0  0  0
    6.5295    0.5824   17.5472 N   0  0  0  0  0  0  0  0  0  0  0  0
    7.1034    0.0088   18.6122 C   0  0  0  0  0  0  0  0  0  0  0  0
    8.0087   -0.5644   18.3932 H   0  0  0  0  0  0  0  0  0  0  0  0
    4.9652    1.7522   16.8752 H   0  0  0  0  0  0  0  0  0  0  0  0
    3.8379    1.9172   19.0932 H   0  0  0  0  0  0  0  0  0  0  0  0
    4.9211    0.8095   21.0901 H   0  0  0  0  0  0  0  0  0  0  0  0
    7.1053    0.0000   22.0317 H   0  0  0  0  0  0  0  0  0  0  0  0
    8.4682   -0.2960   20.9433 H   0  0  0  0  0  0  0  0  0  0  0  0
    7.6496   -2.2756   20.2387 H   0  0  0  0  0  0  0  0  0  0  0  0
    6.0781   -2.0134   20.8069 H   0  0  0  0  0  0  0  0  0  0  0  0
    7.2426   -3.8103   21.9434 H   0  0  0  0  0  0  0  0  0  0  0  0
    9.4374   -1.9222   22.7856 H   0  0  0  0  0  0  0  0  0  0  0  0
    9.4082   -3.7046   22.7759 H   0  0  0  0  0  0  0  0  0  0  0  0
   10.5340   -2.8941   20.9042 H   0  0  0  0  0  0  0  0  0  0  0  0
  1  2  1  0
  2  3  1  0
  3  4  1  0
  4  5  1  0
  5  6  2  0
  6  7  1  0
  7  8  2  0
  8  9  1  0
  9 10  1  0
  8 11  1  0
 11 12  2  0
 12 13  1  0
 11 14  1  0
  7 15  1  0
  6 16  1  0
  4 17  1  0
  4 18  1  0
  3 19  1  0
 19 20  1  0
 20 21  1  0
 21 22  2  0
 22 23  1  0
 23 24  2  0
 24 25  1  0
 25 26  2  0
 26 27  1  0
 24 28  1  0
 23 29  1  0
 22 30  1  0
 20 31  1  0
 20 32  1  0
 19 33  1  0
 19 34  1  0
  3 35  1  6
  2 36  1  0
  2 37  1  0
  1 38  1  0
 12  5  1  0
 26 21  1  0
M  CHG  1  19   1
M  END
>  <plip>  (1) 
-0.16666666666666666

>  <filename>  (1) 
[H][O][c]1[c]([H])[c]([H])[c]([C]([H])([H])[C@]([H])([C]([H])([H])[O][H])[N+]([H])([H])[C]([H])([H])[c]2[c]([H])[n][c]([H])[c]([H])[c]2[H])[c]([H])[c]1[H]

$$$$
