
     RDKit          3D

 38 40  0  0  0  0  0  0  0  0999 V2000
   -0.0738   -3.7654   27.0889 C   0  0  0  0  0  0  0  0  0  0  0  0
    1.2407   -4.9881   27.3441 S   0  0  0  0  0  0  0  0  0  0  0  0
    2.0581   -4.8957   25.7578 C   0  0  0  0  0  0  0  0  0  0  0  0
    1.6257   -5.7466   24.6981 C   0  0  0  0  0  0  0  0  0  0  0  0
    2.2601   -5.7318   23.4615 C   0  0  0  0  0  0  0  0  0  0  0  0
    3.3561   -4.8585   23.2668 C   0  0  0  0  0  0  0  0  0  0  0  0
    4.1962   -4.5561   22.1543 C   0  0  0  0  0  0  0  0  0  0  0  0
    4.9627   -3.4627   22.4792 C   0  0  0  0  0  0  0  0  0  0  0  0
    5.8316   -2.5908   21.5727 C   0  0  0  0  0  0  0  0  0  0  0  0
    5.7964   -2.7905   20.3496 O   0  0  0  0  0  0  0  0  0  0  0  0
    6.5186   -1.6327   22.1952 N   0  0  0  0  0  0  0  0  0  0  0  0
    7.5444   -0.9315   21.1184 S   0  0  0  0  0  0  0  0  0  0  0  0
    8.5571   -1.7755   20.5048 O   0  0  0  0  0  0  0  0  0  0  0  0
    8.2602    0.3312   22.1364 C   0  0  0  0  0  0  0  0  0  0  0  0
    7.4665    0.9628   22.5365 H   0  0  0  0  0  0  0  0  0  0  0  0
    8.9760    0.8945   21.5412 H   0  0  0  0  0  0  0  0  0  0  0  0
    8.7558   -0.2213   22.9325 H   0  0  0  0  0  0  0  0  0  0  0  0
    6.5589   -0.1114   19.9601 C   0  0  0  0  0  0  0  0  0  0  0  0
    5.3666    0.5741   20.2165 C   0  0  0  0  0  0  0  0  0  0  0  0
    4.8150    1.2671   19.1384 C   0  0  0  0  0  0  0  0  0  0  0  0
    5.4610    1.2471   17.8977 C   0  0  0  0  0  0  0  0  0  0  0  0
    6.6090    0.5882   17.6797 N   0  0  0  0  0  0  0  0  0  0  0  0
    7.1420   -0.0810   18.6956 C   0  0  0  0  0  0  0  0  0  0  0  0
    8.0857   -0.5889   18.4987 H   0  0  0  0  0  0  0  0  0  0  0  0
    5.0404    1.7745   17.0416 H   0  0  0  0  0  0  0  0  0  0  0  0
    3.8987    1.8378   19.2378 H   0  0  0  0  0  0  0  0  0  0  0  0
    4.8687    0.6062   21.1903 H   0  0  0  0  0  0  0  0  0  0  0  0
    4.7279   -3.1656   23.8237 N   0  0  0  0  0  0  0  0  0  0  0  0
    3.7373   -3.9775   24.3103 C   0  0  0  0  0  0  0  0  0  0  0  0
    3.0965   -3.9850   25.5603 C   0  0  0  0  0  0  0  0  0  0  0  0
    3.3901   -3.2851   26.3364 H   0  0  0  0  0  0  0  0  0  0  0  0
    4.9948   -2.2801   24.2332 H   0  0  0  0  0  0  0  0  0  0  0  0
    4.2841   -5.1643   21.2685 H   0  0  0  0  0  0  0  0  0  0  0  0
    1.8995   -6.3575   22.6475 H   0  0  0  0  0  0  0  0  0  0  0  0
    0.7897   -6.4195   24.8754 H   0  0  0  0  0  0  0  0  0  0  0  0
    0.3441   -2.7797   26.8661 H   0  0  0  0  0  0  0  0  0  0  0  0
   -0.6376   -3.7071   28.0240 H   0  0  0  0  0  0  0  0  0  0  0  0
   -0.7491   -4.0714   26.2852 H   0  0  0  0  0  0  0  0  0  0  0  0
  1  2  1  0
  2  3  1  0
  3  4  2  0
  4  5  1  0
  5  6  2  0
  6  7  1  0
  7  8  2  0
  8  9  1  0
  9 10  2  0
  9 11  1  0
 11 12  2  0
 12 13  2  0
 12 14  1  0
 14 15  1  0
 14 16  1  0
 14 17  1  0
 12 18  1  0
 18 19  2  0
 19 20  1  0
 20 21  2  0
 21 22  1  0
 22 23  2  0
 23 24  1  0
 21 25  1  0
 20 26  1  0
 19 27  1  0
  8 28  1  0
 28 29  1  0
 29 30  2  0
 30 31  1  0
 28 32  1  0
  7 33  1  0
  5 34  1  0
  4 35  1  0
  1 36  1  0
  1 37  1  0
  1 38  1  0
 30  3  1  0
 29  6  1  0
 23 18  1  0
M  END
>  <plip>  (1) 
-0.06451612903225806

>  <filename>  (1) 
[H][c]1[n][c]([H])[c]([S](=[O])(=[N][C](=[O])[c]2[c]([H])[c]3[c]([H])[c]([H])[c]([S][C]([H])([H])[H])[c]([H])[c]3[n]2[H])[C]([H])([H])[H])[c]([H])[c]1[H]

$$$$
