
     RDKit          3D

 47 49  0  0  0  0  0  0  0  0999 V2000
    5.3332   -1.3128   25.6742 C   0  0  0  0  0  0  0  0  0  0  0  0
    5.2647   -2.8541   25.4382 C   0  0  0  0  0  0  0  0  0  0  0  0
    4.1403   -3.3961   26.3575 C   0  0  0  0  0  0  0  0  0  0  0  0
    3.1904   -2.8970   26.1239 H   0  0  0  0  0  0  0  0  0  0  0  0
    4.0052   -4.4781   26.2364 H   0  0  0  0  0  0  0  0  0  0  0  0
    4.3642   -3.1915   27.4109 H   0  0  0  0  0  0  0  0  0  0  0  0
    4.9159   -3.2283   23.9841 C   0  0  0  0  0  0  0  0  0  0  0  0
    5.8844   -2.5938   23.1055 N   0  0  0  0  0  0  0  0  0  0  0  0
    5.8850   -2.8061   21.7672 C   0  0  0  0  0  0  0  0  0  0  0  0
    4.9815   -3.3737   21.1768 O   0  0  0  0  0  0  0  0  0  0  0  0
    7.1293   -2.3255   21.0609 C   0  0  2  0  0  0  0  0  0  0  0  0
    8.4698   -2.8926   21.5905 C   0  0  0  0  0  0  0  0  0  0  0  0
    9.3869   -1.6668   21.5943 C   0  0  0  0  0  0  0  0  0  0  0  0
    8.7380   -0.6810   20.8169 O   0  0  0  0  0  0  0  0  0  0  0  0
    7.3422   -0.7916   21.0385 C   0  0  1  0  0  0  0  0  0  0  0  0
    6.6091   -0.0394   19.9515 C   0  0  0  0  0  0  0  0  0  0  0  0
    5.3976    0.6351   20.1654 C   0  0  0  0  0  0  0  0  0  0  0  0
    4.7954    1.2943   19.0891 C   0  0  0  0  0  0  0  0  0  0  0  0
    5.4292    1.2715   17.8431 C   0  0  0  0  0  0  0  0  0  0  0  0
    6.5905    0.6401   17.6206 N   0  0  0  0  0  0  0  0  0  0  0  0
    7.1586    0.0146   18.6588 C   0  0  0  0  0  0  0  0  0  0  0  0
    8.1132   -0.4651   18.4580 H   0  0  0  0  0  0  0  0  0  0  0  0
    4.9976    1.7909   16.9875 H   0  0  0  0  0  0  0  0  0  0  0  0
    3.8689    1.8468   19.2014 H   0  0  0  0  0  0  0  0  0  0  0  0
    4.9350    0.6616   21.1554 H   0  0  0  0  0  0  0  0  0  0  0  0
    7.0919   -0.3367   22.0141 H   0  0  0  0  0  0  0  0  0  0  0  0
   10.3645   -1.8706   21.1511 H   0  0  0  0  0  0  0  0  0  0  0  0
    9.5365   -1.2812   22.6116 H   0  0  0  0  0  0  0  0  0  0  0  0
    8.4222   -3.3414   22.5924 H   0  0  0  0  0  0  0  0  0  0  0  0
    8.8314   -3.6686   20.9172 H   0  0  0  0  0  0  0  0  0  0  0  0
    6.9789   -2.6351   20.0294 H   0  0  0  0  0  0  0  0  0  0  0  0
    6.8038   -2.5116   23.5057 H   0  0  0  0  0  0  0  0  0  0  0  0
    3.8946   -2.9330   23.7166 H   0  0  0  0  0  0  0  0  0  0  0  0
    4.9587   -4.3230   23.8720 H   0  0  0  0  0  0  0  0  0  0  0  0
    6.6279   -3.5034   25.7844 C   0  0  0  0  0  0  0  0  0  0  0  0
    7.1296   -3.3699   27.0810 C   0  0  0  0  0  0  0  0  0  0  0  0
    8.2051   -4.1676   27.4778 C   0  0  0  0  0  0  0  0  0  0  0  0
    8.8028   -5.0198   26.5532 C   0  0  0  0  0  0  0  0  0  0  0  0
    8.3195   -4.9973   25.2482 C   0  0  0  0  0  0  0  0  0  0  0  0
    7.2966   -4.2304   24.8581 N   0  0  0  0  0  0  0  0  0  0  0  0
    8.7704   -5.6347   24.4872 H   0  0  0  0  0  0  0  0  0  0  0  0
    9.6210   -5.6771   26.8273 H   0  0  0  0  0  0  0  0  0  0  0  0
    8.5251   -4.1624   28.5013 H   0  0  0  0  0  0  0  0  0  0  0  0
    6.6622   -2.6638   27.7542 H   0  0  0  0  0  0  0  0  0  0  0  0
    4.4230   -0.8207   25.3078 H   0  0  0  0  0  0  0  0  0  0  0  0
    6.1934   -0.8376   25.1841 H   0  0  0  0  0  0  0  0  0  0  0  0
    5.3996   -1.0881   26.7467 H   0  0  0  0  0  0  0  0  0  0  0  0
  1  2  1  0
  2  3  1  0
  3  4  1  0
  3  5  1  0
  3  6  1  0
  2  7  1  0
  7  8  1  0
  8  9  1  0
  9 10  2  0
  9 11  1  0
 11 12  1  0
 12 13  1  0
 13 14  1  0
 14 15  1  0
 15 16  1  0
 16 17  2  0
 17 18  1  0
 18 19  2  0
 19 20  1  0
 20 21  2  0
 21 22  1  0
 19 23  1  0
 18 24  1  0
 17 25  1  0
 15 26  1  1
 13 27  1  0
 13 28  1  0
 12 29  1  0
 12 30  1  0
 11 31  1  6
  8 32  1  0
  7 33  1  0
  7 34  1  0
  2 35  1  0
 35 36  2  0
 36 37  1  0
 37 38  2  0
 38 39  1  0
 39 40  2  0
 39 41  1  0
 38 42  1  0
 37 43  1  0
 36 44  1  0
  1 45  1  0
  1 46  1  0
  1 47  1  0
 15 11  1  0
 21 16  1  0
 40 35  1  0
M  END
>  <plip>  (1) 
-0.07142857142857142

>  <filename>  (1) 
[H][c]1[n][c]([C]([C]([H])([H])[H])([C]([H])([H])[H])[C]([H])([H])[N]([H])[C](=[O])[C@]2([H])[C]([H])([H])[C]([H])([H])[O][C@@]2([H])[c]2[c]([H])[n][c]([H])[c]([H])[c]2[H])[c]([H])[c]([H])[c]1[H]

$$$$
