
     RDKit          3D

 30 31  0  0  0  0  0  0  0  0999 V2000
    6.6999   -1.3662   21.5274 H   0  0  0  0  0  0  0  0  0  0  0  0
    7.2987   -0.6597   20.9547 C   0  0  0  0  0  0  0  0  0  0  0  0
    8.5660   -0.5046   21.3551 C   0  0  0  0  0  0  0  0  0  0  0  0
    9.5728    0.7328   20.6481 Cl  0  0  0  0  0  0  0  0  0  0  0  0
    9.2011   -1.3250   22.4214 C   0  0  0  0  0  0  0  0  0  0  0  0
   10.4792   -1.8721   22.2310 C   0  0  0  0  0  0  0  0  0  0  0  0
   11.0344   -1.5921   21.3408 H   0  0  0  0  0  0  0  0  0  0  0  0
   11.0014   -2.7512   23.1814 C   0  0  0  0  0  0  0  0  0  0  0  0
   11.9565   -3.2369   23.0185 H   0  0  0  0  0  0  0  0  0  0  0  0
   10.3108   -3.0087   24.3705 C   0  0  0  0  0  0  0  0  0  0  0  0
   10.7729   -3.6638   25.1072 H   0  0  0  0  0  0  0  0  0  0  0  0
    9.0491   -2.4312   24.6076 C   0  0  0  0  0  0  0  0  0  0  0  0
    8.2975   -2.6402   25.9142 C   0  0  0  0  0  0  0  0  0  0  0  0
    8.6010   -3.5811   26.3822 H   0  0  0  0  0  0  0  0  0  0  0  0
    7.2293   -2.7503   25.6994 H   0  0  0  0  0  0  0  0  0  0  0  0
    8.4239   -1.5856   26.9264 N   0  0  0  0  0  0  0  0  0  0  0  0
    9.4011   -1.4427   27.1636 H   0  0  0  0  0  0  0  0  0  0  0  0
    8.0979   -0.7021   26.5461 H   0  0  0  0  0  0  0  0  0  0  0  0
    8.4934   -1.6319   23.5959 C   0  0  0  0  0  0  0  0  0  0  0  0
    7.4934   -1.2203   23.7268 H   0  0  0  0  0  0  0  0  0  0  0  0
    6.5977    0.0117   19.8353 C   0  0  0  0  0  0  0  0  0  0  0  0
    7.1209    0.0658   18.5297 C   0  0  0  0  0  0  0  0  0  0  0  0
    8.0631   -0.4336   18.2999 H   0  0  0  0  0  0  0  0  0  0  0  0
    6.5240    0.7015   17.5145 N   0  0  0  0  0  0  0  0  0  0  0  0
    5.3681    1.3310   17.7797 C   0  0  0  0  0  0  0  0  0  0  0  0
    4.9161    1.8667   16.9505 H   0  0  0  0  0  0  0  0  0  0  0  0
    4.7480    1.3278   19.0335 C   0  0  0  0  0  0  0  0  0  0  0  0
    3.8221    1.8734   19.1829 H   0  0  0  0  0  0  0  0  0  0  0  0
    5.3683    0.6409   20.0746 C   0  0  0  0  0  0  0  0  0  0  0  0
    4.9364    0.6297   21.0785 H   0  0  0  0  0  0  0  0  0  0  0  0
  1  2  1  0
  2  3  2  3
  3  4  1  0
  3  5  1  0
  5  6  2  0
  6  7  1  0
  6  8  1  0
  8  9  1  0
  8 10  2  0
 10 11  1  0
 10 12  1  0
 12 13  1  0
 13 14  1  0
 13 15  1  0
 13 16  1  0
 16 17  1  0
 16 18  1  0
 12 19  2  0
 19 20  1  0
  2 21  1  0
 21 22  2  0
 22 23  1  0
 22 24  1  0
 24 25  2  0
 25 26  1  0
 25 27  1  0
 27 28  1  0
 27 29  2  0
 29 30  1  0
 19  5  1  0
 29 21  1  0
M  END
>  <plip>  (1) 
-0.06896551724137931

>  <filename>  (1) 
[H][C](=[C]([Cl])[c]1[c]([H])[c]([H])[c]([H])[c]([C]([H])([H])[N]([H])[H])[c]1[H])[c]1[c]([H])[n][c]([H])[c]([H])[c]1[H]

$$$$
