
     RDKit          3D

 39 40  0  0  0  0  0  0  0  0999 V2000
    7.9236    1.4980   22.4164 C   0  0  0  0  0  0  0  0  0  0  0  0
    8.4480    0.1911   21.8063 C   0  0  0  0  0  0  0  0  0  0  0  0
    9.6343    0.4308   20.8633 C   0  0  0  0  0  0  0  0  0  0  0  0
   10.3962    1.0638   21.3295 H   0  0  0  0  0  0  0  0  0  0  0  0
    9.3185    0.9261   19.9439 H   0  0  0  0  0  0  0  0  0  0  0  0
   10.1410   -0.5009   20.5862 H   0  0  0  0  0  0  0  0  0  0  0  0
    7.3148   -0.6743   21.1656 C   0  0  0  0  0  0  0  0  0  0  0  0
    7.8219   -2.1125   20.8623 C   0  0  0  0  0  0  0  0  0  0  0  0
    8.1879   -2.8687   22.0462 N   0  0  0  0  0  0  0  0  0  0  0  0
    7.2647   -3.3365   22.9234 C   0  0  0  0  0  0  0  0  0  0  0  0
    5.9951   -3.3807   22.4908 N   0  0  0  0  0  0  0  0  0  0  0  0
    5.0991   -3.8834   23.3552 C   0  0  0  0  0  0  0  0  0  0  0  0
    5.4340   -4.3401   24.6397 C   0  0  0  0  0  0  0  0  0  0  0  0
    6.6967   -4.3051   25.0894 N   0  0  0  0  0  0  0  0  0  0  0  0
    7.6079   -3.7886   24.2389 C   0  0  0  0  0  0  0  0  0  0  0  0
    9.0657   -3.6138   24.5905 C   0  0  0  0  0  0  0  0  0  0  0  0
    9.8604   -4.2929   23.7201 F   0  0  0  0  0  0  0  0  0  0  0  0
    9.3999   -4.0141   25.8125 F   0  0  0  0  0  0  0  0  0  0  0  0
    9.4548   -2.3105   24.4785 F   0  0  0  0  0  0  0  0  0  0  0  0
    4.6759   -4.7247   25.3142 H   0  0  0  0  0  0  0  0  0  0  0  0
    4.0700   -3.9416   23.0192 H   0  0  0  0  0  0  0  0  0  0  0  0
    9.1511   -2.8452   22.3277 H   0  0  0  0  0  0  0  0  0  0  0  0
    8.7143   -2.0717   20.2316 H   0  0  0  0  0  0  0  0  0  0  0  0
    7.0383   -2.6751   20.3394 H   0  0  0  0  0  0  0  0  0  0  0  0
    6.6152   -0.0132   19.9803 C   0  0  0  0  0  0  0  0  0  0  0  0
    5.4153    0.6953   20.1631 C   0  0  0  0  0  0  0  0  0  0  0  0
    4.8148    1.3306   19.0742 C   0  0  0  0  0  0  0  0  0  0  0  0
    5.4374    1.2501   17.8260 C   0  0  0  0  0  0  0  0  0  0  0  0
    6.5736    0.5701   17.6143 N   0  0  0  0  0  0  0  0  0  0  0  0
    7.1302   -0.0424   18.6705 C   0  0  0  0  0  0  0  0  0  0  0  0
    8.0480   -0.5978   18.4629 H   0  0  0  0  0  0  0  0  0  0  0  0
    5.0026    1.7430   16.9588 H   0  0  0  0  0  0  0  0  0  0  0  0
    3.8893    1.8847   19.1818 H   0  0  0  0  0  0  0  0  0  0  0  0
    4.9635    0.7445   21.1555 H   0  0  0  0  0  0  0  0  0  0  0  0
    6.5461   -0.8198   21.9391 H   0  0  0  0  0  0  0  0  0  0  0  0
    8.8366   -0.3935   22.6531 H   0  0  0  0  0  0  0  0  0  0  0  0
    7.5041    2.1953   21.6813 H   0  0  0  0  0  0  0  0  0  0  0  0
    7.1435    1.2916   23.1587 H   0  0  0  0  0  0  0  0  0  0  0  0
    8.7375    2.0219   22.9340 H   0  0  0  0  0  0  0  0  0  0  0  0
  1  2  1  0
  2  3  1  0
  3  4  1  0
  3  5  1  0
  3  6  1  0
  2  7  1  0
  7  8  1  0
  8  9  1  0
  9 10  1  0
 10 11  2  0
 11 12  1  0
 12 13  2  0
 13 14  1  0
 14 15  2  0
 15 16  1  0
 16 17  1  0
 16 18  1  0
 16 19  1  0
 13 20  1  0
 12 21  1  0
  9 22  1  0
  8 23  1  0
  8 24  1  0
  7 25  1  0
 25 26  2  0
 26 27  1  0
 27 28  2  0
 28 29  1  0
 29 30  2  0
 30 31  1  0
 28 32  1  0
 27 33  1  0
 26 34  1  0
  7 35  1  0
  2 36  1  0
  1 37  1  0
  1 38  1  0
  1 39  1  0
 15 10  1  0
 30 25  1  0
M  END
>  <plip>  (1) 
-0.10344827586206896

>  <filename>  (1) 
[H][c]1[n][c]([N]([H])[C]([H])([H])[C]([H])([c]2[c]([H])[n][c]([H])[c]([H])[c]2[H])[C]([H])([C]([H])([H])[H])[C]([H])([H])[H])[c]([C]([F])([F])[F])[n][c]1[H]

$$$$
