
     RDKit          3D

 41 43  0  0  0  0  0  0  0  0999 V2000
    4.9034    1.8316   16.9462 H   0  0  0  0  0  0  0  0  0  0  0  0
    5.3736    1.3214   17.7841 C   0  0  0  0  0  0  0  0  0  0  0  0
    6.5259    0.6843   17.5210 N   0  0  0  0  0  0  0  0  0  0  0  0
    7.1348    0.0732   18.5502 C   0  0  0  0  0  0  0  0  0  0  0  0
    8.0772   -0.4173   18.3178 H   0  0  0  0  0  0  0  0  0  0  0  0
    6.6491    0.0595   19.8771 C   0  0  0  0  0  0  0  0  0  0  0  0
    7.3713   -0.6419   20.9935 C   0  0  0  0  0  0  0  0  0  0  0  0
    7.5352   -2.0618   20.9144 C   0  0  0  0  0  0  0  0  0  0  0  0
    7.0897   -2.5650   20.0541 H   0  0  0  0  0  0  0  0  0  0  0  0
    8.1642   -2.7734   21.8940 C   0  0  0  0  0  0  0  0  0  0  0  0
    8.3708   -3.8294   21.8504 H   0  0  0  0  0  0  0  0  0  0  0  0
    8.6217   -2.1084   23.1068 C   0  0  0  0  0  0  0  0  0  0  0  0
    9.2222   -2.6265   24.0290 O   0  0  0  0  0  0  0  0  0  0  0  0
    8.3168   -0.7665   23.1848 N   0  0  0  0  0  0  0  0  0  0  0  0
    8.7643   -0.3137   23.9656 H   0  0  0  0  0  0  0  0  0  0  0  0
    7.8412   -0.0052   22.1527 C   0  0  0  0  0  0  0  0  0  0  0  0
    7.9439    1.3380   22.4096 N   0  0  0  0  0  0  0  0  0  0  0  0
    8.4190    2.2767   21.3990 C   0  0  0  0  0  0  0  0  0  0  0  0
    9.4081    1.9688   21.0259 H   0  0  0  0  0  0  0  0  0  0  0  0
    7.7520    2.3133   20.5285 H   0  0  0  0  0  0  0  0  0  0  0  0
    8.4913    3.6010   22.1633 C   0  0  0  0  0  0  0  0  0  0  0  0
    9.4817    3.7025   22.6116 H   0  0  0  0  0  0  0  0  0  0  0  0
    8.3174    4.4632   21.5142 H   0  0  0  0  0  0  0  0  0  0  0  0
    7.4375    3.5301   23.2900 C   0  0  1  0  0  0  0  0  0  0  0  0
    7.8628    3.9117   24.2269 H   0  0  0  0  0  0  0  0  0  0  0  0
    6.2164    4.3278   23.0687 N   0  0  0  0  0  0  0  0  0  0  0  0
    6.4176    5.7505   23.3140 C   0  0  0  0  0  0  0  0  0  0  0  0
    7.1211    6.2469   22.6177 H   0  0  0  0  0  0  0  0  0  0  0  0
    6.7939    5.9057   24.3293 H   0  0  0  0  0  0  0  0  0  0  0  0
    5.4605    6.2785   23.2445 H   0  0  0  0  0  0  0  0  0  0  0  0
    5.5641    4.1113   21.7824 C   0  0  0  0  0  0  0  0  0  0  0  0
    5.4155    3.0491   21.5798 H   0  0  0  0  0  0  0  0  0  0  0  0
    6.1076    4.5418   20.9235 H   0  0  0  0  0  0  0  0  0  0  0  0
    4.5694    4.5663   21.8018 H   0  0  0  0  0  0  0  0  0  0  0  0
    7.1917    2.0087   23.4804 C   0  0  0  0  0  0  0  0  0  0  0  0
    6.1165    1.7821   23.4545 H   0  0  0  0  0  0  0  0  0  0  0  0
    7.5464    1.6888   24.4696 H   0  0  0  0  0  0  0  0  0  0  0  0
    5.4240    0.7034   20.1039 C   0  0  0  0  0  0  0  0  0  0  0  0
    4.9797    0.6669   21.1008 H   0  0  0  0  0  0  0  0  0  0  0  0
    4.7723    1.3505   19.0484 C   0  0  0  0  0  0  0  0  0  0  0  0
    3.8352    1.8824   19.1980 H   0  0  0  0  0  0  0  0  0  0  0  0
  1  2  1  0
  2  3  2  0
  3  4  1  0
  4  5  1  0
  4  6  2  0
  6  7  1  0
  7  8  1  0
  8  9  1  0
  8 10  2  0
 10 11  1  0
 10 12  1  0
 12 13  2  0
 12 14  1  0
 14 15  1  0
 14 16  1  0
 16 17  1  0
 17 18  1  0
 18 19  1  0
 18 20  1  0
 18 21  1  0
 21 22  1  0
 21 23  1  0
 21 24  1  0
 24 25  1  1
 24 26  1  0
 26 27  1  0
 27 28  1  0
 27 29  1  0
 27 30  1  0
 26 31  1  0
 31 32  1  0
 31 33  1  0
 31 34  1  0
 24 35  1  0
 35 36  1  0
 35 37  1  0
  6 38  1  0
 38 39  1  0
 38 40  2  0
 40 41  1  0
 40  2  1  0
 16  7  2  0
 35 17  1  0
M  END
>  <plip>  (1) 
-0.03571428571428571

>  <filename>  (1) 
[H][c]1[n][c]([H])[c](-[c]2[c]([H])[c]([H])[c](=[O])[n]([H])[c]2[N]2[C]([H])([H])[C]([H])([H])[C@@]([H])([N]([C]([H])([H])[H])[C]([H])([H])[H])[C]2([H])[H])[c]([H])[c]1[H]

$$$$
