
     RDKit          3D

 33 34  0  0  0  0  0  0  0  0999 V2000
    4.9893    1.9643   17.0668 H   0  0  0  0  0  0  0  0  0  0  0  0
    5.4325    1.3613   17.8529 C   0  0  0  0  0  0  0  0  0  0  0  0
    6.5529    0.7023   17.5151 N   0  0  0  0  0  0  0  0  0  0  0  0
    7.1339   -0.0272   18.4710 C   0  0  0  0  0  0  0  0  0  0  0  0
    8.0540   -0.5339   18.1895 H   0  0  0  0  0  0  0  0  0  0  0  0
    6.6574   -0.1618   19.7943 C   0  0  0  0  0  0  0  0  0  0  0  0
    7.3837   -1.0261   20.6650 N   0  0  0  0  0  0  0  0  0  0  0  0
    8.3966   -0.8802   20.6031 H   0  0  0  0  0  0  0  0  0  0  0  0
    7.0013   -0.8732   22.0297 O   0  0  0  0  0  0  0  0  0  0  0  0
    7.7638   -1.5571   22.9663 C   0  0  0  0  0  0  0  0  0  0  0  0
    8.7962   -2.1202   22.7644 O   0  0  0  0  0  0  0  0  0  0  0  0
    7.1100   -1.4254   24.1675 N   0  0  0  0  0  0  0  0  0  0  0  0
    6.2396   -0.9295   24.1442 H   0  0  0  0  0  0  0  0  0  0  0  0
    7.5722   -1.9743   25.3446 C   0  0  0  0  0  0  0  0  0  0  0  0
    8.6256   -2.5481   25.4459 O   0  0  0  0  0  0  0  0  0  0  0  0
    6.6390   -1.7792   26.5284 C   0  0  0  0  0  0  0  0  0  0  0  0
    6.8009   -2.6556   27.1628 H   0  0  0  0  0  0  0  0  0  0  0  0
    5.5960   -1.8058   26.1980 H   0  0  0  0  0  0  0  0  0  0  0  0
    6.9385   -0.5091   27.3009 C   0  0  0  0  0  0  0  0  0  0  0  0
    8.1485   -0.3765   27.9975 C   0  0  0  0  0  0  0  0  0  0  0  0
    8.9232   -1.1354   27.8945 H   0  0  0  0  0  0  0  0  0  0  0  0
    8.3062    0.6536   28.9299 C   0  0  0  0  0  0  0  0  0  0  0  0
    9.1602    0.6368   29.6042 H   0  0  0  0  0  0  0  0  0  0  0  0
    7.3580    1.6789   29.0089 C   0  0  0  0  0  0  0  0  0  0  0  0
    7.4987    2.4925   29.7163 H   0  0  0  0  0  0  0  0  0  0  0  0
    6.2257    1.6339   28.1875 C   0  0  0  0  0  0  0  0  0  0  0  0
    5.5094    2.4478   28.2098 H   0  0  0  0  0  0  0  0  0  0  0  0
    6.0084    0.5333   27.3484 C   0  0  0  0  0  0  0  0  0  0  0  0
    5.0969    0.4551   26.7557 H   0  0  0  0  0  0  0  0  0  0  0  0
    5.4767    0.5232   20.1206 C   0  0  0  0  0  0  0  0  0  0  0  0
    5.0770    0.4621   21.1312 H   0  0  0  0  0  0  0  0  0  0  0  0
    4.8644    1.3028   19.1302 C   0  0  0  0  0  0  0  0  0  0  0  0
    3.9758    1.8907   19.3421 H   0  0  0  0  0  0  0  0  0  0  0  0
  1  2  1  0
  2  3  2  0
  3  4  1  0
  4  5  1  0
  4  6  2  0
  6  7  1  0
  7  8  1  0
  7  9  1  0
  9 10  1  0
 10 11  2  0
 10 12  1  0
 12 13  1  0
 12 14  1  0
 14 15  2  0
 14 16  1  0
 16 17  1  0
 16 18  1  0
 16 19  1  0
 19 20  2  0
 20 21  1  0
 20 22  1  0
 22 23  1  0
 22 24  2  0
 24 25  1  0
 24 26  1  0
 26 27  1  0
 26 28  2  0
 28 29  1  0
  6 30  1  0
 30 31  1  0
 30 32  2  0
 32 33  1  0
 32  2  1  0
 28 19  1  0
M  END
>  <plip>  (1) 
-0.07142857142857142

>  <filename>  (1) 
[H][c]1[n][c]([H])[c]([N]([H])[O][C](=[O])[N]([H])[C](=[O])[C]([H])([H])[c]2[c]([H])[c]([H])[c]([H])[c]([H])[c]2[H])[c]([H])[c]1[H]

$$$$
