
     RDKit          3D

 41 44  0  0  0  0  0  0  0  0999 V2000
    4.9368    1.7843   17.0015 H   0  0  0  0  0  0  0  0  0  0  0  0
    5.4048    1.2826   17.8455 C   0  0  0  0  0  0  0  0  0  0  0  0
    6.5675    0.6601   17.5918 N   0  0  0  0  0  0  0  0  0  0  0  0
    7.1769    0.0458   18.6124 C   0  0  0  0  0  0  0  0  0  0  0  0
    8.1251   -0.4346   18.3729 H   0  0  0  0  0  0  0  0  0  0  0  0
    6.6766    0.0133   19.9393 C   0  0  0  0  0  0  0  0  0  0  0  0
    7.3708   -0.6503   20.9863 N   0  0  0  0  0  0  0  0  0  0  0  0
    7.3637   -0.2884   22.3337 C   0  0  0  0  0  0  0  0  0  0  0  0
    6.9187    0.7277   22.8055 O   0  0  0  0  0  0  0  0  0  0  0  0
    8.0107   -1.3289   23.0592 N   0  0  0  0  0  0  0  0  0  0  0  0
    8.0024   -1.3574   24.4775 N   0  0  0  0  0  0  0  0  0  0  0  0
    9.0656   -2.1370   25.1455 C   0  0  0  0  0  0  0  0  0  0  0  0
    9.1648   -3.1193   24.6628 H   0  0  0  0  0  0  0  0  0  0  0  0
   10.0317   -1.6284   25.0491 H   0  0  0  0  0  0  0  0  0  0  0  0
    8.5580   -2.2297   26.5938 C   0  0  0  0  0  0  0  0  0  0  0  0
    8.9157   -1.3859   27.1932 H   0  0  0  0  0  0  0  0  0  0  0  0
    8.9279   -3.1304   27.0930 H   0  0  0  0  0  0  0  0  0  0  0  0
    7.0154   -2.2183   26.4946 C   0  0  2  0  0  0  0  0  0  0  0  0
    6.5853   -1.5429   27.2373 H   0  0  0  0  0  0  0  0  0  0  0  0
    6.3304   -3.6005   26.6047 C   0  0  0  0  0  0  0  0  0  0  0  0
    5.7769   -3.7354   27.5465 H   0  0  0  0  0  0  0  0  0  0  0  0
    7.0862   -4.4096   26.5791 H   0  0  0  0  0  0  0  0  0  0  0  0
    5.4149   -3.6896   25.4614 N   0  0  0  0  0  0  0  0  0  0  0  0
    5.1282   -5.0577   25.0639 C   0  0  0  0  0  0  0  0  0  0  0  0
    4.6630   -5.6104   25.8876 H   0  0  0  0  0  0  0  0  0  0  0  0
    4.4358   -5.0626   24.2142 H   0  0  0  0  0  0  0  0  0  0  0  0
    6.0459   -5.6030   24.7567 H   0  0  0  0  0  0  0  0  0  0  0  0
    6.0226   -2.9228   24.3735 C   0  0  0  0  0  0  0  0  0  0  0  0
    6.7948   -3.4960   23.8252 H   0  0  0  0  0  0  0  0  0  0  0  0
    5.2732   -2.6298   23.6322 H   0  0  0  0  0  0  0  0  0  0  0  0
    6.6975   -1.7246   25.0601 C   0  0  2  0  0  0  0  0  0  0  0  0
    6.0454   -0.8449   25.0495 H   0  0  0  0  0  0  0  0  0  0  0  0
    8.4205   -2.3318   22.1988 C   0  0  0  0  0  0  0  0  0  0  0  0
    8.9563   -3.3881   22.4667 O   0  0  0  0  0  0  0  0  0  0  0  0
    8.0242   -1.9244   20.8074 C   0  0  0  0  0  0  0  0  0  0  0  0
    7.3486   -2.6963   20.4231 H   0  0  0  0  0  0  0  0  0  0  0  0
    8.9202   -1.8782   20.1773 H   0  0  0  0  0  0  0  0  0  0  0  0
    5.4514    0.6552   20.1811 C   0  0  0  0  0  0  0  0  0  0  0  0
    5.0360    0.6494   21.1855 H   0  0  0  0  0  0  0  0  0  0  0  0
    4.8173    1.2969   19.1128 C   0  0  0  0  0  0  0  0  0  0  0  0
    3.8863    1.8274   19.2600 H   0  0  0  0  0  0  0  0  0  0  0  0
  1  2  1  0
  2  3  2  0
  3  4  1  0
  4  5  1  0
  4  6  2  0
  6  7  1  0
  7  8  1  0
  8  9  2  0
  8 10  1  0
 10 11  1  0
 11 12  1  0
 12 13  1  0
 12 14  1  0
 12 15  1  0
 15 16  1  0
 15 17  1  0
 15 18  1  0
 18 19  1  1
 18 20  1  0
 20 21  1  0
 20 22  1  0
 20 23  1  0
 23 24  1  0
 24 25  1  0
 24 26  1  0
 24 27  1  0
 23 28  1  0
 28 29  1  0
 28 30  1  0
 28 31  1  0
 31 32  1  1
 10 33  1  0
 33 34  2  0
 33 35  1  0
 35 36  1  0
 35 37  1  0
  6 38  1  0
 38 39  1  0
 38 40  2  0
 40 41  1  0
 40  2  1  0
 35  7  1  0
 31 11  1  0
 31 18  1  0
M  END
>  <plip>  (1) 
-0.03571428571428571

>  <filename>  (1) 
[H][c]1[n][c]([H])[c]([N]2[C](=[O])[N]([N]3[C]([H])([H])[C]([H])([H])[C@]4([H])[C]([H])([H])[N]([C]([H])([H])[H])[C]([H])([H])[C@]34[H])[C](=[O])[C]2([H])[H])[c]([H])[c]1[H]

$$$$
