
     RDKit          3D

 19 20  0  0  0  0  0  0  0  0999 V2000
    9.2624   -2.9948   22.7535 H   0  0  0  0  0  0  0  0  0  0  0  0
    8.6623   -2.1784   22.3830 C   0  0  0  0  0  0  0  0  0  0  0  0
    8.2423   -1.2004   23.1127 N   0  0  0  0  0  0  0  0  0  0  0  0
    7.5132   -0.3542   22.3226 C   0  0  0  0  0  0  0  0  0  0  0  0
    6.9937    0.8062   22.8948 N   0  0  0  0  0  0  0  0  0  0  0  0
    7.1209    1.1670   24.0434 C   0  0  0  0  0  0  0  0  0  0  0  0
    7.2399    1.6266   25.5319 S   0  0  0  0  0  0  0  0  0  0  0  0
    7.3725   -0.6910   20.9859 C   0  0  0  0  0  0  0  0  0  0  0  0
    6.6636    0.0085   19.9055 C   0  0  0  0  0  0  0  0  0  0  0  0
    7.1720    0.0579   18.5830 C   0  0  0  0  0  0  0  0  0  0  0  0
    8.1238   -0.4254   18.3701 H   0  0  0  0  0  0  0  0  0  0  0  0
    6.5659    0.6809   17.5682 N   0  0  0  0  0  0  0  0  0  0  0  0
    5.3996    1.2936   17.8385 C   0  0  0  0  0  0  0  0  0  0  0  0
    4.9112    1.7794   16.9980 H   0  0  0  0  0  0  0  0  0  0  0  0
    4.8024    1.3093   19.1034 C   0  0  0  0  0  0  0  0  0  0  0  0
    3.8711    1.8450   19.2619 H   0  0  0  0  0  0  0  0  0  0  0  0
    5.4417    0.6537   20.1564 C   0  0  0  0  0  0  0  0  0  0  0  0
    5.0146    0.6307   21.1589 H   0  0  0  0  0  0  0  0  0  0  0  0
    8.2398   -2.1458   20.7354 S   0  0  0  0  0  0  0  0  0  0  0  0
  1  2  1  0
  2  3  2  0
  3  4  1  0
  4  5  1  0
  5  6  2  0
  6  7  2  0
  4  8  2  0
  8  9  1  0
  9 10  2  0
 10 11  1  0
 10 12  1  0
 12 13  2  0
 13 14  1  0
 13 15  1  0
 15 16  1  0
 15 17  2  0
 17 18  1  0
  8 19  1  0
 19  2  1  0
 17  9  1  0
M  END
>  <plip>  (1) 
-0.0

>  <filename>  (1) 
[H][c]1[n][c]([N]=[C]=[S])[c](-[c]2[c]([H])[n][c]([H])[c]([H])[c]2[H])[s]1

$$$$
