
     RDKit          3D

 27 29  0  0  0  0  0  0  0  0999 V2000
    9.8047   -0.0531   20.6000 C   0  0  0  0  0  0  0  0  0  0  0  0
    8.7207   -0.7661   21.3310 C   0  0  0  0  0  0  0  0  0  0  0  0
    8.9521   -1.5304   22.3786 N   0  0  0  0  0  0  0  0  0  0  0  0
    7.7161   -1.9728   22.7706 N   0  0  0  0  0  0  0  0  0  0  0  0
    7.5086   -2.8090   23.8831 C   0  0  0  0  0  0  0  0  0  0  0  0
    6.3383   -3.2266   24.2594 N   0  0  0  0  0  0  0  0  0  0  0  0
    6.4549   -4.0207   25.3722 C   0  0  0  0  0  0  0  0  0  0  0  0
    7.7176   -4.2123   25.8305 C   0  0  0  0  0  0  0  0  0  0  0  0
    8.8448   -3.3555   24.8362 S   0  0  0  0  0  0  0  0  0  0  0  0
    8.0194   -4.8040   26.6820 H   0  0  0  0  0  0  0  0  0  0  0  0
    5.5618   -4.4474   25.8188 H   0  0  0  0  0  0  0  0  0  0  0  0
    6.7395   -1.4867   21.9593 C   0  0  0  0  0  0  0  0  0  0  0  0
    7.3300   -0.7200   20.9983 C   0  0  0  0  0  0  0  0  0  0  0  0
    6.6571    0.0091   19.9032 C   0  0  0  0  0  0  0  0  0  0  0  0
    5.4349    0.6512   20.1488 C   0  0  0  0  0  0  0  0  0  0  0  0
    4.8034    1.3159   19.0970 C   0  0  0  0  0  0  0  0  0  0  0  0
    5.3971    1.2998   17.8286 C   0  0  0  0  0  0  0  0  0  0  0  0
    6.5595    0.6834   17.5586 N   0  0  0  0  0  0  0  0  0  0  0  0
    7.1627    0.0707   18.5854 C   0  0  0  0  0  0  0  0  0  0  0  0
    8.1056   -0.4250   18.3624 H   0  0  0  0  0  0  0  0  0  0  0  0
    4.9124    1.7887   16.9884 H   0  0  0  0  0  0  0  0  0  0  0  0
    3.8707    1.8468   19.2528 H   0  0  0  0  0  0  0  0  0  0  0  0
    5.0168    0.6333   21.1587 H   0  0  0  0  0  0  0  0  0  0  0  0
    5.6912   -1.7258   22.0877 H   0  0  0  0  0  0  0  0  0  0  0  0
   10.6852    0.1085   21.2223 H   0  0  0  0  0  0  0  0  0  0  0  0
   10.1019   -0.6368   19.7322 H   0  0  0  0  0  0  0  0  0  0  0  0
    9.4684    0.9025   20.1910 H   0  0  0  0  0  0  0  0  0  0  0  0
  1  2  1  0
  2  3  2  0
  3  4  1  0
  4  5  1  0
  5  6  2  0
  6  7  1  0
  7  8  2  0
  8  9  1  0
  8 10  1  0
  7 11  1  0
  4 12  1  0
 12 13  2  0
 13 14  1  0
 14 15  2  0
 15 16  1  0
 16 17  2  0
 17 18  1  0
 18 19  2  0
 19 20  1  0
 17 21  1  0
 16 22  1  0
 15 23  1  0
 12 24  1  0
  1 25  1  0
  1 26  1  0
  1 27  1  0
 13  2  1  0
 19 14  1  0
  9  5  1  0
M  END
>  <plip>  (1) 
-0.03571428571428571

>  <filename>  (1) 
[H][c]1[n][c](-[n]2[n][c]([C]([H])([H])[H])[c](-[c]3[c]([H])[n][c]([H])[c]([H])[c]3[H])[c]2[H])[s][c]1[H]

$$$$
