
     RDKit          3D

 39 41  0  0  0  0  0  0  0  0999 V2000
    8.1539    3.6660   22.8563 C   0  0  0  0  0  0  0  0  0  0  0  0
    8.7514    2.2843   22.6977 C   0  0  0  0  0  0  0  0  0  0  0  0
    8.9120    2.0013   21.1298 N   0  0  0  0  0  4  0  0  0  0  0  0
    9.5439    0.6696   20.8453 C   0  0  0  0  0  0  0  0  0  0  0  0
    8.6875   -0.4338   21.3938 C   0  0  0  0  0  0  0  0  0  0  0  0
    8.8751   -1.3669   22.3948 C   0  0  0  0  0  0  0  0  0  0  0  0
    7.6223   -1.9997   22.5385 C   0  0  0  0  0  0  0  0  0  0  0  0
    6.7279   -1.5120   21.6932 N   0  0  0  0  0  0  0  0  0  0  0  0
    7.3833   -0.5652   20.9908 N   0  0  0  0  0  0  0  0  0  0  0  0
    6.6924    0.0739   19.9342 C   0  0  0  0  0  0  0  0  0  0  0  0
    5.4499    0.6719   20.1681 C   0  0  0  0  0  0  0  0  0  0  0  0
    4.8310    1.3243   19.1023 C   0  0  0  0  0  0  0  0  0  0  0  0
    5.4425    1.3096   17.8430 C   0  0  0  0  0  0  0  0  0  0  0  0
    6.5964    0.6694   17.5984 N   0  0  0  0  0  0  0  0  0  0  0  0
    7.1943    0.0492   18.6241 C   0  0  0  0  0  0  0  0  0  0  0  0
    8.1123   -0.4925   18.3998 H   0  0  0  0  0  0  0  0  0  0  0  0
    4.9782    1.8147   16.9983 H   0  0  0  0  0  0  0  0  0  0  0  0
    3.8849    1.8328   19.2387 H   0  0  0  0  0  0  0  0  0  0  0  0
    4.9882    0.6051   21.1558 H   0  0  0  0  0  0  0  0  0  0  0  0
    7.3350   -2.7928   23.2163 H   0  0  0  0  0  0  0  0  0  0  0  0
    9.7638   -1.5295   22.9893 H   0  0  0  0  0  0  0  0  0  0  0  0
   10.5276    0.6243   21.3225 H   0  0  0  0  0  0  0  0  0  0  0  0
    9.6929    0.5328   19.7720 H   0  0  0  0  0  0  0  0  0  0  0  0
    9.5092    2.7984   20.8092 H   0  0  0  0  0  0  0  0  0  0  0  0
    7.9830    2.0552   20.6589 H   0  0  0  0  0  0  0  0  0  0  0  0
   10.0888    2.1164   23.4595 C   0  0  0  0  0  0  0  0  0  0  0  0
   10.2293    1.2006   24.5142 C   0  0  0  0  0  0  0  0  0  0  0  0
   11.5042    0.9073   25.0017 C   0  0  0  0  0  0  0  0  0  0  0  0
   12.5925    1.5805   24.4510 C   0  0  0  0  0  0  0  0  0  0  0  0
   12.3300    2.5938   23.5247 C   0  0  0  0  0  0  0  0  0  0  0  0
   13.6409    3.5993   22.9629 Cl  0  0  0  0  0  0  0  0  0  0  0  0
   11.1295    2.8656   23.0387 N   0  0  0  0  0  0  0  0  0  0  0  0
   13.6086    1.3427   24.7097 H   0  0  0  0  0  0  0  0  0  0  0  0
   11.6386    0.1869   25.8139 H   0  0  0  0  0  0  0  0  0  0  0  0
    9.3496    0.7461   24.9479 H   0  0  0  0  0  0  0  0  0  0  0  0
    8.0604    1.5248   23.0674 H   0  0  0  0  0  0  0  0  0  0  0  0
    7.9956    3.8923   23.9171 H   0  0  0  0  0  0  0  0  0  0  0  0
    8.8373    4.4139   22.4381 H   0  0  0  0  0  0  0  0  0  0  0  0
    7.1778    3.7375   22.3598 H   0  0  0  0  0  0  0  0  0  0  0  0
  1  2  1  0
  2  3  1  0
  3  4  1  0
  4  5  1  0
  5  6  2  0
  6  7  1  0
  7  8  2  0
  8  9  1  0
  9 10  1  0
 10 11  2  0
 11 12  1  0
 12 13  2  0
 13 14  1  0
 14 15  2  0
 15 16  1  0
 13 17  1  0
 12 18  1  0
 11 19  1  0
  7 20  1  0
  6 21  1  0
  4 22  1  0
  4 23  1  0
  3 24  1  0
  3 25  1  0
  2 26  1  0
 26 27  2  0
 27 28  1  0
 28 29  2  0
 29 30  1  0
 30 31  1  0
 30 32  2  0
 29 33  1  0
 28 34  1  0
 27 35  1  0
  2 36  1  0
  1 37  1  0
  1 38  1  0
  1 39  1  0
  9  5  1  0
 15 10  1  0
 32 26  1  0
M  CHG  1   3   1
M  END
>  <plip>  (1) 
-0.12903225806451613

>  <filename>  (1) 
[H][c]1[n][c]([H])[c](-[n]2[n][c]([H])[c]([H])[c]2[C]([H])([H])[N+]([H])([H])[C]([H])([c]2[n][c]([Cl])[c]([H])[c]([H])[c]2[H])[C]([H])([H])[H])[c]([H])[c]1[H]

$$$$
