
     RDKit          3D

 51 53  0  0  0  0  0  0  0  0999 V2000
    8.7645    1.1374   22.1186 C   0  0  0  0  0  0  0  0  0  0  0  0
    8.6590   -0.1434   21.3808 N   0  0  0  0  0  4  0  0  0  0  0  0
    9.4900   -1.2730   21.9509 C   0  0  0  0  0  0  0  0  0  0  0  0
    8.6511   -2.5463   21.7556 C   0  0  0  0  0  0  0  0  0  0  0  0
    7.4539   -2.1042   20.9054 C   0  0  1  0  0  0  0  0  0  0  0  0
    6.2228   -3.0102   20.8977 C   0  0  0  0  0  0  0  0  0  0  0  0
    5.5131   -3.0553   22.1700 N   0  0  0  0  0  0  0  0  0  0  0  0
    5.8477   -3.9371   23.1728 C   0  0  0  0  0  0  0  0  0  0  0  0
    6.4851   -4.9490   22.9458 O   0  0  0  0  0  0  0  0  0  0  0  0
    5.3064   -3.4997   24.6334 C   0  0  2  0  0  0  0  0  0  0  0  0
    3.7647   -3.5399   24.6831 C   0  0  0  0  0  0  0  0  0  0  0  0
    3.4526   -3.3300   25.7123 H   0  0  0  0  0  0  0  0  0  0  0  0
    3.3483   -2.7597   24.0452 H   0  0  0  0  0  0  0  0  0  0  0  0
    3.3503   -4.5067   24.3818 H   0  0  0  0  0  0  0  0  0  0  0  0
    5.5865   -2.1161   24.9191 O   0  0  0  0  0  0  0  0  0  0  0  0
    6.5080   -2.0262   25.2005 H   0  0  0  0  0  0  0  0  0  0  0  0
    5.8785   -4.4287   25.7109 C   0  0  0  0  0  0  0  0  0  0  0  0
    5.5908   -5.8004   25.6075 C   0  0  0  0  0  0  0  0  0  0  0  0
    5.9911   -6.6869   26.6069 C   0  0  0  0  0  0  0  0  0  0  0  0
    6.7330   -6.2331   27.7011 C   0  0  0  0  0  0  0  0  0  0  0  0
    7.0434   -4.8748   27.8028 C   0  0  0  0  0  0  0  0  0  0  0  0
    6.6031   -3.9778   26.8275 C   0  0  0  0  0  0  0  0  0  0  0  0
    6.7973   -2.9161   26.9676 H   0  0  0  0  0  0  0  0  0  0  0  0
    7.6232   -4.5140   28.6460 H   0  0  0  0  0  0  0  0  0  0  0  0
    7.0615   -6.9334   28.4644 H   0  0  0  0  0  0  0  0  0  0  0  0
    5.7204   -7.7324   26.5433 H   0  0  0  0  0  0  0  0  0  0  0  0
    5.0712   -6.1773   24.7296 H   0  0  0  0  0  0  0  0  0  0  0  0
    5.2028   -2.1682   22.5465 H   0  0  0  0  0  0  0  0  0  0  0  0
    6.5174   -4.0335   20.6253 H   0  0  0  0  0  0  0  0  0  0  0  0
    5.5253   -2.6546   20.1307 H   0  0  0  0  0  0  0  0  0  0  0  0
    7.2202   -0.6218   21.2078 C   0  0  2  0  0  0  0  0  0  0  0  0
    6.5493    0.1142   20.0613 C   0  0  0  0  0  0  0  0  0  0  0  0
    5.3158    0.7651   20.1946 C   0  0  0  0  0  0  0  0  0  0  0  0
    4.7497    1.3781   19.0733 C   0  0  0  0  0  0  0  0  0  0  0  0
    5.4294    1.3293   17.8549 C   0  0  0  0  0  0  0  0  0  0  0  0
    6.6091    0.7100   17.7034 N   0  0  0  0  0  0  0  0  0  0  0  0
    7.1447    0.1271   18.7812 C   0  0  0  0  0  0  0  0  0  0  0  0
    8.0968   -0.3755   18.5932 H   0  0  0  0  0  0  0  0  0  0  0  0
    5.0050    1.7941   16.9644 H   0  0  0  0  0  0  0  0  0  0  0  0
    3.7997    1.8952   19.1330 H   0  0  0  0  0  0  0  0  0  0  0  0
    4.8038    0.7970   21.1583 H   0  0  0  0  0  0  0  0  0  0  0  0
    6.6900   -0.4515   22.1575 H   0  0  0  0  0  0  0  0  0  0  0  0
    7.8097   -2.0217   19.8816 H   0  0  0  0  0  0  0  0  0  0  0  0
    8.3554   -2.9766   22.7188 H   0  0  0  0  0  0  0  0  0  0  0  0
    9.2188   -3.3162   21.2298 H   0  0  0  0  0  0  0  0  0  0  0  0
   10.4522   -1.3193   21.4268 H   0  0  0  0  0  0  0  0  0  0  0  0
    9.6906   -1.0933   23.0102 H   0  0  0  0  0  0  0  0  0  0  0  0
    8.9878    0.0089   20.4075 H   0  0  0  0  0  0  0  0  0  0  0  0
    8.3404    1.0233   23.1277 H   0  0  0  0  0  0  0  0  0  0  0  0
    9.8094    1.4532   22.2265 H   0  0  0  0  0  0  0  0  0  0  0  0
    8.1942    1.9201   21.6057 H   0  0  0  0  0  0  0  0  0  0  0  0
  1  2  1  0
  2  3  1  0
  3  4  1  0
  4  5  1  0
  5  6  1  0
  6  7  1  0
  7  8  1  0
  8  9  2  0
  8 10  1  0
 10 11  1  0
 11 12  1  0
 11 13  1  0
 11 14  1  0
 10 15  1  1
 15 16  1  0
 10 17  1  0
 17 18  2  0
 18 19  1  0
 19 20  2  0
 20 21  1  0
 21 22  2  0
 22 23  1  0
 21 24  1  0
 20 25  1  0
 19 26  1  0
 18 27  1  0
  7 28  1  0
  6 29  1  0
  6 30  1  0
  5 31  1  0
 31 32  1  0
 32 33  2  0
 33 34  1  0
 34 35  2  0
 35 36  1  0
 36 37  2  0
 37 38  1  0
 35 39  1  0
 34 40  1  0
 33 41  1  0
 31 42  1  1
  5 43  1  6
  4 44  1  0
  4 45  1  0
  3 46  1  0
  3 47  1  0
  2 48  1  0
  1 49  1  0
  1 50  1  0
  1 51  1  0
 31  2  1  0
 37 32  1  0
 22 17  1  0
M  CHG  1   2   1
M  END
>  <plip>  (1) 
-0.16666666666666666

>  <filename>  (1) 
[H][O][C@@]([C](=[O])[N]([H])[C]([H])([H])[C@]1([H])[C]([H])([H])[C]([H])([H])[N+]([H])([C]([H])([H])[H])[C@@]1([H])[c]1[c]([H])[n][c]([H])[c]([H])[c]1[H])([c]1[c]([H])[c]([H])[c]([H])[c]([H])[c]1[H])[C]([H])([H])[H]

$$$$
