
     RDKit          3D

 36 39  0  0  0  0  0  0  0  0999 V2000
    5.2941   -3.6852   27.7214 Br  0  0  0  0  0  0  0  0  0  0  0  0
    6.0000   -4.5959   26.1969 C   0  0  0  0  0  0  0  0  0  0  0  0
    7.1562   -5.3817   26.3029 C   0  0  0  0  0  0  0  0  0  0  0  0
    7.7146   -5.9765   25.1630 C   0  0  0  0  0  0  0  0  0  0  0  0
    7.0810   -5.8287   23.9291 C   0  0  0  0  0  0  0  0  0  0  0  0
    5.8818   -5.1149   23.8332 C   0  0  0  0  0  0  0  0  0  0  0  0
    5.2260   -4.9639   22.4951 C   0  0  0  0  0  0  0  0  0  0  0  0
    6.1016   -3.9978   21.7698 C   0  0  0  0  0  0  0  0  0  0  0  0
    7.2908   -4.3616   21.3734 N   0  0  0  0  0  0  0  0  0  0  0  0
    7.9117   -3.1450   21.0415 O   0  0  0  0  0  0  0  0  0  0  0  0
    6.9793   -2.1718   21.2363 C   0  0  0  0  0  0  0  0  0  0  0  0
    7.3202   -0.7080   21.0445 C   0  0  0  0  0  0  0  0  0  0  0  0
    6.6303    0.0144   19.9155 C   0  0  0  0  0  0  0  0  0  0  0  0
    5.4137    0.6513   20.1515 C   0  0  0  0  0  0  0  0  0  0  0  0
    4.8146    1.3061   19.0776 C   0  0  0  0  0  0  0  0  0  0  0  0
    5.4321    1.3012   17.8201 C   0  0  0  0  0  0  0  0  0  0  0  0
    6.6019    0.6803   17.5849 N   0  0  0  0  0  0  0  0  0  0  0  0
    7.1893    0.0580   18.6220 C   0  0  0  0  0  0  0  0  0  0  0  0
    8.1315   -0.4511   18.4412 H   0  0  0  0  0  0  0  0  0  0  0  0
    4.9532    1.8339   17.0059 H   0  0  0  0  0  0  0  0  0  0  0  0
    3.8750    1.8304   19.2055 H   0  0  0  0  0  0  0  0  0  0  0  0
    4.9562    0.6334   21.1423 H   0  0  0  0  0  0  0  0  0  0  0  0
    8.7761   -0.3046   21.2807 C   0  0  0  0  0  0  0  0  0  0  0  0
    7.7013    0.1178   22.2776 C   0  0  0  0  0  0  0  0  0  0  0  0
    7.4316    1.1784   22.2991 H   0  0  0  0  0  0  0  0  0  0  0  0
    7.7194   -0.3601   23.2629 H   0  0  0  0  0  0  0  0  0  0  0  0
    9.2024    0.4736   20.6405 H   0  0  0  0  0  0  0  0  0  0  0  0
    9.4887   -1.0692   21.6062 H   0  0  0  0  0  0  0  0  0  0  0  0
    5.8344   -2.6525   21.6459 N   0  0  0  0  0  0  0  0  0  0  0  0
    5.2055   -5.9216   21.9707 H   0  0  0  0  0  0  0  0  0  0  0  0
    4.2016   -4.5983   22.5954 H   0  0  0  0  0  0  0  0  0  0  0  0
    5.3940   -4.4328   24.9503 C   0  0  0  0  0  0  0  0  0  0  0  0
    4.5397   -3.7690   24.8590 H   0  0  0  0  0  0  0  0  0  0  0  0
    7.5161   -6.2761   23.0382 H   0  0  0  0  0  0  0  0  0  0  0  0
    8.6224   -6.5691   25.2327 H   0  0  0  0  0  0  0  0  0  0  0  0
    7.6425   -5.5105   27.2618 H   0  0  0  0  0  0  0  0  0  0  0  0
  1  2  1  0
  2  3  2  0
  3  4  1  0
  4  5  2  0
  5  6  1  0
  6  7  1  0
  7  8  1  0
  8  9  2  0
  9 10  1  0
 10 11  1  0
 11 12  1  0
 12 13  1  0
 13 14  2  0
 14 15  1  0
 15 16  2  0
 16 17  1  0
 17 18  2  0
 18 19  1  0
 16 20  1  0
 15 21  1  0
 14 22  1  0
 12 23  1  0
 23 24  1  0
 24 25  1  0
 24 26  1  0
 23 27  1  0
 23 28  1  0
 11 29  2  0
  7 30  1  0
  7 31  1  0
  6 32  2  0
 32 33  1  0
  5 34  1  0
  4 35  1  0
  3 36  1  0
 32  2  1  0
 29  8  1  0
 24 12  1  0
 18 13  1  0
M  END
>  <plip>  (1) 
-0.10344827586206896

>  <filename>  (1) 
[H][c]1[n][c]([H])[c]([C]2([c]3[n][c]([C]([H])([H])[c]4[c]([H])[c]([H])[c]([H])[c]([Br])[c]4[H])[n][o]3)[C]([H])([H])[C]2([H])[H])[c]([H])[c]1[H]

$$$$
