
     RDKit          3D

 34 35  0  0  0  0  0  0  0  0999 V2000
    5.1394    1.7241   17.0887 H   0  0  0  0  0  0  0  0  0  0  0  0
    5.5798    1.2123   17.9442 C   0  0  0  0  0  0  0  0  0  0  0  0
    6.7175    0.5396   17.7142 N   0  0  0  0  0  0  0  0  0  0  0  0
    7.2789   -0.0867   18.7508 C   0  0  0  0  0  0  0  0  0  0  0  0
    8.1971   -0.6324   18.5406 H   0  0  0  0  0  0  0  0  0  0  0  0
    6.7731   -0.0567   20.0555 C   0  0  0  0  0  0  0  0  0  0  0  0
    7.5724   -0.8038   21.0810 C   0  0  0  0  0  0  0  0  0  0  0  0
    7.5767   -2.0202   21.0556 O   0  0  0  0  0  0  0  0  0  0  0  0
    8.5529    0.0040   22.0418 C   0  0  0  0  0  0  0  0  0  0  0  0
    8.8005   -0.7069   23.3873 C   0  0  0  0  0  0  0  0  0  0  0  0
    7.8299   -1.3701   24.2296 C   0  0  0  0  0  0  0  0  0  0  0  0
    6.3559   -1.5504   24.0465 C   0  0  0  0  0  0  0  0  0  0  0  0
    6.1136   -2.1644   23.1736 H   0  0  0  0  0  0  0  0  0  0  0  0
    5.9169   -0.5578   23.9125 H   0  0  0  0  0  0  0  0  0  0  0  0
    5.8949   -1.9873   24.9381 H   0  0  0  0  0  0  0  0  0  0  0  0
    8.3621   -1.7698   25.3542 N   0  0  0  0  0  0  0  0  0  0  0  0
    9.6743   -1.3683   25.3149 O   0  0  0  0  0  0  0  0  0  0  0  0
    9.9220   -0.7151   24.1735 C   0  0  0  0  0  0  0  0  0  0  0  0
   11.2944   -0.1161   24.0806 C   0  0  0  0  0  0  0  0  0  0  0  0
   11.8776   -0.3290   24.9821 H   0  0  0  0  0  0  0  0  0  0  0  0
   11.8235   -0.4860   23.1986 H   0  0  0  0  0  0  0  0  0  0  0  0
   11.2239    0.9691   23.9595 H   0  0  0  0  0  0  0  0  0  0  0  0
    8.0076    1.4303   22.3377 C   0  0  0  0  0  0  0  0  0  0  0  0
    7.0641    1.3920   22.8949 H   0  0  0  0  0  0  0  0  0  0  0  0
    7.8333    2.0183   21.4287 H   0  0  0  0  0  0  0  0  0  0  0  0
    8.7189    1.9800   22.9642 H   0  0  0  0  0  0  0  0  0  0  0  0
    9.8794    0.1199   21.2342 C   0  0  0  0  0  0  0  0  0  0  0  0
   10.3334   -0.8648   21.0654 H   0  0  0  0  0  0  0  0  0  0  0  0
    9.7184    0.5888   20.2542 H   0  0  0  0  0  0  0  0  0  0  0  0
   10.6083    0.7355   21.7701 H   0  0  0  0  0  0  0  0  0  0  0  0
    5.5658    0.6217   20.2785 C   0  0  0  0  0  0  0  0  0  0  0  0
    5.1214    0.6664   21.2754 H   0  0  0  0  0  0  0  0  0  0  0  0
    4.9644    1.2663   19.1987 C   0  0  0  0  0  0  0  0  0  0  0  0
    4.0452    1.8241   19.3212 H   0  0  0  0  0  0  0  0  0  0  0  0
  1  2  1  0
  2  3  2  0
  3  4  1  0
  4  5  1  0
  4  6  2  0
  6  7  1  0
  7  8  2  0
  7  9  1  0
  9 10  1  0
 10 11  1  0
 11 12  1  0
 12 13  1  0
 12 14  1  0
 12 15  1  0
 11 16  2  0
 16 17  1  0
 17 18  1  0
 18 19  1  0
 19 20  1  0
 19 21  1  0
 19 22  1  0
  9 23  1  0
 23 24  1  0
 23 25  1  0
 23 26  1  0
  9 27  1  0
 27 28  1  0
 27 29  1  0
 27 30  1  0
  6 31  1  0
 31 32  1  0
 31 33  2  0
 33 34  1  0
 33  2  1  0
 18 10  2  0
M  END
>  <plip>  (1) 
-0.03571428571428571

>  <filename>  (1) 
[H][c]1[n][c]([H])[c]([C](=[O])[C]([c]2[c]([C]([H])([H])[H])[n][o][c]2[C]([H])([H])[H])([C]([H])([H])[H])[C]([H])([H])[H])[c]([H])[c]1[H]

$$$$
