
     RDKit          3D

 43 45  0  0  0  0  0  0  0  0999 V2000
    7.7476   -1.5915   25.4762 C   0  0  0  0  0  0  0  0  0  0  0  0
    7.0501   -2.2312   24.2609 C   0  0  0  0  0  0  0  0  0  0  0  0
    7.0856   -3.6912   24.3802 N   0  0  0  0  0  0  0  0  0  0  0  0
    6.3993   -4.3624   25.3616 C   0  0  0  0  0  0  0  0  0  0  0  0
    5.6211   -3.7957   26.1117 O   0  0  0  0  0  0  0  0  0  0  0  0
    6.7260   -5.8553   25.4136 C   0  0  0  0  0  0  0  0  0  0  0  0
    8.0093   -6.0920   26.2576 C   0  0  0  0  0  0  0  0  0  0  0  0
    7.7814   -5.8140   27.7523 C   0  0  0  0  0  0  0  0  0  0  0  0
    6.5546   -6.5545   28.3127 C   0  0  0  0  0  0  0  0  0  0  0  0
    5.2788   -6.4954   27.4504 C   0  0  0  0  0  0  0  0  0  0  0  0
    5.5413   -6.6916   25.9432 C   0  0  0  0  0  0  0  0  0  0  0  0
    5.7651   -7.7399   25.7353 H   0  0  0  0  0  0  0  0  0  0  0  0
    4.6317   -6.4484   25.3761 H   0  0  0  0  0  0  0  0  0  0  0  0
    4.7760   -5.5349   27.5981 H   0  0  0  0  0  0  0  0  0  0  0  0
    4.5924   -7.2806   27.7997 H   0  0  0  0  0  0  0  0  0  0  0  0
    6.8253   -7.6078   28.4509 H   0  0  0  0  0  0  0  0  0  0  0  0
    6.3361   -6.1936   29.3263 H   0  0  0  0  0  0  0  0  0  0  0  0
    8.6627   -6.1410   28.3184 H   0  0  0  0  0  0  0  0  0  0  0  0
    7.6983   -4.7310   27.9227 H   0  0  0  0  0  0  0  0  0  0  0  0
    8.3468   -7.1246   26.1110 H   0  0  0  0  0  0  0  0  0  0  0  0
    8.8288   -5.4663   25.8793 H   0  0  0  0  0  0  0  0  0  0  0  0
    6.9292   -6.1395   24.3694 H   0  0  0  0  0  0  0  0  0  0  0  0
    7.8890   -4.1811   24.0154 H   0  0  0  0  0  0  0  0  0  0  0  0
    7.5323   -1.7280   22.9065 C   0  0  0  0  0  0  0  0  0  0  0  0
    6.7464   -1.1053   22.0848 N   0  0  0  0  0  0  0  0  0  0  0  0
    7.4084   -0.7117   20.9446 C   0  0  0  0  0  0  0  0  0  0  0  0
    6.6596    0.0032   19.8990 C   0  0  0  0  0  0  0  0  0  0  0  0
    5.4374    0.6605   20.1315 C   0  0  0  0  0  0  0  0  0  0  0  0
    4.8275    1.3176   19.0657 C   0  0  0  0  0  0  0  0  0  0  0  0
    5.4428    1.2997   17.8086 C   0  0  0  0  0  0  0  0  0  0  0  0
    6.5937    0.6572   17.5676 N   0  0  0  0  0  0  0  0  0  0  0  0
    7.1719    0.0294   18.5931 C   0  0  0  0  0  0  0  0  0  0  0  0
    8.0906   -0.5009   18.3501 H   0  0  0  0  0  0  0  0  0  0  0  0
    4.9931    1.8108   16.9597 H   0  0  0  0  0  0  0  0  0  0  0  0
    3.8932    1.8514   19.1901 H   0  0  0  0  0  0  0  0  0  0  0  0
    4.9793    0.6518   21.1232 H   0  0  0  0  0  0  0  0  0  0  0  0
    8.7306   -1.0351   20.9100 C   0  0  0  0  0  0  0  0  0  0  0  0
    9.1628   -1.9108   22.3284 S   0  0  0  0  0  0  0  0  0  0  0  0
    9.4638   -0.7454   20.1693 H   0  0  0  0  0  0  0  0  0  0  0  0
    5.9924   -1.9356   24.2702 H   0  0  0  0  0  0  0  0  0  0  0  0
    7.2620   -1.9753   26.3786 H   0  0  0  0  0  0  0  0  0  0  0  0
    8.8095   -1.8592   25.5225 H   0  0  0  0  0  0  0  0  0  0  0  0
    7.6446   -0.5027   25.4591 H   0  0  0  0  0  0  0  0  0  0  0  0
  1  2  1  0
  2  3  1  0
  3  4  1  0
  4  5  2  0
  4  6  1  0
  6  7  1  0
  7  8  1  0
  8  9  1  0
  9 10  1  0
 10 11  1  0
 11 12  1  0
 11 13  1  0
 10 14  1  0
 10 15  1  0
  9 16  1  0
  9 17  1  0
  8 18  1  0
  8 19  1  0
  7 20  1  0
  7 21  1  0
  6 22  1  0
  3 23  1  0
  2 24  1  0
 24 25  2  0
 25 26  1  0
 26 27  1  0
 27 28  2  0
 28 29  1  0
 29 30  2  0
 30 31  1  0
 31 32  2  0
 32 33  1  0
 30 34  1  0
 29 35  1  0
 28 36  1  0
 26 37  2  0
 37 38  1  0
 37 39  1  0
  2 40  1  0
  1 41  1  0
  1 42  1  0
  1 43  1  0
 11  6  1  0
 38 24  1  0
 32 27  1  0
M  END
>  <plip>  (1) 
-0.07142857142857142

>  <filename>  (1) 
[H][c]1[n][c]([H])[c](-[c]2[n][c]([C]([H])([N]([H])[C](=[O])[C]3([H])[C]([H])([H])[C]([H])([H])[C]([H])([H])[C]([H])([H])[C]3([H])[H])[C]([H])([H])[H])[s][c]2[H])[c]([H])[c]1[H]

$$$$
