
     RDKit          3D

 28 30  0  0  0  0  0  0  0  0999 V2000
    7.0577    4.1049   21.8235 H   0  0  0  0  0  0  0  0  0  0  0  0
    7.1823    3.2887   22.5296 C   0  0  0  0  0  0  0  0  0  0  0  0
    7.3758    2.0908   21.9805 N   0  0  0  0  0  0  0  0  0  0  0  0
    7.4897    1.0655   22.8165 C   0  0  0  0  0  0  0  0  0  0  0  0
    7.6630   -0.2039   22.2445 N   0  0  0  0  0  0  0  0  0  0  0  0
    8.2327   -1.1947   22.9818 N   0  0  0  0  0  0  0  0  0  0  0  0
    8.2437   -2.2581   22.2693 N   0  0  0  0  0  0  0  0  0  0  0  0
    7.6893   -1.9989   21.0587 C   0  0  0  0  0  0  0  0  0  0  0  0
    7.5430   -2.7860   20.3456 H   0  0  0  0  0  0  0  0  0  0  0  0
    7.3191   -0.6809   20.9881 C   0  0  0  0  0  0  0  0  0  0  0  0
    6.6287    0.0582   19.9053 C   0  0  0  0  0  0  0  0  0  0  0  0
    7.1507    0.0995   18.5931 C   0  0  0  0  0  0  0  0  0  0  0  0
    8.1061   -0.3779   18.3676 H   0  0  0  0  0  0  0  0  0  0  0  0
    6.5517    0.7043   17.5605 N   0  0  0  0  0  0  0  0  0  0  0  0
    5.3803    1.3162   17.7996 C   0  0  0  0  0  0  0  0  0  0  0  0
    4.9242    1.8206   16.9526 H   0  0  0  0  0  0  0  0  0  0  0  0
    4.7564    1.3237   19.0500 C   0  0  0  0  0  0  0  0  0  0  0  0
    3.8131    1.8445   19.1820 H   0  0  0  0  0  0  0  0  0  0  0  0
    5.3830    0.6711   20.1125 C   0  0  0  0  0  0  0  0  0  0  0  0
    4.9236    0.6554   21.1007 H   0  0  0  0  0  0  0  0  0  0  0  0
    7.4595    1.1369   24.1498 N   0  0  0  0  0  0  0  0  0  0  0  0
    7.2868    2.3392   24.6986 C   0  0  0  0  0  0  0  0  0  0  0  0
    7.2868    2.4551   26.2576 C   0  0  0  0  0  0  0  0  0  0  0  0
    6.1440    3.0210   26.6972 F   0  0  0  0  0  0  0  0  0  0  0  0
    8.2894    3.2567   26.6730 F   0  0  0  0  0  0  0  0  0  0  0  0
    7.4200    1.2903   26.8913 F   0  0  0  0  0  0  0  0  0  0  0  0
    7.1300    3.4879   23.9068 C   0  0  0  0  0  0  0  0  0  0  0  0
    6.9912    4.4755   24.3229 H   0  0  0  0  0  0  0  0  0  0  0  0
  1  2  1  0
  2  3  2  0
  3  4  1  0
  4  5  1  0
  5  6  1  0
  6  7  2  0
  7  8  1  0
  8  9  1  0
  8 10  2  0
 10 11  1  0
 11 12  2  0
 12 13  1  0
 12 14  1  0
 14 15  2  0
 15 16  1  0
 15 17  1  0
 17 18  1  0
 17 19  2  0
 19 20  1  0
  4 21  2  0
 21 22  1  0
 22 23  1  0
 23 24  1  0
 23 25  1  0
 23 26  1  0
 22 27  2  0
 27 28  1  0
 27  2  1  0
 10  5  1  0
 19 11  1  0
M  END
>  <plip>  (1) 
-0.0

>  <filename>  (1) 
[H][c]1[n][c](-[n]2[n][n][c]([H])[c]2-[c]2[c]([H])[n][c]([H])[c]([H])[c]2[H])[n][c]([C]([F])([F])[F])[c]1[H]

$$$$
