
     RDKit          3D

 28 29  0  0  0  0  0  0  0  0999 V2000
    4.9167    1.7759   17.0005 H   0  0  0  0  0  0  0  0  0  0  0  0
    5.4042    1.2907   17.8434 C   0  0  0  0  0  0  0  0  0  0  0  0
    6.5659    0.6739   17.5809 N   0  0  0  0  0  0  0  0  0  0  0  0
    7.1811    0.0642   18.6014 C   0  0  0  0  0  0  0  0  0  0  0  0
    8.1282   -0.4234   18.3711 H   0  0  0  0  0  0  0  0  0  0  0  0
    6.6645    0.0060   19.9087 C   0  0  0  0  0  0  0  0  0  0  0  0
    7.3691   -0.7362   20.9835 C   0  0  0  0  0  0  0  0  0  0  0  0
    6.5470   -1.7499   21.9466 S   0  0  0  0  0  0  0  0  0  0  0  0
    8.8550   -0.4066   21.1213 C   0  0  0  0  0  0  0  0  0  0  0  0
    9.3470    0.5402   20.5564 O   0  0  0  0  0  0  0  0  0  0  0  0
    9.8552   -1.5623   22.2244 S   0  0  0  0  0  0  0  0  0  0  0  0
   11.2383   -1.1095   22.1874 O   0  0  0  0  0  0  0  0  0  0  0  0
    9.5121   -2.9440   21.8990 O   0  0  0  0  0  0  0  0  0  0  0  0
    9.2433   -1.2569   23.9178 C   0  0  0  0  0  0  0  0  0  0  0  0
    9.1116    0.0520   24.4077 C   0  0  0  0  0  0  0  0  0  0  0  0
    9.3169    0.9225   23.7829 H   0  0  0  0  0  0  0  0  0  0  0  0
    8.7016    0.2471   25.7312 C   0  0  0  0  0  0  0  0  0  0  0  0
    8.5830    1.2558   26.1180 H   0  0  0  0  0  0  0  0  0  0  0  0
    8.4415   -0.8454   26.5664 C   0  0  0  0  0  0  0  0  0  0  0  0
    8.1207   -0.6854   27.5960 H   0  0  0  0  0  0  0  0  0  0  0  0
    8.5965   -2.1437   26.0708 C   0  0  0  0  0  0  0  0  0  0  0  0
    8.3978   -2.9964   26.7145 H   0  0  0  0  0  0  0  0  0  0  0  0
    9.0004   -2.3586   24.7486 C   0  0  0  0  0  0  0  0  0  0  0  0
    9.1257   -3.3709   24.3699 H   0  0  0  0  0  0  0  0  0  0  0  0
    5.4416    0.6522   20.1578 C   0  0  0  0  0  0  0  0  0  0  0  0
    5.0057    0.6279   21.1592 H   0  0  0  0  0  0  0  0  0  0  0  0
    4.8084    1.3138   19.1091 C   0  0  0  0  0  0  0  0  0  0  0  0
    3.8755    1.8433   19.2621 H   0  0  0  0  0  0  0  0  0  0  0  0
  1  2  1  0
  2  3  2  0
  3  4  1  0
  4  5  1  0
  4  6  2  0
  6  7  1  0
  7  8  2  0
  7  9  1  0
  9 10  2  0
  9 11  1  0
 11 12  2  0
 11 13  2  0
 11 14  1  0
 14 15  2  0
 15 16  1  0
 15 17  1  0
 17 18  1  0
 17 19  2  0
 19 20  1  0
 19 21  1  0
 21 22  1  0
 21 23  2  0
 23 24  1  0
  6 25  1  0
 25 26  1  0
 25 27  2  0
 27 28  1  0
 27  2  1  0
 23 14  1  0
M  END
>  <plip>  (1) 
-0.07142857142857142

>  <filename>  (1) 
[H][c]1[n][c]([H])[c]([C](=[S])[C](=[O])[S](=[O])(=[O])[c]2[c]([H])[c]([H])[c]([H])[c]([H])[c]2[H])[c]([H])[c]1[H]

$$$$
