
     RDKit          3D

 38 39  0  0  0  0  0  0  0  0999 V2000
    7.3308    3.3535   24.2521 C   0  0  0  0  0  0  0  0  0  0  0  0
    7.6904    1.8817   24.1348 C   0  0  0  0  0  0  0  0  0  0  0  0
    7.9556    1.1390   25.2241 C   0  0  0  0  0  0  0  0  0  0  0  0
    8.5707   -0.2121   25.2884 C   0  0  0  0  0  0  0  0  0  0  0  0
    9.5797   -0.6373   24.4020 C   0  0  0  0  0  0  0  0  0  0  0  0
   10.0454   -1.9548   24.4442 C   0  0  0  0  0  0  0  0  0  0  0  0
    9.5769   -2.8698   25.4018 C   0  0  0  0  0  0  0  0  0  0  0  0
   10.1482   -4.2658   25.4823 C   0  0  0  0  0  0  0  0  0  0  0  0
   10.0977   -4.6706   26.4995 H   0  0  0  0  0  0  0  0  0  0  0  0
   11.2000   -4.2814   25.1753 H   0  0  0  0  0  0  0  0  0  0  0  0
    9.6081   -4.9553   24.8254 H   0  0  0  0  0  0  0  0  0  0  0  0
    8.6151   -2.4197   26.3246 C   0  0  0  0  0  0  0  0  0  0  0  0
    8.1276   -1.1126   26.2761 C   0  0  0  0  0  0  0  0  0  0  0  0
    7.3928   -0.7752   27.0064 H   0  0  0  0  0  0  0  0  0  0  0  0
    8.2618   -3.0959   27.1011 H   0  0  0  0  0  0  0  0  0  0  0  0
   10.8054   -2.2756   23.7370 H   0  0  0  0  0  0  0  0  0  0  0  0
   10.0328    0.0678   23.7028 H   0  0  0  0  0  0  0  0  0  0  0  0
    7.6886    1.5473   26.2069 H   0  0  0  0  0  0  0  0  0  0  0  0
    7.7046    1.3201   22.7365 C   0  0  0  0  0  0  0  0  0  0  0  0
    8.0892    1.9118   21.7533 O   0  0  0  0  0  0  0  0  0  0  0  0
    7.0894    0.0834   22.6181 N   0  0  0  0  0  0  0  0  0  0  0  0
    7.5193   -0.7422   21.2649 S   0  0  0  0  0  0  0  0  0  0  0  0
    6.9526   -2.0537   21.5042 O   0  0  0  0  0  0  0  0  0  0  0  0
    8.9347   -0.6000   21.0066 O   0  0  0  0  0  0  0  0  0  0  0  0
    6.6236    0.1399   20.0859 C   0  0  0  0  0  0  0  0  0  0  0  0
    5.3832    0.7663   20.2684 C   0  0  0  0  0  0  0  0  0  0  0  0
    4.8128    1.3267   19.1272 C   0  0  0  0  0  0  0  0  0  0  0  0
    5.4933    1.2341   17.9060 C   0  0  0  0  0  0  0  0  0  0  0  0
    6.6801    0.6272   17.7565 N   0  0  0  0  0  0  0  0  0  0  0  0
    7.2339    0.0950   18.8437 C   0  0  0  0  0  0  0  0  0  0  0  0
    8.2008   -0.3887   18.7197 H   0  0  0  0  0  0  0  0  0  0  0  0
    5.0646    1.6634   17.0029 H   0  0  0  0  0  0  0  0  0  0  0  0
    3.8572    1.8417   19.1614 H   0  0  0  0  0  0  0  0  0  0  0  0
    4.8837    0.8422   21.2409 H   0  0  0  0  0  0  0  0  0  0  0  0
    7.1781   -0.5821   23.3673 H   0  0  0  0  0  0  0  0  0  0  0  0
    6.8120    3.6924   23.3518 H   0  0  0  0  0  0  0  0  0  0  0  0
    8.2276    3.9751   24.3562 H   0  0  0  0  0  0  0  0  0  0  0  0
    6.6849    3.5412   25.1185 H   0  0  0  0  0  0  0  0  0  0  0  0
  1  2  1  0
  2  3  2  3
  3  4  1  0
  4  5  2  0
  5  6  1  0
  6  7  2  0
  7  8  1  0
  8  9  1  0
  8 10  1  0
  8 11  1  0
  7 12  1  0
 12 13  2  0
 13 14  1  0
 12 15  1  0
  6 16  1  0
  5 17  1  0
  3 18  1  0
  2 19  1  0
 19 20  2  0
 19 21  1  0
 21 22  1  0
 22 23  2  0
 22 24  2  0
 22 25  1  0
 25 26  2  0
 26 27  1  0
 27 28  2  0
 28 29  1  0
 29 30  2  0
 30 31  1  0
 28 32  1  0
 27 33  1  0
 26 34  1  0
 21 35  1  0
  1 36  1  0
  1 37  1  0
  1 38  1  0
 13  4  1  0
 30 25  1  0
M  END
>  <plip>  (1) 
-0.07142857142857142

>  <filename>  (1) 
[H][C](=[C]([C](=[O])[N]([H])[S](=[O])(=[O])[c]1[c]([H])[n][c]([H])[c]([H])[c]1[H])[C]([H])([H])[H])[c]1[c]([H])[c]([H])[c]([C]([H])([H])[H])[c]([H])[c]1[H]

$$$$
