
     RDKit          3D

 27 28  0  0  0  0  0  0  0  0999 V2000
    6.5735    4.3783   24.2399 H   0  0  0  0  0  0  0  0  0  0  0  0
    7.2455    3.6850   24.1146 O   0  0  0  0  0  0  0  0  0  0  0  0
    6.4319    2.6247   24.2196 C   0  0  0  0  0  0  0  0  0  0  0  0
    5.2653    2.8057   24.4705 O   0  0  0  0  0  0  0  0  0  0  0  0
    7.1182    1.2863   24.0530 C   0  0  0  0  0  0  0  0  0  0  0  0
    8.1722    1.3843   24.3251 H   0  0  0  0  0  0  0  0  0  0  0  0
    6.6182    0.5792   24.7175 H   0  0  0  0  0  0  0  0  0  0  0  0
    6.9639    0.8922   22.6923 O   0  0  0  0  0  0  0  0  0  0  0  0
    7.4849   -0.2896   22.2621 C   0  0  0  0  0  0  0  0  0  0  0  0
    7.3746   -0.6769   20.9692 C   0  0  0  0  0  0  0  0  0  0  0  0
    6.6543    0.0130   19.9024 C   0  0  0  0  0  0  0  0  0  0  0  0
    7.1585    0.0554   18.5862 C   0  0  0  0  0  0  0  0  0  0  0  0
    8.1149   -0.4184   18.3588 H   0  0  0  0  0  0  0  0  0  0  0  0
    6.5558    0.6754   17.5674 N   0  0  0  0  0  0  0  0  0  0  0  0
    5.3931    1.2948   17.8261 C   0  0  0  0  0  0  0  0  0  0  0  0
    4.9205    1.7962   16.9834 H   0  0  0  0  0  0  0  0  0  0  0  0
    4.7989    1.3104   19.0913 C   0  0  0  0  0  0  0  0  0  0  0  0
    3.8701    1.8435   19.2438 H   0  0  0  0  0  0  0  0  0  0  0  0
    5.4341    0.6637   20.1459 C   0  0  0  0  0  0  0  0  0  0  0  0
    5.0136    0.6537   21.1501 H   0  0  0  0  0  0  0  0  0  0  0  0
    8.0819   -1.9955   20.7827 C   0  0  0  0  0  0  0  0  0  0  0  0
    8.9104   -1.9033   20.0642 H   0  0  0  0  0  0  0  0  0  0  0  0
    7.3804   -2.7608   20.4215 H   0  0  0  0  0  0  0  0  0  0  0  0
    8.5547   -2.2886   22.1104 N   0  0  0  0  0  0  0  0  0  0  0  0
    9.0926   -3.0779   22.4191 H   0  0  0  0  0  0  0  0  0  0  0  0
    8.2528   -1.3303   23.0319 C   0  0  0  0  0  0  0  0  0  0  0  0
    8.5903   -1.4076   24.2016 O   0  0  0  0  0  0  0  0  0  0  0  0
  1  2  1  0
  2  3  1  0
  3  4  2  0
  3  5  1  0
  5  6  1  0
  5  7  1  0
  5  8  1  0
  8  9  1  0
  9 10  2  0
 10 11  1  0
 11 12  2  0
 12 13  1  0
 12 14  1  0
 14 15  2  0
 15 16  1  0
 15 17  1  0
 17 18  1  0
 17 19  2  0
 19 20  1  0
 10 21  1  0
 21 22  1  0
 21 23  1  0
 21 24  1  0
 24 25  1  0
 24 26  1  0
 26 27  2  0
 26  9  1  0
 19 11  1  0
M  END
>  <plip>  (1) 
-0.034482758620689655

>  <filename>  (1) 
[H][O][C](=[O])[C]([H])([H])[O][C]1=[C]([c]2[c]([H])[n][c]([H])[c]([H])[c]2[H])[C]([H])([H])[N]([H])[C]1=[O]

$$$$
