
     RDKit          3D

 24 25  0  0  0  0  0  0  0  0999 V2000
   10.6204   -3.6005   24.7024 H   0  0  0  0  0  0  0  0  0  0  0  0
   10.0679   -3.1177   24.0721 O   0  0  0  0  0  0  0  0  0  0  0  0
   10.8607   -3.0220   22.9403 N   0  0  0  0  0  0  0  0  0  0  0  0
   10.2709   -2.4126   21.9775 C   0  0  0  0  0  0  0  0  0  0  0  0
   10.8595   -2.3303   21.0701 H   0  0  0  0  0  0  0  0  0  0  0  0
    8.9423   -1.7894   21.9172 C   0  0  0  0  0  0  0  0  0  0  0  0
    8.5614   -1.2879   20.7817 N   0  0  0  0  0  0  0  0  0  0  0  0
    7.3729   -0.6804   20.9544 N   0  0  0  0  0  0  0  0  0  0  0  0
    6.7119   -0.0290   19.9074 C   0  0  0  0  0  0  0  0  0  0  0  0
    7.2274    0.0150   18.5870 C   0  0  0  0  0  0  0  0  0  0  0  0
    8.1727   -0.4611   18.3290 H   0  0  0  0  0  0  0  0  0  0  0  0
    6.6075    0.6420   17.5776 N   0  0  0  0  0  0  0  0  0  0  0  0
    5.4457    1.2699   17.8381 C   0  0  0  0  0  0  0  0  0  0  0  0
    4.9766    1.7888   17.0077 H   0  0  0  0  0  0  0  0  0  0  0  0
    4.8499    1.2782   19.1019 C   0  0  0  0  0  0  0  0  0  0  0  0
    3.9149    1.8014   19.2701 H   0  0  0  0  0  0  0  0  0  0  0  0
    5.4886    0.6216   20.1526 C   0  0  0  0  0  0  0  0  0  0  0  0
    5.0775    0.6110   21.1606 H   0  0  0  0  0  0  0  0  0  0  0  0
    6.8572   -0.7611   22.3084 C   0  0  0  0  0  0  0  0  0  0  0  0
    6.6922    0.2418   22.7406 H   0  0  0  0  0  0  0  0  0  0  0  0
    5.8949   -1.2854   22.2955 H   0  0  0  0  0  0  0  0  0  0  0  0
    7.9484   -1.5657   23.0293 C   0  0  0  0  0  0  0  0  0  0  0  0
    8.4007   -1.0363   23.8719 H   0  0  0  0  0  0  0  0  0  0  0  0
    7.5733   -2.5040   23.4475 H   0  0  0  0  0  0  0  0  0  0  0  0
  1  2  1  0
  2  3  1  0
  3  4  2  3
  4  5  1  0
  4  6  1  0
  6  7  2  0
  7  8  1  0
  8  9  1  0
  9 10  2  0
 10 11  1  0
 10 12  1  0
 12 13  2  0
 13 14  1  0
 13 15  1  0
 15 16  1  0
 15 17  2  0
 17 18  1  0
  8 19  1  0
 19 20  1  0
 19 21  1  0
 19 22  1  0
 22 23  1  0
 22 24  1  0
 22  6  1  0
 17  9  1  0
M  END
>  <plip>  (1) 
-0.03571428571428571

>  <filename>  (1) 
[H][O][N]=[C]([H])[C]1=[N][N]([c]2[c]([H])[n][c]([H])[c]([H])[c]2[H])[C]([H])([H])[C]1([H])[H]

$$$$
