
     RDKit          3D

 28 30  0  0  0  0  0  0  0  0999 V2000
    5.0023    1.8099   16.9067 H   0  0  0  0  0  0  0  0  0  0  0  0
    5.4398    1.3133   17.7712 C   0  0  0  0  0  0  0  0  0  0  0  0
    6.5971    0.6676   17.5586 N   0  0  0  0  0  0  0  0  0  0  0  0
    7.1646    0.0538   18.6033 C   0  0  0  0  0  0  0  0  0  0  0  0
    8.0996   -0.4640   18.3949 H   0  0  0  0  0  0  0  0  0  0  0  0
    6.6232    0.0450   19.9084 C   0  0  0  0  0  0  0  0  0  0  0  0
    7.2929   -0.6472   20.9757 C   0  0  0  0  0  0  0  0  0  0  0  0
    7.8452   -1.2912   21.8390 C   0  0  0  0  0  0  0  0  0  0  0  0
    8.5081   -2.0948   22.8418 C   0  0  0  0  0  0  0  0  0  0  0  0
    7.7799   -2.5700   23.8330 N   0  0  0  0  0  0  0  0  0  0  0  0
    8.4098   -3.3302   24.7831 C   0  0  0  0  0  0  0  0  0  0  0  0
    7.6276   -3.7847   25.8881 C   0  0  0  0  0  0  0  0  0  0  0  0
    6.5765   -3.5089   25.8733 H   0  0  0  0  0  0  0  0  0  0  0  0
    8.1960   -4.5578   26.8765 C   0  0  0  0  0  0  0  0  0  0  0  0
    7.6008   -4.8971   27.7258 H   0  0  0  0  0  0  0  0  0  0  0  0
    9.5740   -4.9222   26.8003 C   0  0  0  0  0  0  0  0  0  0  0  0
   10.0024   -5.5610   27.5700 H   0  0  0  0  0  0  0  0  0  0  0  0
   10.3564   -4.4930   25.7488 C   0  0  0  0  0  0  0  0  0  0  0  0
   11.4043   -4.7825   25.6826 H   0  0  0  0  0  0  0  0  0  0  0  0
    9.8001   -3.6701   24.7257 C   0  0  0  0  0  0  0  0  0  0  0  0
   10.5518   -3.1326   23.6339 C   0  0  0  0  0  0  0  0  0  0  0  0
   11.6184   -3.3444   23.5580 H   0  0  0  0  0  0  0  0  0  0  0  0
    9.9222   -2.3361   22.7157 C   0  0  0  0  0  0  0  0  0  0  0  0
   10.4621   -1.8767   21.8927 H   0  0  0  0  0  0  0  0  0  0  0  0
    5.3985    0.7106   20.1007 C   0  0  0  0  0  0  0  0  0  0  0  0
    4.9323    0.7208   21.0848 H   0  0  0  0  0  0  0  0  0  0  0  0
    4.8011    1.3521   19.0136 C   0  0  0  0  0  0  0  0  0  0  0  0
    3.8616    1.8835   19.1129 H   0  0  0  0  0  0  0  0  0  0  0  0
  1  2  1  0
  2  3  2  0
  3  4  1  0
  4  5  1  0
  4  6  2  0
  6  7  1  0
  7  8  3  0
  8  9  1  0
  9 10  2  0
 10 11  1  0
 11 12  2  0
 12 13  1  0
 12 14  1  0
 14 15  1  0
 14 16  2  0
 16 17  1  0
 16 18  1  0
 18 19  1  0
 18 20  2  0
 20 21  1  0
 21 22  1  0
 21 23  2  0
 23 24  1  0
  6 25  1  0
 25 26  1  0
 25 27  2  0
 27 28  1  0
 27  2  1  0
 23  9  1  0
 20 11  1  0
M  END
>  <plip>  (1) 
-0.07142857142857142

>  <filename>  (1) 
[H][c]1[n][c]([H])[c]([C]#[C][c]2[n][c]3[c]([H])[c]([H])[c]([H])[c]([H])[c]3[c]([H])[c]2[H])[c]([H])[c]1[H]

$$$$
