
     RDKit          3D

 27 29  0  0  0  0  0  0  0  0999 V2000
    5.0059    1.8048   16.9665 H   0  0  0  0  0  0  0  0  0  0  0  0
    5.4413    1.2882   17.8184 C   0  0  0  0  0  0  0  0  0  0  0  0
    6.5977    0.6517   17.5879 N   0  0  0  0  0  0  0  0  0  0  0  0
    7.1715    0.0299   18.6183 C   0  0  0  0  0  0  0  0  0  0  0  0
    8.1211   -0.4713   18.4416 H   0  0  0  0  0  0  0  0  0  0  0  0
    6.6213    0.0011   19.9024 C   0  0  0  0  0  0  0  0  0  0  0  0
    7.3681   -0.7499   20.9141 C   0  0  0  0  0  0  0  0  0  0  0  0
    8.5136   -1.3147   20.6268 N   0  0  0  0  0  0  0  0  0  0  0  0
    9.0596   -2.0922   21.9821 S   0  0  0  0  0  0  0  0  0  0  0  0
    7.6806   -1.5770   22.8970 C   0  0  0  0  0  0  0  0  0  0  0  0
    7.3959   -1.8387   24.6241 S   0  0  0  0  0  0  0  0  0  0  0  0
    8.0564   -0.2851   25.2346 C   0  0  0  0  0  0  0  0  0  0  0  0
    9.4147   -0.2076   25.5660 C   0  0  0  0  0  0  0  0  0  0  0  0
   10.0291   -1.1021   25.5409 H   0  0  0  0  0  0  0  0  0  0  0  0
    9.9792    1.0242   25.9014 C   0  0  0  0  0  0  0  0  0  0  0  0
   11.0468    1.0832   26.0847 H   0  0  0  0  0  0  0  0  0  0  0  0
    9.1733    2.1648   25.9767 C   0  0  0  0  0  0  0  0  0  0  0  0
    9.6220    3.1081   26.2502 H   0  0  0  0  0  0  0  0  0  0  0  0
    7.8053    2.0884   25.6906 C   0  0  0  0  0  0  0  0  0  0  0  0
    7.1811    2.9794   25.7268 H   0  0  0  0  0  0  0  0  0  0  0  0
    7.2456    0.8573   25.3221 C   0  0  0  0  0  0  0  0  0  0  0  0
    6.1909    0.7860   25.0743 H   0  0  0  0  0  0  0  0  0  0  0  0
    6.8596   -0.8784   22.1732 N   0  0  0  0  0  0  0  0  0  0  0  0
    5.4100    0.6649   20.1421 C   0  0  0  0  0  0  0  0  0  0  0  0
    4.9767    0.6748   21.1456 H   0  0  0  0  0  0  0  0  0  0  0  0
    4.8081    1.3138   19.0675 C   0  0  0  0  0  0  0  0  0  0  0  0
    3.8712    1.8460   19.1818 H   0  0  0  0  0  0  0  0  0  0  0  0
  1  2  1  0
  2  3  2  0
  3  4  1  0
  4  5  1  0
  4  6  2  0
  6  7  1  0
  7  8  2  0
  8  9  1  0
  9 10  1  0
 10 11  1  0
 11 12  1  0
 12 13  2  0
 13 14  1  0
 13 15  1  0
 15 16  1  0
 15 17  2  0
 17 18  1  0
 17 19  1  0
 19 20  1  0
 19 21  2  0
 21 22  1  0
 10 23  2  0
  6 24  1  0
 24 25  1  0
 24 26  2  0
 26 27  1  0
 26  2  1  0
 23  7  1  0
 21 12  1  0
M  END
>  <plip>  (1) 
-0.07142857142857142

>  <filename>  (1) 
[H][c]1[n][c]([H])[c](-[c]2[n][s][c]([S][c]3[c]([H])[c]([H])[c]([H])[c]([H])[c]3[H])[n]2)[c]([H])[c]1[H]

$$$$
