
     RDKit          3D

 32 34  0  0  0  0  0  0  0  0999 V2000
   10.9054    2.2053   24.6047 O   0  0  0  0  0  0  0  0  0  0  0  0
    9.8222    2.0589   24.0835 C   0  0  0  0  0  0  0  0  0  0  0  0
    9.5531    1.2123   22.8486 C   0  0  0  0  0  0  0  0  0  0  0  0
    8.0574    1.3664   22.5336 C   0  0  0  0  0  0  0  0  0  0  0  0
    7.3480    0.0942   22.4651 N   0  0  0  0  0  0  0  0  0  0  0  0
    7.5511   -0.8437   21.1223 S   0  0  0  0  0  0  0  0  0  0  0  0
    6.8621   -2.0646   21.4755 O   0  0  0  0  0  0  0  0  0  0  0  0
    8.9546   -0.8624   20.7559 O   0  0  0  0  0  0  0  0  0  0  0  0
    6.6612    0.0510   19.9580 C   0  0  0  0  0  0  0  0  0  0  0  0
    5.4343    0.6658   20.2238 C   0  0  0  0  0  0  0  0  0  0  0  0
    4.8238    1.2939   19.1476 C   0  0  0  0  0  0  0  0  0  0  0  0
    5.4383    1.2558   17.8940 C   0  0  0  0  0  0  0  0  0  0  0  0
    6.6011    0.6335   17.6654 N   0  0  0  0  0  0  0  0  0  0  0  0
    7.2128    0.0441   18.6881 C   0  0  0  0  0  0  0  0  0  0  0  0
    8.1521   -0.4515   18.4473 H   0  0  0  0  0  0  0  0  0  0  0  0
    4.9845    1.7418   17.0353 H   0  0  0  0  0  0  0  0  0  0  0  0
    3.8893    1.8223   19.2584 H   0  0  0  0  0  0  0  0  0  0  0  0
    4.9532    0.6549   21.2068 H   0  0  0  0  0  0  0  0  0  0  0  0
    7.6382   -0.6009   23.1438 H   0  0  0  0  0  0  0  0  0  0  0  0
    7.5240    2.2503   23.6533 C   0  0  0  0  0  0  0  0  0  0  0  0
    6.2214    2.7230   23.8362 C   0  0  0  0  0  0  0  0  0  0  0  0
    5.9576    3.5997   24.8945 C   0  0  0  0  0  0  0  0  0  0  0  0
    6.9876    4.0079   25.7637 C   0  0  0  0  0  0  0  0  0  0  0  0
    8.2929    3.5508   25.5782 C   0  0  0  0  0  0  0  0  0  0  0  0
    8.5419    2.6736   24.5125 C   0  0  0  0  0  0  0  0  0  0  0  0
    9.1025    3.8561   26.2387 H   0  0  0  0  0  0  0  0  0  0  0  0
    6.7622    4.6839   26.5858 H   0  0  0  0  0  0  0  0  0  0  0  0
    4.9465    3.9692   25.0458 H   0  0  0  0  0  0  0  0  0  0  0  0
    5.4235    2.4249   23.1587 H   0  0  0  0  0  0  0  0  0  0  0  0
    7.8780    1.8823   21.5737 H   0  0  0  0  0  0  0  0  0  0  0  0
    9.8627    0.1779   23.0350 H   0  0  0  0  0  0  0  0  0  0  0  0
   10.1748    1.5662   22.0256 H   0  0  0  0  0  0  0  0  0  0  0  0
  1  2  2  0
  2  3  1  0
  3  4  1  0
  4  5  1  0
  5  6  1  0
  6  7  2  0
  6  8  2  0
  6  9  1  0
  9 10  2  0
 10 11  1  0
 11 12  2  0
 12 13  1  0
 13 14  2  0
 14 15  1  0
 12 16  1  0
 11 17  1  0
 10 18  1  0
  5 19  1  0
  4 20  1  0
 20 21  2  0
 21 22  1  0
 22 23  2  0
 23 24  1  0
 24 25  2  0
 24 26  1  0
 23 27  1  0
 22 28  1  0
 21 29  1  0
  4 30  1  0
  3 31  1  0
  3 32  1  0
 25  2  1  0
 14  9  1  0
 25 20  1  0
M  END
>  <plip>  (1) 
-0.03571428571428571

>  <filename>  (1) 
[H][c]1[n][c]([H])[c]([S](=[O])(=[O])[N]([H])[C]2([H])[c]3[c]([H])[c]([H])[c]([H])[c]([H])[c]3[C](=[O])[C]2([H])[H])[c]([H])[c]1[H]

$$$$
