
     RDKit          3D

 28 30  0  0  0  0  0  0  0  0999 V2000
    5.9361   -0.4519   22.8776 H   0  0  0  0  0  0  0  0  0  0  0  0
    6.7917   -0.8312   22.3471 C   0  0  0  0  0  0  0  0  0  0  0  0
    7.7931   -1.5280   22.9932 N   0  0  0  0  0  0  0  0  0  0  0  0
    8.6674   -1.7329   22.0649 C   0  0  0  0  0  0  0  0  0  0  0  0
   10.2737   -2.4172   22.2655 S   0  0  0  0  0  0  0  0  0  0  0  0
   11.0462   -0.8915   22.8083 C   0  0  0  0  0  0  0  0  0  0  0  0
   11.6992   -0.0677   21.8800 C   0  0  0  0  0  0  0  0  0  0  0  0
   11.6427   -0.2868   20.8179 H   0  0  0  0  0  0  0  0  0  0  0  0
   12.4031    1.0527   22.3240 C   0  0  0  0  0  0  0  0  0  0  0  0
   12.9194    1.6768   21.6010 H   0  0  0  0  0  0  0  0  0  0  0  0
   12.4376    1.3662   23.6846 C   0  0  0  0  0  0  0  0  0  0  0  0
   13.0234    2.2130   24.0180 H   0  0  0  0  0  0  0  0  0  0  0  0
   11.7077    0.5976   24.5990 C   0  0  0  0  0  0  0  0  0  0  0  0
   11.7066    0.8462   25.6538 H   0  0  0  0  0  0  0  0  0  0  0  0
   10.9773   -0.5124   24.1586 C   0  0  0  0  0  0  0  0  0  0  0  0
   10.3695   -1.0968   24.8448 H   0  0  0  0  0  0  0  0  0  0  0  0
    8.3314   -1.2661   20.8493 O   0  0  0  0  0  0  0  0  0  0  0  0
    7.1102   -0.6626   21.0403 C   0  0  0  0  0  0  0  0  0  0  0  0
    6.4966    0.0200   19.9089 C   0  0  0  0  0  0  0  0  0  0  0  0
    7.1226    0.0068   18.6438 C   0  0  0  0  0  0  0  0  0  0  0  0
    8.0567   -0.5334   18.5060 H   0  0  0  0  0  0  0  0  0  0  0  0
    6.6343    0.6279   17.5668 N   0  0  0  0  0  0  0  0  0  0  0  0
    5.4837    1.3044   17.7181 C   0  0  0  0  0  0  0  0  0  0  0  0
    5.1061    1.8029   16.8290 H   0  0  0  0  0  0  0  0  0  0  0  0
    4.7790    1.3799   18.9262 C   0  0  0  0  0  0  0  0  0  0  0  0
    3.8576    1.9503   18.9722 H   0  0  0  0  0  0  0  0  0  0  0  0
    5.2915    0.7286   20.0452 C   0  0  0  0  0  0  0  0  0  0  0  0
    4.7658    0.7816   21.0024 H   0  0  0  0  0  0  0  0  0  0  0  0
  1  2  1  0
  2  3  1  0
  3  4  2  0
  4  5  1  0
  5  6  1  0
  6  7  2  0
  7  8  1  0
  7  9  1  0
  9 10  1  0
  9 11  2  0
 11 12  1  0
 11 13  1  0
 13 14  1  0
 13 15  2  0
 15 16  1  0
  4 17  1  0
 17 18  1  0
 18 19  1  0
 19 20  2  0
 20 21  1  0
 20 22  1  0
 22 23  2  0
 23 24  1  0
 23 25  1  0
 25 26  1  0
 25 27  2  0
 27 28  1  0
 18  2  2  0
 27 19  1  0
 15  6  1  0
M  END
>  <plip>  (1) 
-0.10344827586206896

>  <filename>  (1) 
[H][c]1[n][c]([S][c]2[c]([H])[c]([H])[c]([H])[c]([H])[c]2[H])[o][c]1-[c]1[c]([H])[n][c]([H])[c]([H])[c]1[H]

$$$$
