
     RDKit          3D

 37 40  0  0  0  0  0  0  0  0999 V2000
    6.5779   -3.7482   20.2424 H   0  0  0  0  0  0  0  0  0  0  0  0
    6.2658   -2.8352   20.1315 O   0  0  0  0  0  0  0  0  0  0  0  0
    6.4114   -2.1103   21.3467 C   0  0  1  0  0  0  0  0  0  0  0  0
    5.4116   -1.8078   21.6923 H   0  0  0  0  0  0  0  0  0  0  0  0
    6.9418   -2.9458   22.5064 C   0  0  0  0  0  0  0  0  0  0  0  0
    6.3414   -3.0538   23.6466 N   0  0  0  0  0  0  0  0  0  0  0  0
    6.9908   -3.9557   24.4738 C   0  0  0  0  0  0  0  0  0  0  0  0
    6.5541   -4.3333   25.7539 C   0  0  0  0  0  0  0  0  0  0  0  0
    5.6169   -3.9133   26.1047 H   0  0  0  0  0  0  0  0  0  0  0  0
    7.3302   -5.2097   26.5058 C   0  0  0  0  0  0  0  0  0  0  0  0
    6.9990   -5.4997   27.5004 H   0  0  0  0  0  0  0  0  0  0  0  0
    8.5588   -5.6918   25.9944 C   0  0  0  0  0  0  0  0  0  0  0  0
    9.1884   -6.3159   26.6223 H   0  0  0  0  0  0  0  0  0  0  0  0
    8.9888   -5.3454   24.7147 C   0  0  0  0  0  0  0  0  0  0  0  0
    9.9558   -5.6910   24.3552 H   0  0  0  0  0  0  0  0  0  0  0  0
    8.1711   -4.5141   23.9422 C   0  0  0  0  0  0  0  0  0  0  0  0
    8.3577   -3.9799   22.2990 S   0  0  0  0  0  0  0  0  0  0  0  0
    7.1794   -0.7637   21.1001 C   0  0  0  0  0  0  0  0  0  0  0  0
    6.5391    0.0126   19.9516 C   0  0  0  0  0  0  0  0  0  0  0  0
    7.0970    0.0189   18.6602 C   0  0  0  0  0  0  0  0  0  0  0  0
    8.0360   -0.5042   18.4824 H   0  0  0  0  0  0  0  0  0  0  0  0
    6.5752    0.6486   17.5997 N   0  0  0  0  0  0  0  0  0  0  0  0
    5.4335    1.3228   17.7920 C   0  0  0  0  0  0  0  0  0  0  0  0
    5.0362    1.8440   16.9229 H   0  0  0  0  0  0  0  0  0  0  0  0
    4.7704    1.3754   19.0223 C   0  0  0  0  0  0  0  0  0  0  0  0
    3.8506    1.9411   19.1124 H   0  0  0  0  0  0  0  0  0  0  0  0
    5.3337    0.7115   20.1143 C   0  0  0  0  0  0  0  0  0  0  0  0
    4.8565    0.7475   21.0952 H   0  0  0  0  0  0  0  0  0  0  0  0
    8.7393   -0.8605   21.0270 C   0  0  0  0  0  0  0  0  0  0  0  0
    9.1736   -1.8479   20.8420 H   0  0  0  0  0  0  0  0  0  0  0  0
    9.1474   -0.1865   20.2708 H   0  0  0  0  0  0  0  0  0  0  0  0
    8.8619   -0.2437   22.4419 C   0  0  0  0  0  0  0  0  0  0  0  0
    9.1607   -0.9625   23.2109 H   0  0  0  0  0  0  0  0  0  0  0  0
    9.5205    0.6329   22.5186 H   0  0  0  0  0  0  0  0  0  0  0  0
    7.3425    0.0677   22.4171 C   0  0  0  0  0  0  0  0  0  0  0  0
    7.1200    1.1286   22.2634 H   0  0  0  0  0  0  0  0  0  0  0  0
    6.7497   -0.2789   23.2729 H   0  0  0  0  0  0  0  0  0  0  0  0
  1  2  1  0
  2  3  1  0
  3  4  1  1
  3  5  1  0
  5  6  2  0
  6  7  1  0
  7  8  2  0
  8  9  1  0
  8 10  1  0
 10 11  1  0
 10 12  2  0
 12 13  1  0
 12 14  1  0
 14 15  1  0
 14 16  2  0
 16 17  1  0
  3 18  1  0
 18 19  1  0
 19 20  2  0
 20 21  1  0
 20 22  1  0
 22 23  2  0
 23 24  1  0
 23 25  1  0
 25 26  1  0
 25 27  2  0
 27 28  1  0
 18 29  1  0
 29 30  1  0
 29 31  1  0
 29 32  1  0
 32 33  1  0
 32 34  1  0
 32 35  1  0
 35 36  1  0
 35 37  1  0
 17  5  1  0
 35 18  1  0
 16  7  1  0
 27 19  1  0
M  END
>  <plip>  (1) 
-0.14285714285714285

>  <filename>  (1) 
[H][O][C@@]([H])([c]1[n][c]2[c]([H])[c]([H])[c]([H])[c]([H])[c]2[s]1)[C]1([c]2[c]([H])[n][c]([H])[c]([H])[c]2[H])[C]([H])([H])[C]([H])([H])[C]1([H])[H]

$$$$
