
     RDKit          3D

 43 44  0  0  0  0  0  0  0  0999 V2000
    3.8168   -6.3246   23.2945 C   0  0  0  0  0  0  0  0  0  0  0  0
    4.9818   -6.9688   23.2972 C   0  0  0  0  0  0  0  0  0  0  0  0
    5.7908   -7.2204   22.0486 C   0  0  0  0  0  0  0  0  0  0  0  0
    7.0071   -6.3116   21.8125 C   0  0  0  0  0  0  0  0  0  0  0  0
    6.8291   -4.7959   22.0017 C   0  0  0  0  0  0  0  0  0  0  0  0
    8.1734   -4.1295   21.7189 C   0  0  0  0  0  0  0  0  0  0  0  0
    8.1964   -2.6626   21.9302 N   0  0  0  0  0  4  0  0  0  0  0  0
    9.5920   -2.1069   22.1016 C   0  0  0  0  0  0  0  0  0  0  0  0
    9.4895   -0.6436   22.5235 C   0  0  0  0  0  0  0  0  0  0  0  0
    8.7692    0.1914   21.4446 C   0  0  0  0  0  0  0  0  0  0  0  0
    7.3707   -0.4062   21.1344 C   0  0  0  0  0  0  0  0  0  0  0  0
    6.6251    0.2675   19.9897 C   0  0  0  0  0  0  0  0  0  0  0  0
    5.3634    0.8722   20.1348 C   0  0  0  0  0  0  0  0  0  0  0  0
    4.7539    1.4385   19.0084 C   0  0  0  0  0  0  0  0  0  0  0  0
    5.4111    1.3788   17.7756 C   0  0  0  0  0  0  0  0  0  0  0  0
    6.5956    0.7740   17.6057 N   0  0  0  0  0  0  0  0  0  0  0  0
    7.1654    0.2382   18.6891 C   0  0  0  0  0  0  0  0  0  0  0  0
    8.1039   -0.2891   18.5064 H   0  0  0  0  0  0  0  0  0  0  0  0
    4.9728    1.8193   16.8815 H   0  0  0  0  0  0  0  0  0  0  0  0
    3.7898    1.9344   19.0678 H   0  0  0  0  0  0  0  0  0  0  0  0
    4.8604    0.8998   21.1069 H   0  0  0  0  0  0  0  0  0  0  0  0
    7.5019   -1.9060   20.8133 C   0  0  0  0  0  0  0  0  0  0  0  0
    6.5198   -2.3484   20.6105 H   0  0  0  0  0  0  0  0  0  0  0  0
    8.1100   -2.0092   19.9029 H   0  0  0  0  0  0  0  0  0  0  0  0
    6.7881   -0.3315   22.0635 H   0  0  0  0  0  0  0  0  0  0  0  0
    9.3750    0.1846   20.5263 H   0  0  0  0  0  0  0  0  0  0  0  0
    8.6786    1.2416   21.7562 H   0  0  0  0  0  0  0  0  0  0  0  0
    8.9264   -0.6050   23.4680 H   0  0  0  0  0  0  0  0  0  0  0  0
   10.4868   -0.2486   22.7418 H   0  0  0  0  0  0  0  0  0  0  0  0
   10.1181   -2.1983   21.1388 H   0  0  0  0  0  0  0  0  0  0  0  0
   10.1403   -2.7192   22.8283 H   0  0  0  0  0  0  0  0  0  0  0  0
    7.6775   -2.4615   22.8181 H   0  0  0  0  0  0  0  0  0  0  0  0
    8.9222   -4.5863   22.3802 H   0  0  0  0  0  0  0  0  0  0  0  0
    8.4799   -4.3552   20.6824 H   0  0  0  0  0  0  0  0  0  0  0  0
    6.5121   -4.5648   23.0287 H   0  0  0  0  0  0  0  0  0  0  0  0
    6.0322   -4.3989   21.3545 H   0  0  0  0  0  0  0  0  0  0  0  0
    7.8216   -6.6537   22.4687 H   0  0  0  0  0  0  0  0  0  0  0  0
    7.3546   -6.4904   20.7814 H   0  0  0  0  0  0  0  0  0  0  0  0
    5.1251   -7.1601   21.1776 H   0  0  0  0  0  0  0  0  0  0  0  0
    6.1737   -8.2517   22.0598 H   0  0  0  0  0  0  0  0  0  0  0  0
    5.3909   -7.3429   24.2369 H   0  0  0  0  0  0  0  0  0  0  0  0
    3.4317   -5.9110   22.3620 H   0  0  0  0  0  0  0  0  0  0  0  0
    3.2009   -6.2096   24.1846 H   0  0  0  0  0  0  0  0  0  0  0  0
  1  2  2  3
  2  3  1  0
  3  4  1  0
  4  5  1  0
  5  6  1  0
  6  7  1  0
  7  8  1  0
  8  9  1  0
  9 10  1  0
 10 11  1  0
 11 12  1  0
 12 13  2  0
 13 14  1  0
 14 15  2  0
 15 16  1  0
 16 17  2  0
 17 18  1  0
 15 19  1  0
 14 20  1  0
 13 21  1  0
 11 22  1  0
 22 23  1  0
 22 24  1  0
 11 25  1  0
 10 26  1  0
 10 27  1  0
  9 28  1  0
  9 29  1  0
  8 30  1  0
  8 31  1  0
  7 32  1  0
  6 33  1  0
  6 34  1  0
  5 35  1  0
  5 36  1  0
  4 37  1  0
  4 38  1  0
  3 39  1  0
  3 40  1  0
  2 41  1  0
  1 42  1  0
  1 43  1  0
 22  7  1  0
 17 12  1  0
M  CHG  1   7   1
M  END
>  <plip>  (1) 
-0.06451612903225806

>  <filename>  (1) 
[H][C]([H])=[C]([H])[C]([H])([H])[C]([H])([H])[C]([H])([H])[C]([H])([H])[N+]1([H])[C]([H])([H])[C]([H])([H])[C]([H])([H])[C]([H])([c]2[c]([H])[n][c]([H])[c]([H])[c]2[H])[C]1([H])[H]

$$$$
