
     RDKit          3D

 49 51  0  0  0  0  0  0  0  0999 V2000
    5.9925   -4.0554   20.5210 C   0  0  0  0  0  0  0  0  0  0  0  0
    6.6529   -2.8456   20.2665 O   0  0  0  0  0  0  0  0  0  0  0  0
    6.6885   -2.0003   21.3858 C   0  0  0  0  0  0  0  0  0  0  0  0
    7.4087   -0.7052   21.0120 C   0  0  2  0  0  0  0  0  0  0  0  0
    7.6176    0.1037   22.2085 N   0  0  0  0  0  0  0  0  0  0  0  0
    8.3930    1.2250   22.1885 C   0  0  0  0  0  0  0  0  0  0  0  0
    9.0373    1.5269   21.1889 O   0  0  0  0  0  0  0  0  0  0  0  0
    8.4171    2.0344   23.4715 C   0  0  0  0  0  0  0  0  0  0  0  0
    9.2198    3.1326   23.6701 C   0  0  0  0  0  0  0  0  0  0  0  0
   10.0902    3.8585   22.7263 C   0  0  0  0  0  0  0  0  0  0  0  0
   10.8581    3.2148   22.2990 H   0  0  0  0  0  0  0  0  0  0  0  0
    9.4105    4.1312   21.9263 H   0  0  0  0  0  0  0  0  0  0  0  0
   10.5483    4.7574   23.1431 H   0  0  0  0  0  0  0  0  0  0  0  0
    8.8970    3.5997   24.9036 N   0  0  0  0  0  0  0  0  0  0  0  0
    7.9220    2.8088   25.4290 C   0  0  0  0  0  0  0  0  0  0  0  0
    7.3634    3.0062   26.7822 C   0  0  0  0  0  0  0  0  0  0  0  0
    6.4596    2.0347   27.2472 C   0  0  0  0  0  0  0  0  0  0  0  0
    5.9047    2.1220   28.5176 C   0  0  0  0  0  0  0  0  0  0  0  0
    6.2435    3.1846   29.3644 C   0  0  0  0  0  0  0  0  0  0  0  0
    7.1471    4.1570   28.9131 C   0  0  0  0  0  0  0  0  0  0  0  0
    7.5787    5.2189   29.6439 O   0  0  0  0  0  0  0  0  0  0  0  0
    7.0770    5.4145   30.9468 C   0  0  0  0  0  0  0  0  0  0  0  0
    5.9856    5.5432   30.9420 H   0  0  0  0  0  0  0  0  0  0  0  0
    7.3322    4.5749   31.6088 H   0  0  0  0  0  0  0  0  0  0  0  0
    7.5599    6.3272   31.2980 H   0  0  0  0  0  0  0  0  0  0  0  0
    7.6995    4.0772   27.6273 C   0  0  0  0  0  0  0  0  0  0  0  0
    8.4068    4.8645   27.3687 H   0  0  0  0  0  0  0  0  0  0  0  0
    5.8204    3.2581   30.3594 H   0  0  0  0  0  0  0  0  0  0  0  0
    5.2052    1.3579   28.8481 H   0  0  0  0  0  0  0  0  0  0  0  0
    6.2258    1.2199   26.5689 H   0  0  0  0  0  0  0  0  0  0  0  0
    7.6103    1.8513   24.5819 N   0  0  0  0  0  0  0  0  0  0  0  0
    9.2261    4.4561   25.3116 H   0  0  0  0  0  0  0  0  0  0  0  0
    7.0294    0.0212   23.0288 H   0  0  0  0  0  0  0  0  0  0  0  0
    6.6725    0.0520   19.9125 C   0  0  0  0  0  0  0  0  0  0  0  0
    5.4430    0.6825   20.1430 C   0  0  0  0  0  0  0  0  0  0  0  0
    4.7970    1.3204   19.0810 C   0  0  0  0  0  0  0  0  0  0  0  0
    5.3991    1.2942   17.8164 C   0  0  0  0  0  0  0  0  0  0  0  0
    6.5605    0.6744   17.5638 N   0  0  0  0  0  0  0  0  0  0  0  0
    7.1690    0.0804   18.6039 C   0  0  0  0  0  0  0  0  0  0  0  0
    8.1135   -0.4116   18.3671 H   0  0  0  0  0  0  0  0  0  0  0  0
    4.9318    1.7963   16.9688 H   0  0  0  0  0  0  0  0  0  0  0  0
    3.8559    1.8430   19.2231 H   0  0  0  0  0  0  0  0  0  0  0  0
    4.9977    0.6733   21.1407 H   0  0  0  0  0  0  0  0  0  0  0  0
    8.3904   -0.9857   20.6125 H   0  0  0  0  0  0  0  0  0  0  0  0
    5.6626   -1.7629   21.7156 H   0  0  0  0  0  0  0  0  0  0  0  0
    7.2157   -2.4844   22.2233 H   0  0  0  0  0  0  0  0  0  0  0  0
    5.9284   -4.5961   19.5746 H   0  0  0  0  0  0  0  0  0  0  0  0
    6.5340   -4.6709   21.2553 H   0  0  0  0  0  0  0  0  0  0  0  0
    4.9855   -3.8624   20.9131 H   0  0  0  0  0  0  0  0  0  0  0  0
  1  2  1  0
  2  3  1  0
  3  4  1  0
  4  5  1  0
  5  6  1  0
  6  7  2  0
  6  8  1  0
  8  9  2  0
  9 10  1  0
 10 11  1  0
 10 12  1  0
 10 13  1  0
  9 14  1  0
 14 15  1  0
 15 16  1  0
 16 17  2  0
 17 18  1  0
 18 19  2  0
 19 20  1  0
 20 21  1  0
 21 22  1  0
 22 23  1  0
 22 24  1  0
 22 25  1  0
 20 26  2  0
 26 27  1  0
 19 28  1  0
 18 29  1  0
 17 30  1  0
 15 31  2  0
 14 32  1  0
  5 33  1  0
  4 34  1  0
 34 35  2  0
 35 36  1  0
 36 37  2  0
 37 38  1  0
 38 39  2  0
 39 40  1  0
 37 41  1  0
 36 42  1  0
 35 43  1  0
  4 44  1  6
  3 45  1  0
  3 46  1  0
  1 47  1  0
  1 48  1  0
  1 49  1  0
 31  8  1  0
 39 34  1  0
 26 16  1  0
M  END
>  <plip>  (1) 
-0.21428571428571427

>  <filename>  (1) 
[H][c]1[n][c]([H])[c]([C@@]([H])([N]([H])[C](=[O])[c]2[n][c](-[c]3[c]([H])[c]([H])[c]([H])[c]([O][C]([H])([H])[H])[c]3[H])[n]([H])[c]2[C]([H])([H])[H])[C]([H])([H])[O][C]([H])([H])[H])[c]([H])[c]1[H]

$$$$
