
     RDKit          3D

 34 36  0  0  0  0  0  0  0  0999 V2000
    5.0996    1.7965   17.0630 H   0  0  0  0  0  0  0  0  0  0  0  0
    5.5948    1.2801   17.8831 C   0  0  0  0  0  0  0  0  0  0  0  0
    6.7771    0.7105   17.6048 N   0  0  0  0  0  0  0  0  0  0  0  0
    7.4021    0.0552   18.5940 C   0  0  0  0  0  0  0  0  0  0  0  0
    8.3710   -0.3808   18.3566 H   0  0  0  0  0  0  0  0  0  0  0  0
    6.8548   -0.1036   19.8865 C   0  0  0  0  0  0  0  0  0  0  0  0
    7.4664   -0.9213   20.9103 N   0  0  0  0  0  0  0  0  0  0  0  0
    8.6968   -0.7749   21.5395 C   0  0  0  0  0  0  0  0  0  0  0  0
    9.5963    0.1439   21.0778 N   0  0  0  0  0  0  0  0  0  0  0  0
    9.1781    1.0653   20.9686 H   0  0  0  0  0  0  0  0  0  0  0  0
   10.9067    0.2108   21.5620 C   0  0  0  0  0  0  0  0  0  0  0  0
   11.6724   -0.9580   21.5464 C   0  0  0  0  0  0  0  0  0  0  0  0
   11.1818   -1.8631   21.2100 H   0  0  0  0  0  0  0  0  0  0  0  0
   12.9937   -0.9508   21.9801 C   0  0  0  0  0  0  0  0  0  0  0  0
   13.5569   -1.8786   22.0110 H   0  0  0  0  0  0  0  0  0  0  0  0
   13.5698    0.2430   22.4274 C   0  0  0  0  0  0  0  0  0  0  0  0
   14.5981    0.2623   22.7762 H   0  0  0  0  0  0  0  0  0  0  0  0
   12.8305    1.4249   22.4092 C   0  0  0  0  0  0  0  0  0  0  0  0
   13.3287    2.3508   22.6963 H   0  0  0  0  0  0  0  0  0  0  0  0
   11.4743    1.4303   21.9987 C   0  0  0  0  0  0  0  0  0  0  0  0
   10.5987    2.6298   22.0680 C   0  0  0  0  0  0  0  0  0  0  0  0
    9.4865    2.7161   21.5477 O   0  0  0  0  0  0  0  0  0  0  0  0
   11.0432    3.7292   22.7431 N   0  0  0  0  0  0  0  0  0  0  0  0
   10.2625    4.3550   22.8552 H   0  0  0  0  0  0  0  0  0  0  0  0
   11.6811    3.6462   23.5138 H   0  0  0  0  0  0  0  0  0  0  0  0
    8.8507   -1.6011   22.5383 N   0  0  0  0  0  0  0  0  0  0  0  0
    7.6753   -2.3031   22.5297 N   0  0  0  0  0  0  0  0  0  0  0  0
    7.4329   -3.0283   23.1853 H   0  0  0  0  0  0  0  0  0  0  0  0
    6.8359   -1.9896   21.5378 C   0  0  0  0  0  0  0  0  0  0  0  0
    5.4430   -2.8168   21.1779 S   0  0  0  0  0  0  0  0  0  0  0  0
    5.6292    0.5071   20.1662 C   0  0  0  0  0  0  0  0  0  0  0  0
    5.1943    0.4100   21.1631 H   0  0  0  0  0  0  0  0  0  0  0  0
    4.9929    1.2188   19.1449 C   0  0  0  0  0  0  0  0  0  0  0  0
    4.0466    1.7184   19.3170 H   0  0  0  0  0  0  0  0  0  0  0  0
  1  2  1  0
  2  3  2  0
  3  4  1  0
  4  5  1  0
  4  6  2  0
  6  7  1  0
  7  8  1  0
  8  9  1  0
  9 10  1  0
  9 11  1  0
 11 12  2  0
 12 13  1  0
 12 14  1  0
 14 15  1  0
 14 16  2  0
 16 17  1  0
 16 18  1  0
 18 19  1  0
 18 20  2  0
 20 21  1  0
 21 22  2  0
 21 23  1  0
 23 24  1  0
 23 25  1  0
  8 26  2  0
 26 27  1  0
 27 28  1  0
 27 29  1  0
 29 30  2  0
  6 31  1  0
 31 32  1  0
 31 33  2  0
 33 34  1  0
 33  2  1  0
 29  7  1  0
 20 11  1  0
M  END
>  <plip>  (1) 
-0.10714285714285714

>  <filename>  (1) 
[H][c]1[n][c]([H])[c](-[n]2[c]([N]([H])[c]3[c]([H])[c]([H])[c]([H])[c]([H])[c]3[C](=[O])[N]([H])[H])[n][n]([H])[c]2=[S])[c]([H])[c]1[H]

$$$$
