
     RDKit          3D

 33 35  0  0  0  0  0  0  0  0999 V2000
    9.0418   -2.5651   23.8749 H   0  0  0  0  0  0  0  0  0  0  0  0
    8.5650   -2.0546   23.0431 C   0  0  0  0  0  0  0  0  0  0  0  0
    9.3591   -1.4624   22.1300 N   0  0  0  0  0  0  0  0  0  0  0  0
    8.7449   -0.8192   21.1225 C   0  0  0  0  0  0  0  0  0  0  0  0
    9.3838   -0.3271   20.3889 H   0  0  0  0  0  0  0  0  0  0  0  0
    7.3288   -0.7515   21.0109 C   0  0  0  0  0  0  0  0  0  0  0  0
    6.6270   -0.0133   19.9179 C   0  0  0  0  0  0  0  0  0  0  0  0
    7.1586    0.0339   18.6174 C   0  0  0  0  0  0  0  0  0  0  0  0
    8.1017   -0.4642   18.3895 H   0  0  0  0  0  0  0  0  0  0  0  0
    6.5726    0.6608   17.5914 N   0  0  0  0  0  0  0  0  0  0  0  0
    5.4161    1.2954   17.8345 C   0  0  0  0  0  0  0  0  0  0  0  0
    4.9584    1.8004   16.9873 H   0  0  0  0  0  0  0  0  0  0  0  0
    4.7986    1.3217   19.0898 C   0  0  0  0  0  0  0  0  0  0  0  0
    3.8659    1.8623   19.2235 H   0  0  0  0  0  0  0  0  0  0  0  0
    5.4105    0.6505   20.1480 C   0  0  0  0  0  0  0  0  0  0  0  0
    4.9678    0.6312   21.1450 H   0  0  0  0  0  0  0  0  0  0  0  0
    6.5499   -1.3547   21.9388 N   0  0  0  0  0  0  0  0  0  0  0  0
    7.1693   -2.0171   22.9543 C   0  0  0  0  0  0  0  0  0  0  0  0
    6.4225   -2.7360   24.1074 C   0  0  0  0  0  0  0  0  0  0  0  0
    7.0383   -3.1263   25.0855 O   0  0  0  0  0  0  0  0  0  0  0  0
    5.0900   -2.9305   23.9294 N   0  0  0  0  0  0  0  0  0  0  0  0
    4.7466   -2.3736   23.1612 H   0  0  0  0  0  0  0  0  0  0  0  0
    4.1205   -3.2285   24.9766 C   0  0  0  0  0  0  0  0  0  0  0  0
    3.1303   -3.1691   24.5061 H   0  0  0  0  0  0  0  0  0  0  0  0
    4.2510   -4.2677   25.3006 H   0  0  0  0  0  0  0  0  0  0  0  0
    4.1330   -2.3145   26.1932 C   0  0  0  0  0  0  0  0  0  0  0  0
    4.0901   -1.2443   25.9764 H   0  0  0  0  0  0  0  0  0  0  0  0
    3.3985   -2.8032   27.4165 C   0  0  0  0  0  0  0  0  0  0  0  0
    2.8535   -2.0788   28.0143 H   0  0  0  0  0  0  0  0  0  0  0  0
    2.9220   -3.7799   27.3629 H   0  0  0  0  0  0  0  0  0  0  0  0
    4.8939   -2.7375   27.4237 C   0  0  0  0  0  0  0  0  0  0  0  0
    5.3589   -1.9723   28.0375 H   0  0  0  0  0  0  0  0  0  0  0  0
    5.4573   -3.6685   27.3560 H   0  0  0  0  0  0  0  0  0  0  0  0
  1  2  1  0
  2  3  2  0
  3  4  1  0
  4  5  1  0
  4  6  2  0
  6  7  1  0
  7  8  2  0
  8  9  1  0
  8 10  1  0
 10 11  2  0
 11 12  1  0
 11 13  1  0
 13 14  1  0
 13 15  2  0
 15 16  1  0
  6 17  1  0
 17 18  2  0
 18 19  1  0
 19 20  2  0
 19 21  1  0
 21 22  1  0
 21 23  1  0
 23 24  1  0
 23 25  1  0
 23 26  1  0
 26 27  1  0
 26 28  1  0
 28 29  1  0
 28 30  1  0
 28 31  1  0
 31 32  1  0
 31 33  1  0
 18  2  1  0
 31 26  1  0
 15  7  1  0
M  END
>  <plip>  (1) 
-0.07142857142857142

>  <filename>  (1) 
[H][c]1[n][c]([H])[c](-[c]2[c]([H])[n][c]([H])[c]([H])[c]2[H])[n][c]1[C](=[O])[N]([H])[C]([H])([H])[C]1([H])[C]([H])([H])[C]1([H])[H]

$$$$
