
     RDKit          3D

 42 44  0  0  0  0  0  0  0  0999 V2000
   11.0597    0.0091   23.3411 C   0  0  0  0  0  0  0  0  0  0  0  0
   10.5823   -0.9911   22.2799 C   0  0  0  0  0  0  0  0  0  0  0  0
    9.8875   -0.3228   21.0856 C   0  0  0  0  0  0  0  0  0  0  0  0
    8.5369    0.1637   21.3904 N   0  0  0  0  0  0  0  0  0  0  0  0
    7.3936   -0.6624   21.0179 C   0  0  0  0  0  0  0  0  0  0  0  0
    6.6061   -0.0152   19.9013 C   0  0  0  0  0  0  0  0  0  0  0  0
    5.3864    0.6347   20.1239 C   0  0  0  0  0  0  0  0  0  0  0  0
    4.7672    1.3107   19.0653 C   0  0  0  0  0  0  0  0  0  0  0  0
    5.3944    1.3004   17.8160 C   0  0  0  0  0  0  0  0  0  0  0  0
    6.5587    0.6783   17.5758 N   0  0  0  0  0  0  0  0  0  0  0  0
    7.1467    0.0560   18.6056 C   0  0  0  0  0  0  0  0  0  0  0  0
    8.1026   -0.4164   18.3690 H   0  0  0  0  0  0  0  0  0  0  0  0
    4.9403    1.8110   16.9685 H   0  0  0  0  0  0  0  0  0  0  0  0
    3.8375    1.8587   19.1965 H   0  0  0  0  0  0  0  0  0  0  0  0
    4.9307    0.6192   21.1164 H   0  0  0  0  0  0  0  0  0  0  0  0
    7.7755   -1.6437   20.7021 H   0  0  0  0  0  0  0  0  0  0  0  0
    6.7623   -0.8513   21.8936 H   0  0  0  0  0  0  0  0  0  0  0  0
    8.4222    1.4461   21.9203 C   0  0  0  0  0  0  0  0  0  0  0  0
    9.3023    2.2696   21.7289 O   0  0  0  0  0  0  0  0  0  0  0  0
    7.2239    1.7627   22.7972 C   0  0  0  0  0  0  0  0  0  0  0  0
    6.5610    2.8750   22.5915 N   0  0  0  0  0  0  0  0  0  0  0  0
    5.5633    3.1594   23.4413 N   0  0  0  0  0  0  0  0  0  0  0  0
    5.1305    2.3811   24.4939 C   0  0  0  0  0  0  0  0  0  0  0  0
    4.0265    2.7798   25.2794 C   0  0  0  0  0  0  0  0  0  0  0  0
    3.5981    1.9750   26.3261 C   0  0  0  0  0  0  0  0  0  0  0  0
    4.2662    0.7683   26.6118 C   0  0  0  0  0  0  0  0  0  0  0  0
    5.3548    0.3752   25.8469 C   0  0  0  0  0  0  0  0  0  0  0  0
    5.8032    1.1732   24.7679 C   0  0  0  0  0  0  0  0  0  0  0  0
    6.9658    0.8202   23.9233 C   0  0  0  0  0  0  0  0  0  0  0  0
    7.6606   -0.1677   24.1219 O   0  0  0  0  0  0  0  0  0  0  0  0
    5.8782   -0.5499   26.0663 H   0  0  0  0  0  0  0  0  0  0  0  0
    3.9233    0.1496   27.4349 H   0  0  0  0  0  0  0  0  0  0  0  0
    2.7456    2.2755   26.9347 H   0  0  0  0  0  0  0  0  0  0  0  0
    3.5224    3.7130   25.0526 H   0  0  0  0  0  0  0  0  0  0  0  0
    5.1086    4.0433   23.2614 H   0  0  0  0  0  0  0  0  0  0  0  0
    9.8138   -1.0237   20.2425 H   0  0  0  0  0  0  0  0  0  0  0  0
   10.4670    0.5445   20.7551 H   0  0  0  0  0  0  0  0  0  0  0  0
   11.4434   -1.5423   21.8792 H   0  0  0  0  0  0  0  0  0  0  0  0
    9.9186   -1.7428   22.7321 H   0  0  0  0  0  0  0  0  0  0  0  0
   10.2211    0.5222   23.8211 H   0  0  0  0  0  0  0  0  0  0  0  0
   11.6322   -0.4765   24.1347 H   0  0  0  0  0  0  0  0  0  0  0  0
   11.7070    0.7754   22.8967 H   0  0  0  0  0  0  0  0  0  0  0  0
  1  2  1  0
  2  3  1  0
  3  4  1  0
  4  5  1  0
  5  6  1  0
  6  7  2  0
  7  8  1  0
  8  9  2  0
  9 10  1  0
 10 11  2  0
 11 12  1  0
  9 13  1  0
  8 14  1  0
  7 15  1  0
  5 16  1  0
  5 17  1  0
  4 18  1  0
 18 19  2  0
 18 20  1  0
 20 21  2  0
 21 22  1  0
 22 23  1  0
 23 24  2  0
 24 25  1  0
 25 26  2  0
 26 27  1  0
 27 28  2  0
 28 29  1  0
 29 30  2  0
 27 31  1  0
 26 32  1  0
 25 33  1  0
 24 34  1  0
 22 35  1  0
  3 36  1  0
  3 37  1  0
  2 38  1  0
  2 39  1  0
  1 40  1  0
  1 41  1  0
  1 42  1  0
 11  6  1  0
 29 20  1  0
 28 23  1  0
M  END
>  <plip>  (1) 
-0.03571428571428571

>  <filename>  (1) 
[H][c]1[n][c]([H])[c]([C]([H])([H])[N]([C](=[O])[c]2[n][n]([H])[c]3[c]([H])[c]([H])[c]([H])[c]([H])[c]3[c]2=[O])[C]([H])([H])[C]([H])([H])[C]([H])([H])[H])[c]([H])[c]1[H]

$$$$
