
     RDKit          3D

 32 33  0  0  0  0  0  0  0  0999 V2000
    5.0773   -2.8954   21.4912 C   0  0  0  0  0  0  0  0  0  0  0  0
    6.2824   -3.5130   22.1104 C   0  0  0  0  0  0  0  0  0  0  0  0
    6.1585   -4.4904   23.1121 C   0  0  0  0  0  0  0  0  0  0  0  0
    4.1480   -5.0988   23.9151 I   0  0  0  0  0  0  0  0  0  0  0  0
    7.3084   -5.0592   23.6663 C   0  0  0  0  0  0  0  0  0  0  0  0
    8.5787   -4.6344   23.2663 C   0  0  0  0  0  0  0  0  0  0  0  0
    8.6880   -3.6496   22.2772 C   0  0  0  0  0  0  0  0  0  0  0  0
    7.5517   -3.1038   21.6807 C   0  0  0  0  0  0  0  0  0  0  0  0
    7.7204   -2.1079   20.7188 N   0  0  0  0  0  0  0  0  0  0  0  0
    7.3534   -0.7422   21.0873 C   0  0  0  0  0  0  0  0  0  0  0  0
    8.7053   -0.0671   21.2927 C   0  0  0  0  0  0  0  0  0  0  0  0
    8.5853    0.9932   21.5252 H   0  0  0  0  0  0  0  0  0  0  0  0
    9.3152   -0.1579   20.3885 H   0  0  0  0  0  0  0  0  0  0  0  0
    9.2415   -0.5564   22.1107 H   0  0  0  0  0  0  0  0  0  0  0  0
    6.6109   -0.0726   19.9662 C   0  0  0  0  0  0  0  0  0  0  0  0
    5.4106    0.6225   20.1656 C   0  0  0  0  0  0  0  0  0  0  0  0
    4.8530    1.2773   19.0670 C   0  0  0  0  0  0  0  0  0  0  0  0
    5.4902    1.2256   17.8230 C   0  0  0  0  0  0  0  0  0  0  0  0
    6.6328    0.5425   17.6331 N   0  0  0  0  0  0  0  0  0  0  0  0
    7.1753   -0.0927   18.6871 C   0  0  0  0  0  0  0  0  0  0  0  0
    8.1083   -0.6289   18.5368 H   0  0  0  0  0  0  0  0  0  0  0  0
    5.0492    1.7560   16.9834 H   0  0  0  0  0  0  0  0  0  0  0  0
    3.9346    1.8437   19.1638 H   0  0  0  0  0  0  0  0  0  0  0  0
    4.9319    0.6677   21.1427 H   0  0  0  0  0  0  0  0  0  0  0  0
    6.7595   -0.7133   22.0146 H   0  0  0  0  0  0  0  0  0  0  0  0
    8.6191   -2.1445   20.2386 H   0  0  0  0  0  0  0  0  0  0  0  0
    9.6570   -3.2621   21.9856 H   0  0  0  0  0  0  0  0  0  0  0  0
    9.4666   -5.0482   23.7433 H   0  0  0  0  0  0  0  0  0  0  0  0
    7.2001   -5.8099   24.4410 H   0  0  0  0  0  0  0  0  0  0  0  0
    5.0083   -3.2267   20.4562 H   0  0  0  0  0  0  0  0  0  0  0  0
    5.1681   -1.8064   21.4903 H   0  0  0  0  0  0  0  0  0  0  0  0
    4.1662   -3.1759   22.0190 H   0  0  0  0  0  0  0  0  0  0  0  0
  1  2  1  0
  2  3  2  0
  3  4  1  0
  3  5  1  0
  5  6  2  0
  6  7  1  0
  7  8  2  0
  8  9  1  0
  9 10  1  0
 10 11  1  0
 11 12  1  0
 11 13  1  0
 11 14  1  0
 10 15  1  0
 15 16  2  0
 16 17  1  0
 17 18  2  0
 18 19  1  0
 19 20  2  0
 20 21  1  0
 18 22  1  0
 17 23  1  0
 16 24  1  0
 10 25  1  0
  9 26  1  0
  7 27  1  0
  6 28  1  0
  5 29  1  0
  1 30  1  0
  1 31  1  0
  1 32  1  0
  8  2  1  0
 20 15  1  0
M  END
>  <plip>  (1) 
-0.06451612903225806

>  <filename>  (1) 
[H][c]1[n][c]([H])[c]([C]([H])([N]([H])[c]2[c]([H])[c]([H])[c]([H])[c]([I])[c]2[C]([H])([H])[H])[C]([H])([H])[H])[c]([H])[c]1[H]

$$$$
