
     RDKit          3D

 37 39  0  0  0  0  0  0  0  0999 V2000
    7.9689    1.0915   24.7338 O   0  0  0  0  0  0  0  0  0  0  0  0
    8.0161   -0.0966   24.4588 C   0  0  0  0  0  0  0  0  0  0  0  0
    8.2336   -1.1381   25.5023 C   0  0  0  0  0  0  0  0  0  0  0  0
    9.0992   -2.2370   25.4231 C   0  0  0  0  0  0  0  0  0  0  0  0
    8.9021   -3.2699   26.3439 C   0  0  0  0  0  0  0  0  0  0  0  0
    9.7058   -4.5259   26.3705 C   0  0  0  0  0  0  0  0  0  0  0  0
   10.1851   -4.7567   27.6088 F   0  0  0  0  0  0  0  0  0  0  0  0
    8.9660   -5.6037   26.0436 F   0  0  0  0  0  0  0  0  0  0  0  0
   10.7475   -4.4900   25.5251 F   0  0  0  0  0  0  0  0  0  0  0  0
    7.8937   -3.1536   27.2968 C   0  0  0  0  0  0  0  0  0  0  0  0
    7.1520   -2.0548   27.4277 N   0  0  0  0  0  0  0  0  0  0  0  0
    7.3362   -1.0593   26.5657 C   0  0  0  0  0  0  0  0  0  0  0  0
    6.7212   -0.1805   26.7263 H   0  0  0  0  0  0  0  0  0  0  0  0
    7.6837   -3.9636   27.9896 H   0  0  0  0  0  0  0  0  0  0  0  0
    9.9270   -2.2931   24.7135 H   0  0  0  0  0  0  0  0  0  0  0  0
    7.7625   -0.5997   23.2121 N   0  0  0  0  0  0  0  0  0  0  0  0
    7.1305   -1.9086   22.9855 C   0  0  0  0  0  0  0  0  0  0  0  0
    6.5899   -1.8255   21.5608 C   0  0  0  0  0  0  0  0  0  0  0  0
    7.4053   -0.7067   20.8834 C   0  0  0  0  0  0  0  0  0  0  0  0
    6.6728   -0.0129   19.7589 C   0  0  0  0  0  0  0  0  0  0  0  0
    5.4577    0.6381   20.0145 C   0  0  0  0  0  0  0  0  0  0  0  0
    4.8148    1.3186   18.9829 C   0  0  0  0  0  0  0  0  0  0  0  0
    5.4153    1.3245   17.7182 C   0  0  0  0  0  0  0  0  0  0  0  0
    6.5643    0.6929   17.4415 N   0  0  0  0  0  0  0  0  0  0  0  0
    7.1687    0.0436   18.4462 C   0  0  0  0  0  0  0  0  0  0  0  0
    8.1087   -0.4512   18.1986 H   0  0  0  0  0  0  0  0  0  0  0  0
    4.9523    1.8596   16.8923 H   0  0  0  0  0  0  0  0  0  0  0  0
    3.8880    1.8560   19.1496 H   0  0  0  0  0  0  0  0  0  0  0  0
    5.0379    0.6321   21.0250 H   0  0  0  0  0  0  0  0  0  0  0  0
    7.7529    0.2551   22.0350 C   0  0  0  0  0  0  0  0  0  0  0  0
    7.0183    1.0639   22.1513 H   0  0  0  0  0  0  0  0  0  0  0  0
    8.7195    0.7477   21.8845 H   0  0  0  0  0  0  0  0  0  0  0  0
    8.3415   -1.1480   20.5181 H   0  0  0  0  0  0  0  0  0  0  0  0
    5.5277   -1.5694   21.5685 H   0  0  0  0  0  0  0  0  0  0  0  0
    6.6804   -2.7808   21.0386 H   0  0  0  0  0  0  0  0  0  0  0  0
    7.8662   -2.7115   23.1131 H   0  0  0  0  0  0  0  0  0  0  0  0
    6.3558   -2.0931   23.7410 H   0  0  0  0  0  0  0  0  0  0  0  0
  1  2  2  0
  2  3  1  0
  3  4  2  0
  4  5  1  0
  5  6  1  0
  6  7  1  0
  6  8  1  0
  6  9  1  0
  5 10  2  0
 10 11  1  0
 11 12  2  0
 12 13  1  0
 10 14  1  0
  4 15  1  0
  2 16  1  0
 16 17  1  0
 17 18  1  0
 18 19  1  0
 19 20  1  0
 20 21  2  0
 21 22  1  0
 22 23  2  0
 23 24  1  0
 24 25  2  0
 25 26  1  0
 23 27  1  0
 22 28  1  0
 21 29  1  0
 19 30  1  0
 30 31  1  0
 30 32  1  0
 19 33  1  0
 18 34  1  0
 18 35  1  0
 17 36  1  0
 17 37  1  0
 12  3  1  0
 30 16  1  0
 25 20  1  0
M  END
>  <plip>  (1) 
-0.06896551724137931

>  <filename>  (1) 
[H][c]1[n][c]([H])[c]([C]2([H])[C]([H])([H])[N]([C](=[O])[c]3[c]([H])[n][c]([H])[c]([C]([F])([F])[F])[c]3[H])[C]([H])([H])[C]2([H])[H])[c]([H])[c]1[H]

$$$$
