
     RDKit          3D

 32 33  0  0  0  0  0  0  0  0999 V2000
    7.9202   -3.6616   22.0510 H   0  0  0  0  0  0  0  0  0  0  0  0
    7.3611   -2.8626   22.5375 C   0  0  0  0  0  0  0  0  0  0  0  0
    6.2670   -1.9878   21.4714 S   0  0  0  0  0  0  0  0  0  0  0  0
    7.3906   -0.6341   20.9092 C   0  0  1  0  0  0  0  0  0  0  0  0
    8.2741   -1.1222   20.4810 H   0  0  0  0  0  0  0  0  0  0  0  0
    6.6430    0.0846   19.8105 C   0  0  0  0  0  0  0  0  0  0  0  0
    7.1509    0.1169   18.5038 C   0  0  0  0  0  0  0  0  0  0  0  0
    8.0814   -0.4043   18.2762 H   0  0  0  0  0  0  0  0  0  0  0  0
    6.5585    0.7403   17.4763 N   0  0  0  0  0  0  0  0  0  0  0  0
    5.3981    1.3615   17.7320 C   0  0  0  0  0  0  0  0  0  0  0  0
    4.9274    1.8635   16.8894 H   0  0  0  0  0  0  0  0  0  0  0  0
    4.7868    1.3703   18.9909 C   0  0  0  0  0  0  0  0  0  0  0  0
    3.8398    1.8744   19.1315 H   0  0  0  0  0  0  0  0  0  0  0  0
    5.4201    0.7196   20.0493 C   0  0  0  0  0  0  0  0  0  0  0  0
    4.9653    0.6799   21.0430 H   0  0  0  0  0  0  0  0  0  0  0  0
    7.8577    0.2766   22.0482 C   0  0  0  0  0  0  0  0  0  0  0  0
    7.0152    0.7002   22.6053 H   0  0  0  0  0  0  0  0  0  0  0  0
    8.4587    1.1008   21.6489 H   0  0  0  0  0  0  0  0  0  0  0  0
    8.4768   -0.2877   22.7514 H   0  0  0  0  0  0  0  0  0  0  0  0
    7.5415   -2.6443   23.8480 C   0  0  0  0  0  0  0  0  0  0  0  0
    6.8688   -1.9967   24.4078 H   0  0  0  0  0  0  0  0  0  0  0  0
    8.6716   -3.2493   24.5897 C   0  0  0  0  0  0  0  0  0  0  0  0
    8.6000   -3.4102   25.9832 C   0  0  0  0  0  0  0  0  0  0  0  0
    7.7246   -3.0503   26.5164 H   0  0  0  0  0  0  0  0  0  0  0  0
    9.6473   -4.0127   26.6717 C   0  0  0  0  0  0  0  0  0  0  0  0
    9.6160   -4.1433   27.7492 H   0  0  0  0  0  0  0  0  0  0  0  0
   10.7735   -4.4450   25.9745 C   0  0  0  0  0  0  0  0  0  0  0  0
   11.5716   -4.8779   26.5475 H   0  0  0  0  0  0  0  0  0  0  0  0
   10.8880   -4.2557   24.5968 C   0  0  0  0  0  0  0  0  0  0  0  0
   11.7738   -4.5884   24.0686 H   0  0  0  0  0  0  0  0  0  0  0  0
    9.8364   -3.6605   23.9085 C   0  0  0  0  0  0  0  0  0  0  0  0
    9.9024   -3.5029   22.8347 H   0  0  0  0  0  0  0  0  0  0  0  0
  1  2  1  0
  2  3  1  0
  3  4  1  0
  4  5  1  6
  4  6  1  0
  6  7  2  0
  7  8  1  0
  7  9  1  0
  9 10  2  0
 10 11  1  0
 10 12  1  0
 12 13  1  0
 12 14  2  0
 14 15  1  0
  4 16  1  0
 16 17  1  0
 16 18  1  0
 16 19  1  0
  2 20  2  3
 20 21  1  0
 20 22  1  0
 22 23  2  0
 23 24  1  0
 23 25  1  0
 25 26  1  0
 25 27  2  0
 27 28  1  0
 27 29  1  0
 29 30  1  0
 29 31  2  0
 31 32  1  0
 14  6  1  0
 31 22  1  0
M  END
>  <plip>  (1) 
-0.06896551724137931

>  <filename>  (1) 
[H][C]([S][C@@]([H])([c]1[c]([H])[n][c]([H])[c]([H])[c]1[H])[C]([H])([H])[H])=[C]([H])[c]1[c]([H])[c]([H])[c]([H])[c]([H])[c]1[H]

$$$$
