
     RDKit          3D

 24 25  0  0  0  0  0  0  0  0999 V2000
    4.9585    1.7964   16.9728 H   0  0  0  0  0  0  0  0  0  0  0  0
    5.4221    1.2921   17.8217 C   0  0  0  0  0  0  0  0  0  0  0  0
    6.5839    0.6651   17.5818 N   0  0  0  0  0  0  0  0  0  0  0  0
    7.1931    0.0575   18.6059 C   0  0  0  0  0  0  0  0  0  0  0  0
    8.1335   -0.4457   18.3841 H   0  0  0  0  0  0  0  0  0  0  0  0
    6.6745    0.0361   19.9137 C   0  0  0  0  0  0  0  0  0  0  0  0
    7.3960   -0.6805   20.9667 C   0  0  0  0  0  0  0  0  0  0  0  0
    8.4822   -1.3542   20.7683 N   0  0  0  0  0  0  0  0  0  0  0  0
    8.7969   -2.0260   21.9193 N   0  0  0  0  0  0  0  0  0  0  0  0
   10.3531   -2.6347   22.1341 S   0  0  0  0  0  0  0  0  0  0  0  0
   11.5201   -1.2107   22.3381 C   0  0  0  0  0  0  0  0  0  0  0  0
   12.7386   -1.7606   22.3364 F   0  0  0  0  0  0  0  0  0  0  0  0
   11.3408   -0.5596   23.4952 F   0  0  0  0  0  0  0  0  0  0  0  0
   11.4470   -0.3341   21.3497 F   0  0  0  0  0  0  0  0  0  0  0  0
    7.9612   -1.6649   23.0600 C   0  0  0  0  0  0  0  0  0  0  0  0
    7.5466   -2.5667   23.5314 H   0  0  0  0  0  0  0  0  0  0  0  0
    8.5804   -1.1179   23.7865 H   0  0  0  0  0  0  0  0  0  0  0  0
    6.8908   -0.8020   22.3809 C   0  0  0  0  0  0  0  0  0  0  0  0
    6.7389    0.1594   22.8770 H   0  0  0  0  0  0  0  0  0  0  0  0
    5.9372   -1.3274   22.3482 H   0  0  0  0  0  0  0  0  0  0  0  0
    5.4452    0.6778   20.1382 C   0  0  0  0  0  0  0  0  0  0  0  0
    4.9890    0.6774   21.1305 H   0  0  0  0  0  0  0  0  0  0  0  0
    4.8118    1.3156   19.0773 C   0  0  0  0  0  0  0  0  0  0  0  0
    3.8701    1.8396   19.2099 H   0  0  0  0  0  0  0  0  0  0  0  0
  1  2  1  0
  2  3  2  0
  3  4  1  0
  4  5  1  0
  4  6  2  0
  6  7  1  0
  7  8  2  0
  8  9  1  0
  9 10  1  0
 10 11  1  0
 11 12  1  0
 11 13  1  0
 11 14  1  0
  9 15  1  0
 15 16  1  0
 15 17  1  0
 15 18  1  0
 18 19  1  0
 18 20  1  0
  6 21  1  0
 21 22  1  0
 21 23  2  0
 23 24  1  0
 23  2  1  0
 18  7  1  0
M  END
>  <plip>  (1) 
-0.03571428571428571

>  <filename>  (1) 
[H][c]1[n][c]([H])[c]([C]2=[N][N]([S][C]([F])([F])[F])[C]([H])([H])[C]2([H])[H])[c]([H])[c]1[H]

$$$$
