
     RDKit          3D

 52 55  0  0  0  0  0  0  0  0999 V2000
    6.4202   -2.9643   20.8008 C   0  0  0  0  0  0  0  0  0  0  0  0
    6.6539   -1.7589   21.6345 N   0  0  0  0  0  4  0  0  0  0  0  0
    7.2510   -2.0166   22.9907 C   0  0  0  0  0  0  0  0  0  0  0  0
    8.0861   -0.7557   23.3140 C   0  0  0  0  0  0  0  0  0  0  0  0
    7.8974    0.2080   22.1256 C   0  0  1  0  0  0  0  0  0  0  0  0
    9.0889    1.1355   21.8198 C   0  0  0  0  0  0  0  0  0  0  0  0
    9.3567    2.0767   22.9071 N   0  0  0  0  0  0  0  0  0  0  0  0
    8.4458    3.0431   23.2350 C   0  0  0  0  0  0  0  0  0  0  0  0
    7.5482    3.3802   22.4864 O   0  0  0  0  0  0  0  0  0  0  0  0
    8.6556    3.6390   24.6082 C   0  0  2  0  0  0  0  0  0  0  0  0
    8.4900    2.8085   25.8579 C   0  0  0  0  0  0  0  0  0  0  0  0
    7.4528    3.8301   25.4871 C   0  0  1  0  0  0  0  0  0  0  0  0
    7.3381    5.3604   26.4143 S   0  0  0  0  0  0  0  0  0  0  0  0
    6.1718    4.8650   27.6820 C   0  0  0  0  0  0  0  0  0  0  0  0
    6.6386    4.2929   28.8790 C   0  0  0  0  0  0  0  0  0  0  0  0
    5.7419    3.8118   29.8394 C   0  0  0  0  0  0  0  0  0  0  0  0
    4.3642    3.9101   29.6103 C   0  0  0  0  0  0  0  0  0  0  0  0
    3.8874    4.5340   28.4500 C   0  0  0  0  0  0  0  0  0  0  0  0
    4.7844    5.0109   27.4859 C   0  0  0  0  0  0  0  0  0  0  0  0
    4.4041    5.4867   26.5821 H   0  0  0  0  0  0  0  0  0  0  0  0
    2.8145    4.6381   28.2912 H   0  0  0  0  0  0  0  0  0  0  0  0
    3.6654    3.4896   30.3283 H   0  0  0  0  0  0  0  0  0  0  0  0
    6.1166    3.3513   30.7541 H   0  0  0  0  0  0  0  0  0  0  0  0
    7.7083    4.2249   29.0595 H   0  0  0  0  0  0  0  0  0  0  0  0
    6.5016    3.4701   25.0946 H   0  0  0  0  0  0  0  0  0  0  0  0
    9.1292    3.0163   26.7088 H   0  0  0  0  0  0  0  0  0  0  0  0
    8.1952    1.7663   25.7555 H   0  0  0  0  0  0  0  0  0  0  0  0
    9.3827    4.4486   24.5983 H   0  0  0  0  0  0  0  0  0  0  0  0
    9.9054    1.7802   23.6952 H   0  0  0  0  0  0  0  0  0  0  0  0
    9.9982    0.5456   21.6242 H   0  0  0  0  0  0  0  0  0  0  0  0
    8.8837    1.7167   20.9122 H   0  0  0  0  0  0  0  0  0  0  0  0
    7.5199   -0.7081   20.9617 C   0  0  2  0  0  0  0  0  0  0  0  0
    6.7396   -0.0296   19.8712 C   0  0  0  0  0  0  0  0  0  0  0  0
    5.5215    0.6314   20.1142 C   0  0  0  0  0  0  0  0  0  0  0  0
    4.8889    1.2820   19.0583 C   0  0  0  0  0  0  0  0  0  0  0  0
    5.4819    1.2485   17.7895 C   0  0  0  0  0  0  0  0  0  0  0  0
    6.6259    0.6002   17.5317 N   0  0  0  0  0  0  0  0  0  0  0  0
    7.2240   -0.0181   18.5568 C   0  0  0  0  0  0  0  0  0  0  0  0
    8.1494   -0.5459   18.3220 H   0  0  0  0  0  0  0  0  0  0  0  0
    5.0176    1.7660   16.9501 H   0  0  0  0  0  0  0  0  0  0  0  0
    3.9621    1.8270   19.2017 H   0  0  0  0  0  0  0  0  0  0  0  0
    5.0804    0.6600   21.1172 H   0  0  0  0  0  0  0  0  0  0  0  0
    8.4161   -1.2010   20.5500 H   0  0  0  0  0  0  0  0  0  0  0  0
    7.0263    0.8531   22.3276 H   0  0  0  0  0  0  0  0  0  0  0  0
    9.1442   -1.0282   23.4264 H   0  0  0  0  0  0  0  0  0  0  0  0
    7.7690   -0.2899   24.2549 H   0  0  0  0  0  0  0  0  0  0  0  0
    6.4578   -2.2151   23.7205 H   0  0  0  0  0  0  0  0  0  0  0  0
    7.8825   -2.9090   22.9260 H   0  0  0  0  0  0  0  0  0  0  0  0
    5.7487   -1.2522   21.7811 H   0  0  0  0  0  0  0  0  0  0  0  0
    5.6837   -3.6420   21.2510 H   0  0  0  0  0  0  0  0  0  0  0  0
    7.3649   -3.5185   20.6849 H   0  0  0  0  0  0  0  0  0  0  0  0
    6.0820   -2.6754   19.7969 H   0  0  0  0  0  0  0  0  0  0  0  0
  1  2  1  0
  2  3  1  0
  3  4  1  0
  4  5  1  0
  5  6  1  0
  6  7  1  0
  7  8  1  0
  8  9  2  0
  8 10  1  0
 10 11  1  0
 11 12  1  0
 12 13  1  0
 13 14  1  0
 14 15  2  0
 15 16  1  0
 16 17  2  0
 17 18  1  0
 18 19  2  0
 19 20  1  0
 18 21  1  0
 17 22  1  0
 16 23  1  0
 15 24  1  0
 12 25  1  6
 11 26  1  0
 11 27  1  0
 10 28  1  6
  7 29  1  0
  6 30  1  0
  6 31  1  0
  5 32  1  0
 32 33  1  0
 33 34  2  0
 34 35  1  0
 35 36  2  0
 36 37  1  0
 37 38  2  0
 38 39  1  0
 36 40  1  0
 35 41  1  0
 34 42  1  0
 32 43  1  6
  5 44  1  1
  4 45  1  0
  4 46  1  0
  3 47  1  0
  3 48  1  0
  2 49  1  0
  1 50  1  0
  1 51  1  0
  1 52  1  0
 32  2  1  0
 38 33  1  0
 12 10  1  0
 19 14  1  0
M  CHG  1   2   1
M  END
>  <plip>  (1) 
-0.14285714285714285

>  <filename>  (1) 
[H][c]1[n][c]([H])[c]([C@@]2([H])[C@]([H])([C]([H])([H])[N]([H])[C](=[O])[C@]3([H])[C]([H])([H])[C@@]3([H])[S][c]3[c]([H])[c]([H])[c]([H])[c]([H])[c]3[H])[C]([H])([H])[C]([H])([H])[N+]2([H])[C]([H])([H])[H])[c]([H])[c]1[H]

$$$$
