
     RDKit          3D

 33 35  0  0  0  0  0  0  0  0999 V2000
    9.6854   -3.7171   23.3243 N   0  0  0  0  0  4  0  0  0  0  0  0
    9.8871   -2.6261   22.2262 C   0  0  0  0  0  0  0  0  0  0  0  0
    8.6523   -1.8189   21.8292 C   0  0  0  0  0  0  0  0  0  0  0  0
    8.3817   -1.3023   20.6722 N   0  0  0  0  0  0  0  0  0  0  0  0
    7.2086   -0.6187   20.9411 C   0  0  0  0  0  0  0  0  0  0  0  0
    6.5023    0.1034   19.8939 C   0  0  0  0  0  0  0  0  0  0  0  0
    5.2867    0.7812   20.0715 C   0  0  0  0  0  0  0  0  0  0  0  0
    4.7271    1.4072   18.9596 C   0  0  0  0  0  0  0  0  0  0  0  0
    5.4004    1.3502   17.7314 C   0  0  0  0  0  0  0  0  0  0  0  0
    6.5580    0.6981   17.5567 N   0  0  0  0  0  0  0  0  0  0  0  0
    7.0884    0.0934   18.6204 C   0  0  0  0  0  0  0  0  0  0  0  0
    8.0220   -0.4349   18.4665 H   0  0  0  0  0  0  0  0  0  0  0  0
    4.9923    1.8463   16.8527 H   0  0  0  0  0  0  0  0  0  0  0  0
    3.7892    1.9485   19.0200 H   0  0  0  0  0  0  0  0  0  0  0  0
    4.7890    0.8198   21.0432 H   0  0  0  0  0  0  0  0  0  0  0  0
    6.8017   -0.7090   22.1781 N   0  0  0  0  0  0  0  0  0  0  0  0
    7.7629   -1.5094   22.7721 O   0  0  0  0  0  0  0  0  0  0  0  0
   11.0331   -1.7355   22.7610 C   0  0  0  0  0  0  0  0  0  0  0  0
   11.6130   -0.6507   21.8342 C   0  0  0  0  0  0  0  0  0  0  0  0
   12.3054    0.3038   22.8297 C   0  0  0  0  0  0  0  0  0  0  0  0
   11.7440    0.0512   24.1081 O   0  0  0  0  0  0  0  0  0  0  0  0
   10.6938   -0.8847   24.0049 C   0  0  0  0  0  0  0  0  0  0  0  0
    9.7378   -0.3570   23.8682 H   0  0  0  0  0  0  0  0  0  0  0  0
   10.6445   -1.4326   24.9540 H   0  0  0  0  0  0  0  0  0  0  0  0
   12.1577    1.3571   22.5624 H   0  0  0  0  0  0  0  0  0  0  0  0
   13.3878    0.1439   22.9086 H   0  0  0  0  0  0  0  0  0  0  0  0
   10.8153   -0.1177   21.2961 H   0  0  0  0  0  0  0  0  0  0  0  0
   12.3307   -1.0510   21.1094 H   0  0  0  0  0  0  0  0  0  0  0  0
   11.8470   -2.4390   22.9752 H   0  0  0  0  0  0  0  0  0  0  0  0
   10.2055   -3.0830   21.2886 H   0  0  0  0  0  0  0  0  0  0  0  0
    9.0213   -4.4752   23.1005 H   0  0  0  0  0  0  0  0  0  0  0  0
   10.6049   -4.1573   23.5297 H   0  0  0  0  0  0  0  0  0  0  0  0
    9.3475   -3.2621   24.1956 H   0  0  0  0  0  0  0  0  0  0  0  0
  1  2  1  0
  2  3  1  0
  3  4  2  0
  4  5  1  0
  5  6  1  0
  6  7  2  0
  7  8  1  0
  8  9  2  0
  9 10  1  0
 10 11  2  0
 11 12  1  0
  9 13  1  0
  8 14  1  0
  7 15  1  0
  5 16  2  0
 16 17  1  0
  2 18  1  0
 18 19  1  0
 19 20  1  0
 20 21  1  0
 21 22  1  0
 22 23  1  0
 22 24  1  0
 20 25  1  0
 20 26  1  0
 19 27  1  0
 19 28  1  0
 18 29  1  0
  2 30  1  0
  1 31  1  0
  1 32  1  0
  1 33  1  0
 17  3  1  0
 22 18  1  0
 11  6  1  0
M  CHG  1   1   1
M  END
>  <plip>  (1) 
-0.034482758620689655

>  <filename>  (1) 
[H][c]1[n][c]([H])[c](-[c]2[n][o][c]([C]([H])([C]3([H])[C]([H])([H])[O][C]([H])([H])[C]3([H])[H])[N+]([H])([H])[H])[n]2)[c]([H])[c]1[H]

$$$$
