
     RDKit          3D

 27 28  0  0  0  0  0  0  0  0999 V2000
    5.0856    1.9094   17.0389 H   0  0  0  0  0  0  0  0  0  0  0  0
    5.5303    1.3300   17.8469 C   0  0  0  0  0  0  0  0  0  0  0  0
    6.6600    0.6657   17.5549 N   0  0  0  0  0  0  0  0  0  0  0  0
    7.2385   -0.0391   18.5249 C   0  0  0  0  0  0  0  0  0  0  0  0
    8.1564   -0.5685   18.2675 H   0  0  0  0  0  0  0  0  0  0  0  0
    6.6974   -0.0979   19.8015 C   0  0  0  0  0  0  0  0  0  0  0  0
    7.5947   -1.0685   20.9163 S   0  0  0  0  0  0  0  0  0  0  0  0
    8.8903   -1.3844   20.3425 O   0  0  0  0  0  0  0  0  0  0  0  0
    6.7528   -2.0678   21.5212 O   0  0  0  0  0  0  0  0  0  0  0  0
    8.1041    0.0924   22.0965 N   0  0  0  0  0  0  0  0  0  0  0  0
    9.0795    0.0038   21.8195 H   0  0  0  0  0  0  0  0  0  0  0  0
    7.6929    1.4576   22.4099 N   0  0  0  0  0  0  0  0  0  0  0  0
    7.2160    1.9528   23.6467 C   0  0  0  0  0  0  0  0  0  0  0  0
    7.1417    1.3936   24.7099 O   0  0  0  0  0  0  0  0  0  0  0  0
    6.8018    3.3940   23.3928 C   0  0  0  0  0  0  0  0  0  0  0  0
    7.2498    4.0031   24.1818 H   0  0  0  0  0  0  0  0  0  0  0  0
    5.7173    3.4692   23.5222 H   0  0  0  0  0  0  0  0  0  0  0  0
    7.2745    3.7390   21.9773 C   0  0  0  0  0  0  0  0  0  0  0  0
    7.8397    4.6715   21.9278 H   0  0  0  0  0  0  0  0  0  0  0  0
    6.4320    3.8518   21.2915 H   0  0  0  0  0  0  0  0  0  0  0  0
    8.1484    2.5517   21.5533 C   0  0  0  0  0  0  0  0  0  0  0  0
    9.2132    2.7488   21.7451 H   0  0  0  0  0  0  0  0  0  0  0  0
    8.0362    2.2944   20.4923 H   0  0  0  0  0  0  0  0  0  0  0  0
    5.5223    0.5792   20.1410 C   0  0  0  0  0  0  0  0  0  0  0  0
    5.0869    0.5590   21.1490 H   0  0  0  0  0  0  0  0  0  0  0  0
    4.9275    1.3075   19.1132 C   0  0  0  0  0  0  0  0  0  0  0  0
    4.0299    1.8924   19.2845 H   0  0  0  0  0  0  0  0  0  0  0  0
  1  2  1  0
  2  3  2  0
  3  4  1  0
  4  5  1  0
  4  6  2  0
  6  7  1  0
  7  8  2  0
  7  9  2  0
  7 10  1  0
 10 11  1  0
 10 12  1  0
 12 13  1  0
 13 14  2  0
 13 15  1  0
 15 16  1  0
 15 17  1  0
 15 18  1  0
 18 19  1  0
 18 20  1  0
 18 21  1  0
 21 22  1  0
 21 23  1  0
  6 24  1  0
 24 25  1  0
 24 26  2  0
 26 27  1  0
 26  2  1  0
 21 12  1  0
M  END
>  <plip>  (1) 
-0.0

>  <filename>  (1) 
[H][c]1[n][c]([H])[c]([S](=[O])(=[O])[N]([H])[N]2[C](=[O])[C]([H])([H])[C]([H])([H])[C]2([H])[H])[c]([H])[c]1[H]

$$$$
