
     RDKit          3D

 29 29  0  0  0  0  0  0  0  0999 V2000
    6.5533   -2.9898   23.4554 C   0  0  0  0  0  0  0  0  0  0  0  0
    7.3415   -2.7287   22.2502 N   0  0  0  0  0  0  0  0  0  0  0  0
    6.7208   -2.0060   21.1288 C   0  0  0  0  0  0  0  0  0  0  0  0
    7.2622   -0.5784   20.9523 C   0  0  0  0  0  0  0  0  0  0  0  0
    6.5898    0.1579   19.8220 C   0  0  0  0  0  0  0  0  0  0  0  0
    5.3646    0.8034   20.0229 C   0  0  0  0  0  0  0  0  0  0  0  0
    4.7407    1.4277   18.9432 C   0  0  0  0  0  0  0  0  0  0  0  0
    5.3684    1.3832   17.6925 C   0  0  0  0  0  0  0  0  0  0  0  0
    6.5435    0.7767   17.4728 N   0  0  0  0  0  0  0  0  0  0  0  0
    7.1288    0.1811   18.5215 C   0  0  0  0  0  0  0  0  0  0  0  0
    8.0894   -0.2970   18.3215 H   0  0  0  0  0  0  0  0  0  0  0  0
    4.9097    1.8604   16.8307 H   0  0  0  0  0  0  0  0  0  0  0  0
    3.7926    1.9403   19.0591 H   0  0  0  0  0  0  0  0  0  0  0  0
    4.9282    0.8316   21.0248 H   0  0  0  0  0  0  0  0  0  0  0  0
    7.1110   -0.0442   21.9001 H   0  0  0  0  0  0  0  0  0  0  0  0
    8.3391   -0.6477   20.7866 H   0  0  0  0  0  0  0  0  0  0  0  0
    5.6432   -1.9685   21.3215 H   0  0  0  0  0  0  0  0  0  0  0  0
    6.8434   -2.5811   20.2038 H   0  0  0  0  0  0  0  0  0  0  0  0
    8.6934   -2.9899   22.2113 C   0  0  0  0  0  0  0  0  0  0  0  0
    9.4221   -2.6081   21.3054 O   0  0  0  0  0  0  0  0  0  0  0  0
    9.3130   -3.7759   23.3869 C   0  0  0  0  0  0  0  0  0  0  0  0
    8.8022   -5.1777   23.4554 N   0  0  0  0  0  0  0  0  0  0  0  0
    8.8059   -5.7222   24.5597 N   0  0  0  0  0  4  0  0  0  0  0  0
    8.7430   -6.3117   25.5261 N   0  0  0  0  0  2  0  0  0  0  0  0
    9.1442   -3.2260   24.3283 H   0  0  0  0  0  0  0  0  0  0  0  0
   10.3868   -3.7771   23.1676 H   0  0  0  0  0  0  0  0  0  0  0  0
    5.5102   -2.7317   23.2562 H   0  0  0  0  0  0  0  0  0  0  0  0
    6.8934   -2.3739   24.3003 H   0  0  0  0  0  0  0  0  0  0  0  0
    6.5936   -4.0452   23.7477 H   0  0  0  0  0  0  0  0  0  0  0  0
  1  2  1  0
  2  3  1  0
  3  4  1  0
  4  5  1  0
  5  6  2  0
  6  7  1  0
  7  8  2  0
  8  9  1  0
  9 10  2  0
 10 11  1  0
  8 12  1  0
  7 13  1  0
  6 14  1  0
  4 15  1  0
  4 16  1  0
  3 17  1  0
  3 18  1  0
  2 19  1  0
 19 20  2  0
 19 21  1  0
 21 22  1  0
 22 23  2  0
 23 24  2  0
 21 25  1  0
 21 26  1  0
  1 27  1  0
  1 28  1  0
  1 29  1  0
 10  5  1  0
M  CHG  2  23   1  24  -1
M  END
>  <plip>  (1) 
-0.10714285714285714

>  <filename>  (1) 
[H][c]1[n][c]([H])[c]([C]([H])([H])[C]([H])([H])[N]([C](=[O])[C]([H])([H])[N]=[N+]=[N-])[C]([H])([H])[H])[c]([H])[c]1[H]

$$$$
