
     RDKit          3D

 30 32  0  0  0  0  0  0  0  0999 V2000
    9.7602   -0.0414   21.2162 O   0  0  0  0  0  0  0  0  0  0  0  0
    8.6310    0.2517   21.5504 C   0  0  0  0  0  0  0  0  0  0  0  0
    8.3188    1.3175   22.3686 N   0  0  0  0  0  0  0  0  0  0  0  0
    9.1771    2.3678   22.7882 C   0  0  0  0  0  0  0  0  0  0  0  0
    8.7924    3.2624   23.8412 C   0  0  0  0  0  0  0  0  0  0  0  0
    9.5000    4.3149   24.2275 N   0  0  0  0  0  0  0  0  0  0  0  0
   10.6682    4.5498   23.5727 C   0  0  0  0  0  0  0  0  0  0  0  0
   11.5682    5.6457   23.8229 C   0  0  0  0  0  0  0  0  0  0  0  0
   12.6860    5.5732   23.0650 C   0  0  0  0  0  0  0  0  0  0  0  0
   12.6711    4.2522   21.9411 S   0  0  0  0  0  0  0  0  0  0  0  0
   11.1457    3.6941   22.5564 C   0  0  0  0  0  0  0  0  0  0  0  0
   10.3987    2.5813   22.1530 C   0  0  0  0  0  0  0  0  0  0  0  0
   10.7334    1.9036   21.3770 H   0  0  0  0  0  0  0  0  0  0  0  0
   13.5686    6.2057   23.0944 H   0  0  0  0  0  0  0  0  0  0  0  0
   11.3376    6.4157   24.5459 H   0  0  0  0  0  0  0  0  0  0  0  0
    7.8536    3.0845   24.3706 H   0  0  0  0  0  0  0  0  0  0  0  0
    7.3599    1.3615   22.6759 H   0  0  0  0  0  0  0  0  0  0  0  0
    7.3875   -0.5987   21.0146 C   0  0  0  0  0  0  0  0  0  0  0  0
    6.5359   -0.8425   22.0675 F   0  0  0  0  0  0  0  0  0  0  0  0
    7.8482   -1.8101   20.6082 F   0  0  0  0  0  0  0  0  0  0  0  0
    6.5928    0.0361   19.8877 C   0  0  0  0  0  0  0  0  0  0  0  0
    5.3783    0.7090   20.0992 C   0  0  0  0  0  0  0  0  0  0  0  0
    4.7932    1.3600   19.0132 C   0  0  0  0  0  0  0  0  0  0  0  0
    5.4272    1.2978   17.7674 C   0  0  0  0  0  0  0  0  0  0  0  0
    6.5539    0.6035   17.5446 N   0  0  0  0  0  0  0  0  0  0  0  0
    7.1042   -0.0294   18.5822 C   0  0  0  0  0  0  0  0  0  0  0  0
    7.9917   -0.6273   18.3766 H   0  0  0  0  0  0  0  0  0  0  0  0
    5.0127    1.8113   16.9024 H   0  0  0  0  0  0  0  0  0  0  0  0
    3.8625    1.9109   19.1124 H   0  0  0  0  0  0  0  0  0  0  0  0
    4.8856    0.6853   21.0735 H   0  0  0  0  0  0  0  0  0  0  0  0
  1  2  2  0
  2  3  1  0
  3  4  1  0
  4  5  2  0
  5  6  1  0
  6  7  2  0
  7  8  1  0
  8  9  2  0
  9 10  1  0
 10 11  1  0
 11 12  2  0
 12 13  1  0
  9 14  1  0
  8 15  1  0
  5 16  1  0
  3 17  1  0
  2 18  1  0
 18 19  1  0
 18 20  1  0
 18 21  1  0
 21 22  2  0
 22 23  1  0
 23 24  2  0
 24 25  1  0
 25 26  2  0
 26 27  1  0
 24 28  1  0
 23 29  1  0
 22 30  1  0
 12  4  1  0
 26 21  1  0
 11  7  1  0
M  END
>  <plip>  (1) 
-0.13793103448275862

>  <filename>  (1) 
[H][c]1[n][c]([H])[c]([C]([F])([F])[C](=[O])[N]([H])[c]2[c]([H])[n][c]3[c]([H])[c]([H])[s][c]3[c]2[H])[c]([H])[c]1[H]

$$$$
