
     RDKit          3D

 31 33  0  0  0  0  0  0  0  0999 V2000
    5.8667   -0.9937   22.1302 H   0  0  0  0  0  0  0  0  0  0  0  0
    6.9120   -1.2192   21.9983 C   0  0  0  0  0  0  0  0  0  0  0  0
    7.4120   -0.8007   20.8322 C   0  0  0  0  0  0  0  0  0  0  0  0
    8.6924   -1.0872   20.4933 F   0  0  0  0  0  0  0  0  0  0  0  0
    6.7034   -0.0148   19.7957 C   0  0  0  0  0  0  0  0  0  0  0  0
    7.2509    0.0775   18.4975 C   0  0  0  0  0  0  0  0  0  0  0  0
    8.1985   -0.3983   18.2713 H   0  0  0  0  0  0  0  0  0  0  0  0
    6.6621    0.7078   17.4779 N   0  0  0  0  0  0  0  0  0  0  0  0
    5.4876    1.3145   17.7093 C   0  0  0  0  0  0  0  0  0  0  0  0
    5.0362    1.8242   16.8585 H   0  0  0  0  0  0  0  0  0  0  0  0
    4.8644    1.3156   18.9605 C   0  0  0  0  0  0  0  0  0  0  0  0
    3.9169    1.8309   19.0892 H   0  0  0  0  0  0  0  0  0  0  0  0
    5.4751    0.6448   20.0217 C   0  0  0  0  0  0  0  0  0  0  0  0
    5.0127    0.6461   21.0062 H   0  0  0  0  0  0  0  0  0  0  0  0
    7.4995   -1.9546   23.1338 C   0  0  0  0  0  0  0  0  0  0  0  0
    6.7563   -1.9734   24.3348 C   0  0  0  0  0  0  0  0  0  0  0  0
    5.8532   -1.3772   24.4028 H   0  0  0  0  0  0  0  0  0  0  0  0
    7.1728   -2.7246   25.4357 C   0  0  0  0  0  0  0  0  0  0  0  0
    6.6060   -2.7942   26.3595 H   0  0  0  0  0  0  0  0  0  0  0  0
    8.3398   -3.4817   25.3411 C   0  0  0  0  0  0  0  0  0  0  0  0
    9.0860   -3.4777   24.1381 C   0  0  0  0  0  0  0  0  0  0  0  0
    8.7082   -2.6614   23.0740 C   0  0  0  0  0  0  0  0  0  0  0  0
    9.3634   -2.5884   22.2170 H   0  0  0  0  0  0  0  0  0  0  0  0
   10.1691   -4.2965   23.9791 O   0  0  0  0  0  0  0  0  0  0  0  0
   10.2320   -5.3791   24.9111 C   0  0  0  0  0  0  0  0  0  0  0  0
    9.4950   -6.1567   24.6559 H   0  0  0  0  0  0  0  0  0  0  0  0
   11.2457   -5.7542   24.8159 H   0  0  0  0  0  0  0  0  0  0  0  0
    9.9834   -4.8706   26.3213 C   0  0  0  0  0  0  0  0  0  0  0  0
    9.9867   -5.6881   27.0428 H   0  0  0  0  0  0  0  0  0  0  0  0
   10.7725   -4.1531   26.5625 H   0  0  0  0  0  0  0  0  0  0  0  0
    8.6953   -4.2556   26.4157 O   0  0  0  0  0  0  0  0  0  0  0  0
  1  2  1  0
  2  3  2  3
  3  4  1  0
  3  5  1  0
  5  6  2  0
  6  7  1  0
  6  8  1  0
  8  9  2  0
  9 10  1  0
  9 11  1  0
 11 12  1  0
 11 13  2  0
 13 14  1  0
  2 15  1  0
 15 16  2  0
 16 17  1  0
 16 18  1  0
 18 19  1  0
 18 20  2  0
 20 21  1  0
 21 22  2  0
 22 23  1  0
 21 24  1  0
 24 25  1  0
 25 26  1  0
 25 27  1  0
 25 28  1  0
 28 29  1  0
 28 30  1  0
 28 31  1  0
 13  5  1  0
 22 15  1  0
 31 20  1  0
M  END
>  <plip>  (1) 
-0.034482758620689655

>  <filename>  (1) 
[H][C](=[C]([F])[c]1[c]([H])[n][c]([H])[c]([H])[c]1[H])[c]1[c]([H])[c]([H])[c]2[c]([c]1[H])[O][C]([H])([H])[C]([H])([H])[O]2

$$$$
