
     RDKit          3D

 41 42  0  0  0  0  0  0  0  0999 V2000
    5.0127    1.8119   17.0092 H   0  0  0  0  0  0  0  0  0  0  0  0
    5.4796    1.3120   17.8563 C   0  0  0  0  0  0  0  0  0  0  0  0
    6.6659    0.7250   17.6202 N   0  0  0  0  0  0  0  0  0  0  0  0
    7.2589    0.0907   18.6459 C   0  0  0  0  0  0  0  0  0  0  0  0
    8.2263   -0.3709   18.4391 H   0  0  0  0  0  0  0  0  0  0  0  0
    6.6938   -0.0352   19.9412 C   0  0  0  0  0  0  0  0  0  0  0  0
    7.2761   -0.8136   20.9843 N   0  0  0  0  0  0  0  0  0  0  0  0
    8.1079   -0.0257   21.8733 C   0  0  0  0  0  0  0  0  0  0  0  0
    8.8831    0.5391   21.3263 H   0  0  0  0  0  0  0  0  0  0  0  0
    7.4861    0.7072   22.4144 H   0  0  0  0  0  0  0  0  0  0  0  0
    8.6172   -0.6540   22.6111 H   0  0  0  0  0  0  0  0  0  0  0  0
    7.3128   -2.2899   21.0019 C   0  0  1  0  0  0  0  0  0  0  0  0
    8.3528   -2.6143   20.8050 H   0  0  0  0  0  0  0  0  0  0  0  0
    6.9349   -2.8354   22.3767 C   0  0  0  0  0  0  0  0  0  0  0  0
    7.8714   -3.2262   23.3329 C   0  0  0  0  0  0  0  0  0  0  0  0
    8.9298   -3.2894   23.0690 H   0  0  0  0  0  0  0  0  0  0  0  0
    7.5740   -3.5811   24.6068 N   0  0  0  0  0  0  0  0  0  0  0  0
    6.2931   -3.5338   24.9527 C   0  0  0  0  0  0  0  0  0  0  0  0
    5.8681   -3.7039   26.2097 O   0  0  0  0  0  0  0  0  0  0  0  0
    6.4382   -4.6311   27.1473 C   0  0  0  0  0  0  0  0  0  0  0  0
    7.5011   -4.3987   27.2887 H   0  0  0  0  0  0  0  0  0  0  0  0
    6.2671   -6.0594   26.6476 C   0  0  0  0  0  0  0  0  0  0  0  0
    6.7526   -6.2025   25.6795 H   0  0  0  0  0  0  0  0  0  0  0  0
    6.6967   -6.7747   27.3553 H   0  0  0  0  0  0  0  0  0  0  0  0
    5.2038   -6.2912   26.5266 H   0  0  0  0  0  0  0  0  0  0  0  0
    5.6372   -4.3447   28.4137 C   0  0  0  0  0  0  0  0  0  0  0  0
    6.0455   -4.8202   29.3079 H   0  0  0  0  0  0  0  0  0  0  0  0
    5.5859   -3.2669   28.5881 H   0  0  0  0  0  0  0  0  0  0  0  0
    4.6069   -4.6916   28.2838 H   0  0  0  0  0  0  0  0  0  0  0  0
    5.2515   -3.2376   24.0519 C   0  0  0  0  0  0  0  0  0  0  0  0
    4.2316   -3.2403   24.4172 H   0  0  0  0  0  0  0  0  0  0  0  0
    5.5825   -2.9040   22.7581 C   0  0  0  0  0  0  0  0  0  0  0  0
    4.7935   -2.6550   22.0449 H   0  0  0  0  0  0  0  0  0  0  0  0
    6.3710   -2.8837   19.9461 C   0  0  0  0  0  0  0  0  0  0  0  0
    6.5596   -2.5040   18.9416 H   0  0  0  0  0  0  0  0  0  0  0  0
    5.3351   -2.6261   20.1533 H   0  0  0  0  0  0  0  0  0  0  0  0
    6.4711   -3.9704   19.9378 H   0  0  0  0  0  0  0  0  0  0  0  0
    5.4920    0.6496   20.1735 C   0  0  0  0  0  0  0  0  0  0  0  0
    5.0783    0.6333   21.1822 H   0  0  0  0  0  0  0  0  0  0  0  0
    4.8595    1.3114   19.1124 C   0  0  0  0  0  0  0  0  0  0  0  0
    3.9155    1.8311   19.2523 H   0  0  0  0  0  0  0  0  0  0  0  0
  1  2  1  0
  2  3  2  0
  3  4  1  0
  4  5  1  0
  4  6  2  0
  6  7  1  0
  7  8  1  0
  8  9  1  0
  8 10  1  0
  8 11  1  0
  7 12  1  0
 12 13  1  6
 12 14  1  0
 14 15  2  0
 15 16  1  0
 15 17  1  0
 17 18  2  0
 18 19  1  0
 19 20  1  0
 20 21  1  0
 20 22  1  0
 22 23  1  0
 22 24  1  0
 22 25  1  0
 20 26  1  0
 26 27  1  0
 26 28  1  0
 26 29  1  0
 18 30  1  0
 30 31  1  0
 30 32  2  0
 32 33  1  0
 12 34  1  0
 34 35  1  0
 34 36  1  0
 34 37  1  0
  6 38  1  0
 38 39  1  0
 38 40  2  0
 40 41  1  0
 40  2  1  0
 32 14  1  0
M  END
>  <plip>  (1) 
-0.06896551724137931

>  <filename>  (1) 
[H][c]1[n][c]([H])[c]([N]([C]([H])([H])[H])[C@@]([H])([c]2[c]([H])[n][c]([O][C]([H])([C]([H])([H])[H])[C]([H])([H])[H])[c]([H])[c]2[H])[C]([H])([H])[H])[c]([H])[c]1[H]

$$$$
