
     RDKit          3D

 20 21  0  0  0  0  0  0  0  0999 V2000
    4.9189    1.7955   16.9915 H   0  0  0  0  0  0  0  0  0  0  0  0
    5.3961    1.2980   17.8348 C   0  0  0  0  0  0  0  0  0  0  0  0
    6.5533    0.6747   17.5607 N   0  0  0  0  0  0  0  0  0  0  0  0
    7.1615    0.0515   18.5801 C   0  0  0  0  0  0  0  0  0  0  0  0
    8.1131   -0.4277   18.3672 H   0  0  0  0  0  0  0  0  0  0  0  0
    6.6630   -0.0270   19.9098 C   0  0  0  0  0  0  0  0  0  0  0  0
    7.3536   -0.7336   20.9208 N   0  0  0  0  0  0  0  0  0  0  0  0
    6.8630   -1.1768   21.6812 H   0  0  0  0  0  0  0  0  0  0  0  0
    8.7030   -0.6284   21.1287 C   0  0  0  0  0  0  0  0  0  0  0  0
    9.2801   -1.5442   21.9329 O   0  0  0  0  0  0  0  0  0  0  0  0
   10.6241   -1.2477   21.9459 C   0  0  0  0  0  0  0  0  0  0  0  0
   11.2499   -1.8871   22.5462 H   0  0  0  0  0  0  0  0  0  0  0  0
   10.8755   -0.1595   21.1848 C   0  0  0  0  0  0  0  0  0  0  0  0
   11.8270    0.3247   21.0331 H   0  0  0  0  0  0  0  0  0  0  0  0
    9.6139    0.2435   20.6427 C   0  0  0  0  0  0  0  0  0  0  0  0
    9.3276    1.0360   19.9805 H   0  0  0  0  0  0  0  0  0  0  0  0
    5.4507    0.6228   20.1683 C   0  0  0  0  0  0  0  0  0  0  0  0
    5.0328    0.6123   21.1784 H   0  0  0  0  0  0  0  0  0  0  0  0
    4.8189    1.3004   19.1111 C   0  0  0  0  0  0  0  0  0  0  0  0
    3.8890    1.8319   19.2650 H   0  0  0  0  0  0  0  0  0  0  0  0
  1  2  1  0
  2  3  2  0
  3  4  1  0
  4  5  1  0
  4  6  2  0
  6  7  1  0
  7  8  1  0
  7  9  1  0
  9 10  1  0
 10 11  1  0
 11 12  1  0
 11 13  2  0
 13 14  1  0
 13 15  1  0
 15 16  1  0
  6 17  1  0
 17 18  1  0
 17 19  2  0
 19 20  1  0
 19  2  1  0
 15  9  2  0
M  END
>  <plip>  (1) 
-0.10714285714285714

>  <filename>  (1) 
[H][c]1[n][c]([H])[c]([N]([H])[c]2[o][c]([H])[c]([H])[c]2[H])[c]([H])[c]1[H]

$$$$
