
     RDKit          3D

 25 27  0  0  0  0  0  0  0  0999 V2000
    4.8512    2.2634   16.2702 H   0  0  0  0  0  0  0  0  0  0  0  0
    5.2219    1.7223   17.1383 C   0  0  0  0  0  0  0  0  0  0  0  0
    6.3374    0.9992   16.9461 N   0  0  0  0  0  0  0  0  0  0  0  0
    6.8211    0.3504   18.0092 C   0  0  0  0  0  0  0  0  0  0  0  0
    7.7161   -0.2344   17.8212 H   0  0  0  0  0  0  0  0  0  0  0  0
    6.2589    0.3828   19.3053 C   0  0  0  0  0  0  0  0  0  0  0  0
    6.9225   -0.2757   20.4388 C   0  0  0  0  0  0  0  0  0  0  0  0
    6.5271   -0.4730   21.7970 C   0  0  0  0  0  0  0  0  0  0  0  0
    5.6448   -0.1279   22.3084 H   0  0  0  0  0  0  0  0  0  0  0  0
    7.4457   -1.1153   22.4937 N   0  0  0  0  0  0  0  0  0  0  0  0
    8.4565   -1.3138   21.6312 N   0  0  0  0  0  0  0  0  0  0  0  0
    9.7005   -1.8168   22.0642 C   0  0  0  0  0  0  0  0  0  0  0  0
   10.8904   -1.2616   21.6890 C   0  0  0  0  0  0  0  0  0  0  0  0
   11.0294   -0.3285   21.1615 H   0  0  0  0  0  0  0  0  0  0  0  0
   12.2132   -2.1304   22.3102 S   0  0  0  0  0  0  0  0  0  0  0  0
   11.1653   -3.1729   23.1936 C   0  0  0  0  0  0  0  0  0  0  0  0
   11.5714   -3.9286   23.8503 H   0  0  0  0  0  0  0  0  0  0  0  0
    9.8567   -2.9287   22.9474 C   0  0  0  0  0  0  0  0  0  0  0  0
    9.0248   -3.4886   23.3606 H   0  0  0  0  0  0  0  0  0  0  0  0
    8.1787   -0.8252   20.3985 C   0  0  0  0  0  0  0  0  0  0  0  0
    8.9076   -0.8733   19.6026 H   0  0  0  0  0  0  0  0  0  0  0  0
    5.0760    1.1122   19.4658 C   0  0  0  0  0  0  0  0  0  0  0  0
    4.6032    1.1582   20.4458 H   0  0  0  0  0  0  0  0  0  0  0  0
    4.5521    1.7880   18.3645 C   0  0  0  0  0  0  0  0  0  0  0  0
    3.6442    2.3703   18.4509 H   0  0  0  0  0  0  0  0  0  0  0  0
  1  2  1  0
  2  3  2  0
  3  4  1  0
  4  5  1  0
  4  6  2  0
  6  7  1  0
  7  8  1  0
  8  9  1  0
  8 10  2  0
 10 11  1  0
 11 12  1  0
 12 13  2  0
 13 14  1  0
 13 15  1  0
 15 16  1  0
 16 17  1  0
 16 18  2  0
 18 19  1  0
 11 20  1  0
 20 21  1  0
  6 22  1  0
 22 23  1  0
 22 24  2  0
 24 25  1  0
 24  2  1  0
 20  7  2  0
 18 12  1  0
M  END
>  <plip>  (1) 
-0.034482758620689655

>  <filename>  (1) 
[H][c]1[n][c]([H])[c](-[c]2[c]([H])[n][n](-[c]3[c]([H])[s][c]([H])[c]3[H])[c]2[H])[c]([H])[c]1[H]

$$$$
