
     RDKit          3D

 30 33  0  0  0  0  0  0  0  0999 V2000
    5.0199    1.7784   16.9586 H   0  0  0  0  0  0  0  0  0  0  0  0
    5.4596    1.2984   17.8272 C   0  0  0  0  0  0  0  0  0  0  0  0
    6.6104    0.6448   17.6033 N   0  0  0  0  0  0  0  0  0  0  0  0
    7.1827    0.0526   18.6523 C   0  0  0  0  0  0  0  0  0  0  0  0
    8.0865   -0.5241   18.4603 H   0  0  0  0  0  0  0  0  0  0  0  0
    6.6753    0.1181   19.9650 C   0  0  0  0  0  0  0  0  0  0  0  0
    7.4110   -0.5551   21.0514 C   0  0  0  0  0  0  0  0  0  0  0  0
    8.0895   -1.7088   20.7577 N   0  0  0  0  0  0  0  0  0  0  0  0
    8.6019   -2.3147   21.7519 N   0  0  0  0  0  0  0  0  0  0  0  0
    8.3086   -1.4797   23.1913 S   0  0  0  0  0  0  0  0  0  0  0  0
    7.4892   -0.2068   22.4008 C   0  0  0  0  0  0  0  0  0  0  0  0
    7.0155    0.9695   23.1472 C   0  0  0  0  0  0  0  0  0  0  0  0
    6.1701    0.7869   24.2527 C   0  0  0  0  0  0  0  0  0  0  0  0
    5.8916   -0.2270   24.5167 H   0  0  0  0  0  0  0  0  0  0  0  0
    5.6277    1.8762   24.9594 C   0  0  0  0  0  0  0  0  0  0  0  0
    4.9489    1.6866   25.7904 H   0  0  0  0  0  0  0  0  0  0  0  0
    5.9493    3.1841   24.6109 C   0  0  0  0  0  0  0  0  0  0  0  0
    5.5509    4.0386   25.1556 H   0  0  0  0  0  0  0  0  0  0  0  0
    6.7981    3.3747   23.5098 C   0  0  0  0  0  0  0  0  0  0  0  0
    7.3589    2.2981   22.7686 C   0  0  0  0  0  0  0  0  0  0  0  0
    8.1808    2.8956   21.7454 C   0  0  0  0  0  0  0  0  0  0  0  0
    8.7719    2.3755   20.9997 H   0  0  0  0  0  0  0  0  0  0  0  0
    8.0502    4.2530   21.8673 C   0  0  0  0  0  0  0  0  0  0  0  0
    8.4336    5.0554   21.2493 H   0  0  0  0  0  0  0  0  0  0  0  0
    7.2247    4.5415   22.9263 N   0  0  0  0  0  0  0  0  0  0  0  0
    6.9435    5.4658   23.2212 H   0  0  0  0  0  0  0  0  0  0  0  0
    5.4631    0.7909   20.1787 C   0  0  0  0  0  0  0  0  0  0  0  0
    5.0275    0.8333   21.1813 H   0  0  0  0  0  0  0  0  0  0  0  0
    4.8372    1.3781   19.0779 C   0  0  0  0  0  0  0  0  0  0  0  0
    3.8929    1.9046   19.1714 H   0  0  0  0  0  0  0  0  0  0  0  0
  1  2  1  0
  2  3  2  0
  3  4  1  0
  4  5  1  0
  4  6  2  0
  6  7  1  0
  7  8  1  0
  8  9  2  0
  9 10  1  0
 10 11  1  0
 11 12  1  0
 12 13  2  0
 13 14  1  0
 13 15  1  0
 15 16  1  0
 15 17  2  0
 17 18  1  0
 17 19  1  0
 19 20  2  0
 20 21  1  0
 21 22  1  0
 21 23  2  0
 23 24  1  0
 23 25  1  0
 25 26  1  0
  6 27  1  0
 27 28  1  0
 27 29  2  0
 29 30  1  0
 29  2  1  0
 11  7  2  0
 20 12  1  0
 25 19  1  0
M  END
>  <plip>  (1) 
-0.0

>  <filename>  (1) 
[H][c]1[n][c]([H])[c](-[c]2[n][n][s][c]2-[c]2[c]([H])[c]([H])[c]([H])[c]3[c]2[c]([H])[c]([H])[n]3[H])[c]([H])[c]1[H]

$$$$
