
     RDKit          3D

 27 29  0  0  0  0  0  0  0  0999 V2000
    4.9589    1.7750   16.9771 H   0  0  0  0  0  0  0  0  0  0  0  0
    5.4201    1.2967   17.8353 C   0  0  0  0  0  0  0  0  0  0  0  0
    6.5872    0.6669   17.6098 N   0  0  0  0  0  0  0  0  0  0  0  0
    7.1793    0.0734   18.6539 C   0  0  0  0  0  0  0  0  0  0  0  0
    8.1204   -0.4431   18.4560 H   0  0  0  0  0  0  0  0  0  0  0  0
    6.6518    0.0861   19.9673 C   0  0  0  0  0  0  0  0  0  0  0  0
    7.3092   -0.6212   21.0158 N   0  0  0  0  0  0  0  0  0  0  0  0
    7.7090   -0.1694   22.2631 C   0  0  0  0  0  0  0  0  0  0  0  0
    7.3427    1.1574   22.8094 C   0  0  1  0  0  0  0  0  0  0  0  0
    6.3070    1.2500   23.1257 H   0  0  0  0  0  0  0  0  0  0  0  0
    8.3540    1.9427   23.6076 C   0  0  0  0  0  0  0  0  0  0  0  0
    8.0434    2.5128   24.4817 H   0  0  0  0  0  0  0  0  0  0  0  0
    9.3394    1.4878   23.6821 H   0  0  0  0  0  0  0  0  0  0  0  0
    7.9635    2.3869   22.2351 C   0  0  1  0  0  0  0  0  0  0  0  0
    7.3027    3.2628   22.1606 H   0  0  0  0  0  0  0  0  0  0  0  0
    8.9256    2.1058   21.2075 N   0  0  0  0  0  0  0  0  0  0  0  0
    8.4482    2.1726   20.3162 H   0  0  0  0  0  0  0  0  0  0  0  0
    9.6584    2.8099   21.2315 H   0  0  0  0  0  0  0  0  0  0  0  0
    8.3803   -1.0933   22.9103 N   0  0  0  0  0  0  0  0  0  0  0  0
    8.4014   -2.1893   22.0905 C   0  0  0  0  0  0  0  0  0  0  0  0
    8.8926   -3.1019   22.3891 H   0  0  0  0  0  0  0  0  0  0  0  0
    7.7302   -1.9320   20.9348 C   0  0  0  0  0  0  0  0  0  0  0  0
    7.3890   -2.5477   20.1248 H   0  0  0  0  0  0  0  0  0  0  0  0
    5.4317    0.7391   20.1849 C   0  0  0  0  0  0  0  0  0  0  0  0
    4.9683    0.7204   21.1750 H   0  0  0  0  0  0  0  0  0  0  0  0
    4.8088    1.3466   19.0941 C   0  0  0  0  0  0  0  0  0  0  0  0
    3.8581    1.8522   19.2133 H   0  0  0  0  0  0  0  0  0  0  0  0
  1  2  1  0
  2  3  2  0
  3  4  1  0
  4  5  1  0
  4  6  2  0
  6  7  1  0
  7  8  1  0
  8  9  1  0
  9 10  1  1
  9 11  1  0
 11 12  1  0
 11 13  1  0
 11 14  1  0
 14 15  1  1
 14 16  1  0
 16 17  1  0
 16 18  1  0
  8 19  2  0
 19 20  1  0
 20 21  1  0
 20 22  2  0
 22 23  1  0
  6 24  1  0
 24 25  1  0
 24 26  2  0
 26 27  1  0
 26  2  1  0
 22  7  1  0
 14  9  1  0
M  END
>  <plip>  (1) 
-0.10714285714285714

>  <filename>  (1) 
[H][c]1[n][c]([H])[c](-[n]2[c]([C@@]3([H])[C]([H])([H])[C@@]3([H])[N]([H])[H])[n][c]([H])[c]2[H])[c]([H])[c]1[H]

$$$$
