
     RDKit          3D

 29 31  0  0  0  0  0  0  0  0999 V2000
    4.9155    1.7775   17.0004 H   0  0  0  0  0  0  0  0  0  0  0  0
    5.4035    1.2906   17.8442 C   0  0  0  0  0  0  0  0  0  0  0  0
    6.5719    0.6739   17.5904 N   0  0  0  0  0  0  0  0  0  0  0  0
    7.1822    0.0506   18.6012 C   0  0  0  0  0  0  0  0  0  0  0  0
    8.1280   -0.4412   18.3825 H   0  0  0  0  0  0  0  0  0  0  0  0
    6.6573    0.0128   19.9065 C   0  0  0  0  0  0  0  0  0  0  0  0
    7.3458   -0.6860   20.9493 N   0  0  0  0  0  0  0  0  0  0  0  0
    7.7662   -1.9506   20.7722 N   0  0  0  0  0  0  0  0  0  0  0  0
    8.2719   -2.3435   21.8842 N   0  0  0  0  0  0  0  0  0  0  0  0
    8.2040   -1.3773   22.8189 N   0  0  0  0  0  0  0  0  0  0  0  0
    7.6322   -0.3416   22.2375 C   0  0  0  0  0  0  0  0  0  0  0  0
    7.4423    1.0489   22.8042 C   0  0  0  0  0  0  0  0  0  0  0  0
    7.2369    1.9971   22.0727 O   0  0  0  0  0  0  0  0  0  0  0  0
    7.5299    1.1815   24.1693 N   0  0  0  0  0  0  0  0  0  0  0  0
    7.4722    0.3512   24.7351 H   0  0  0  0  0  0  0  0  0  0  0  0
    7.6430    2.4019   24.8534 C   0  0  0  0  0  0  0  0  0  0  0  0
    7.0711    2.5617   26.1136 C   0  0  0  0  0  0  0  0  0  0  0  0
    6.5264    1.7620   26.5957 H   0  0  0  0  0  0  0  0  0  0  0  0
    7.1969    3.7981   26.7428 C   0  0  0  0  0  0  0  0  0  0  0  0
    6.7525    3.9546   27.7199 H   0  0  0  0  0  0  0  0  0  0  0  0
    7.8502    4.8458   26.2281 N   0  0  0  0  0  0  0  0  0  0  0  0
    8.4075    4.6589   25.0239 C   0  0  0  0  0  0  0  0  0  0  0  0
    8.9396    5.5085   24.6095 H   0  0  0  0  0  0  0  0  0  0  0  0
    8.3429    3.4733   24.3015 C   0  0  0  0  0  0  0  0  0  0  0  0
    8.8268    3.3878   23.3404 H   0  0  0  0  0  0  0  0  0  0  0  0
    5.4388    0.6423   20.1669 C   0  0  0  0  0  0  0  0  0  0  0  0
    5.0063    0.6354   21.1676 H   0  0  0  0  0  0  0  0  0  0  0  0
    4.8077    1.3026   19.1079 C   0  0  0  0  0  0  0  0  0  0  0  0
    3.8787    1.8408   19.2650 H   0  0  0  0  0  0  0  0  0  0  0  0
  1  2  1  0
  2  3  2  0
  3  4  1  0
  4  5  1  0
  4  6  2  0
  6  7  1  0
  7  8  1  0
  8  9  2  0
  9 10  1  0
 10 11  2  0
 11 12  1  0
 12 13  2  0
 12 14  1  0
 14 15  1  0
 14 16  1  0
 16 17  2  0
 17 18  1  0
 17 19  1  0
 19 20  1  0
 19 21  2  0
 21 22  1  0
 22 23  1  0
 22 24  2  0
 24 25  1  0
  6 26  1  0
 26 27  1  0
 26 28  2  0
 28 29  1  0
 28  2  1  0
 11  7  1  0
 24 16  1  0
M  END
>  <plip>  (1) 
-0.0

>  <filename>  (1) 
[H][c]1[n][c]([H])[c](-[n]2[n][n][n][c]2[C](=[O])[N]([H])[c]2[c]([H])[c]([H])[n][c]([H])[c]2[H])[c]([H])[c]1[H]

$$$$
