
     RDKit          3D

 26 26  0  0  0  0  0  0  0  0999 V2000
    4.9864    1.7618   17.0112 H   0  0  0  0  0  0  0  0  0  0  0  0
    5.4350    1.2714   17.8705 C   0  0  0  0  0  0  0  0  0  0  0  0
    6.5975    0.6447   17.6352 N   0  0  0  0  0  0  0  0  0  0  0  0
    7.1825    0.0278   18.6649 C   0  0  0  0  0  0  0  0  0  0  0  0
    8.1218   -0.4803   18.4493 H   0  0  0  0  0  0  0  0  0  0  0  0
    6.6220    0.0030   19.9429 C   0  0  0  0  0  0  0  0  0  0  0  0
    7.5170   -0.8926   21.2070 S   0  0  0  0  0  4  0  0  0  0  0  0
    8.4540   -1.7651   20.4846 O   0  0  0  0  0  0  0  0  0  0  0  0
    8.3650    0.4044   21.7929 O   0  0  0  0  0  0  0  0  0  0  0  0
    9.6373    0.6935   21.1462 C   0  0  0  0  0  0  0  0  0  0  0  0
    9.7208    1.7723   21.2912 H   0  0  0  0  0  0  0  0  0  0  0  0
    9.5624    0.4752   20.0751 H   0  0  0  0  0  0  0  0  0  0  0  0
   10.8394   -0.0492   21.7217 C   0  0  0  0  0  0  0  0  0  0  0  0
   10.6900   -1.1229   21.5574 H   0  0  0  0  0  0  0  0  0  0  0  0
   11.6987    0.2420   21.1031 H   0  0  0  0  0  0  0  0  0  0  0  0
   11.1780    0.2413   23.1917 C   0  0  0  0  0  0  0  0  0  0  0  0
   12.0039   -0.4164   23.4909 H   0  0  0  0  0  0  0  0  0  0  0  0
   10.3184   -0.0384   23.8161 H   0  0  0  0  0  0  0  0  0  0  0  0
   11.5840    1.7001   23.4594 C   0  0  0  0  0  0  0  0  0  0  0  0
   10.7493    2.3912   23.2882 H   0  0  0  0  0  0  0  0  0  0  0  0
   11.9117    1.8421   24.4956 H   0  0  0  0  0  0  0  0  0  0  0  0
   12.4101    2.0183   22.8086 H   0  0  0  0  0  0  0  0  0  0  0  0
    5.4229    0.6681   20.2030 C   0  0  0  0  0  0  0  0  0  0  0  0
    4.9606    0.6773   21.1909 H   0  0  0  0  0  0  0  0  0  0  0  0
    4.8172    1.3111   19.1250 C   0  0  0  0  0  0  0  0  0  0  0  0
    3.8788    1.8380   19.2378 H   0  0  0  0  0  0  0  0  0  0  0  0
  1  2  1  0
  2  3  2  0
  3  4  1  0
  4  5  1  0
  4  6  2  0
  6  7  1  0
  7  8  2  0
  7  9  1  1
  9 10  1  0
 10 11  1  0
 10 12  1  0
 10 13  1  0
 13 14  1  0
 13 15  1  0
 13 16  1  0
 16 17  1  0
 16 18  1  0
 16 19  1  0
 19 20  1  0
 19 21  1  0
 19 22  1  0
  6 23  1  0
 23 24  1  0
 23 25  2  0
 25 26  1  0
 25  2  1  0
M  END
>  <plip>  (1) 
-0.03333333333333333

>  <filename>  (1) 
[H][c]1[n][c]([H])[c]([S@@](=[O])[O][C]([H])([H])[C]([H])([H])[C]([H])([H])[C]([H])([H])[H])[c]([H])[c]1[H]

$$$$
