
     RDKit          3D

 29 31  0  0  0  0  0  0  0  0999 V2000
    5.2778    0.0436   24.2799 H   0  0  0  0  0  0  0  0  0  0  0  0
    5.7663   -0.6260   24.9859 C   0  0  0  0  0  0  0  0  0  0  0  0
    5.2174   -0.6884   26.2155 N   0  0  0  0  0  0  0  0  0  0  0  0
    5.8555   -1.4546   27.1170 C   0  0  0  0  0  0  0  0  0  0  0  0
    5.1875   -1.4913   28.2939 N   0  0  0  0  0  0  0  0  0  0  0  0
    4.3914   -0.8811   28.2413 H   0  0  0  0  0  0  0  0  0  0  0  0
    5.5390   -1.8180   29.1755 H   0  0  0  0  0  0  0  0  0  0  0  0
    7.0727   -2.1412   26.8030 C   0  0  0  0  0  0  0  0  0  0  0  0
    7.6106   -2.6761   27.5814 H   0  0  0  0  0  0  0  0  0  0  0  0
    7.5831   -2.1073   25.5759 N   0  0  0  0  0  0  0  0  0  0  0  0
    6.9210   -1.3587   24.6391 C   0  0  0  0  0  0  0  0  0  0  0  0
    7.4855   -1.3524   23.2492 C   0  0  0  0  0  0  0  0  0  0  0  0
    6.8174   -0.7086   22.2846 N   0  0  0  0  0  0  0  0  0  0  0  0
    7.3513   -0.7088   21.0571 C   0  0  0  0  0  0  0  0  0  0  0  0
    6.6284   -0.0075   19.9878 C   0  0  0  0  0  0  0  0  0  0  0  0
    7.1899    0.0078   18.7018 C   0  0  0  0  0  0  0  0  0  0  0  0
    8.1399   -0.4880   18.5092 H   0  0  0  0  0  0  0  0  0  0  0  0
    6.6169    0.6171   17.6616 N   0  0  0  0  0  0  0  0  0  0  0  0
    5.4563    1.2524   17.8782 C   0  0  0  0  0  0  0  0  0  0  0  0
    5.0162    1.7528   17.0201 H   0  0  0  0  0  0  0  0  0  0  0  0
    4.8141    1.2938   19.1214 C   0  0  0  0  0  0  0  0  0  0  0  0
    3.8792    1.8333   19.2384 H   0  0  0  0  0  0  0  0  0  0  0  0
    5.4113    0.6529   20.2009 C   0  0  0  0  0  0  0  0  0  0  0  0
    4.9632    0.6600   21.1948 H   0  0  0  0  0  0  0  0  0  0  0  0
    8.4993   -1.2912   20.7157 N   0  0  0  0  0  0  0  0  0  0  0  0
    9.1551   -1.9320   21.6763 C   0  0  0  0  0  0  0  0  0  0  0  0
   10.0930   -2.4000   21.3818 H   0  0  0  0  0  0  0  0  0  0  0  0
    8.6905   -2.0091   22.9752 C   0  0  0  0  0  0  0  0  0  0  0  0
    9.2236   -2.5380   23.7516 H   0  0  0  0  0  0  0  0  0  0  0  0
  1  2  1  0
  2  3  2  0
  3  4  1  0
  4  5  1  0
  5  6  1  0
  5  7  1  0
  4  8  2  0
  8  9  1  0
  8 10  1  0
 10 11  2  0
 11 12  1  0
 12 13  2  0
 13 14  1  0
 14 15  1  0
 15 16  2  0
 16 17  1  0
 16 18  1  0
 18 19  2  0
 19 20  1  0
 19 21  1  0
 21 22  1  0
 21 23  2  0
 23 24  1  0
 14 25  2  0
 25 26  1  0
 26 27  1  0
 26 28  2  0
 28 29  1  0
 11  2  1  0
 28 12  1  0
 23 15  1  0
M  END
>  <plip>  (1) 
-0.0

>  <filename>  (1) 
[H][c]1[n][c]([N]([H])[H])[c]([H])[n][c]1-[c]1[n][c](-[c]2[c]([H])[n][c]([H])[c]([H])[c]2[H])[n][c]([H])[c]1[H]

$$$$
