
     RDKit          3D

 40 44  0  0  0  0  0  0  0  0999 V2000
    4.9234    1.8429   16.9258 H   0  0  0  0  0  0  0  0  0  0  0  0
    5.4136    1.3341   17.7527 C   0  0  0  0  0  0  0  0  0  0  0  0
    6.5686    0.7174   17.4616 N   0  0  0  0  0  0  0  0  0  0  0  0
    7.2001    0.0992   18.4662 C   0  0  0  0  0  0  0  0  0  0  0  0
    8.1301   -0.4087   18.2080 H   0  0  0  0  0  0  0  0  0  0  0  0
    6.7387    0.0562   19.7919 C   0  0  0  0  0  0  0  0  0  0  0  0
    7.5074   -0.6415   20.8898 C   0  0  1  0  0  0  0  0  0  0  0  0
    8.4463   -1.0237   20.4788 H   0  0  0  0  0  0  0  0  0  0  0  0
    7.8691    0.3182   22.0766 C   0  0  0  0  0  0  0  0  0  0  0  0
    7.4462    1.3220   21.9710 H   0  0  0  0  0  0  0  0  0  0  0  0
    8.9480    0.4727   22.1547 H   0  0  0  0  0  0  0  0  0  0  0  0
    7.3111   -0.3884   23.2709 C   0  0  0  0  0  0  0  0  0  0  0  0
    7.1677   -0.0740   24.5443 N   0  0  0  0  0  0  0  0  0  0  0  0
    6.5432   -1.1622   25.0645 N   0  0  0  0  0  0  0  0  0  0  0  0
    6.1414   -1.0793   25.9870 H   0  0  0  0  0  0  0  0  0  0  0  0
    6.2803   -2.1440   24.1367 C   0  0  0  0  0  0  0  0  0  0  0  0
    5.6701   -3.4645   24.4056 C   0  0  0  0  0  0  0  0  0  0  0  0
    4.4903   -3.8059   23.7725 C   0  0  0  0  0  0  0  0  0  0  0  0
    4.0456   -3.0990   23.0846 H   0  0  0  0  0  0  0  0  0  0  0  0
    3.8345   -5.0439   24.0016 C   0  0  0  0  0  0  0  0  0  0  0  0
    2.9125   -5.2779   23.4698 H   0  0  0  0  0  0  0  0  0  0  0  0
    4.3686   -5.9362   24.9043 C   0  0  0  0  0  0  0  0  0  0  0  0
    3.9270   -6.9038   25.1177 H   0  0  0  0  0  0  0  0  0  0  0  0
    5.5807   -5.6342   25.5892 C   0  0  0  0  0  0  0  0  0  0  0  0
    6.0142   -6.5296   26.5329 N   0  0  0  0  0  0  0  0  0  0  0  0
    7.1946   -6.3193   27.0659 C   0  0  0  0  0  0  0  0  0  0  0  0
    7.5197   -7.0198   27.8332 H   0  0  0  0  0  0  0  0  0  0  0  0
    8.0706   -5.2656   26.6905 C   0  0  0  0  0  0  0  0  0  0  0  0
    9.0599   -5.2222   27.1335 H   0  0  0  0  0  0  0  0  0  0  0  0
    7.6377   -4.3367   25.7727 C   0  0  0  0  0  0  0  0  0  0  0  0
    8.3000   -3.5461   25.4215 H   0  0  0  0  0  0  0  0  0  0  0  0
    6.3035   -4.4387   25.2601 C   0  0  0  0  0  0  0  0  0  0  0  0
    6.7582   -1.6239   22.9532 C   0  0  0  0  0  0  0  0  0  0  0  0
    6.7312   -1.8654   21.4832 C   0  0  0  0  0  0  0  0  0  0  0  0
    7.1819   -2.8169   21.1861 H   0  0  0  0  0  0  0  0  0  0  0  0
    5.6950   -1.9098   21.1228 H   0  0  0  0  0  0  0  0  0  0  0  0
    5.5148    0.6857   20.0647 C   0  0  0  0  0  0  0  0  0  0  0  0
    5.1022    0.6690   21.0759 H   0  0  0  0  0  0  0  0  0  0  0  0
    4.8432    1.3354   19.0301 C   0  0  0  0  0  0  0  0  0  0  0  0
    3.9011    1.8446   19.1993 H   0  0  0  0  0  0  0  0  0  0  0  0
  1  2  1  0
  2  3  2  0
  3  4  1  0
  4  5  1  0
  4  6  2  0
  6  7  1  0
  7  8  1  6
  7  9  1  0
  9 10  1  0
  9 11  1  0
  9 12  1  0
 12 13  2  0
 13 14  1  0
 14 15  1  0
 14 16  1  0
 16 17  1  0
 17 18  2  0
 18 19  1  0
 18 20  1  0
 20 21  1  0
 20 22  2  0
 22 23  1  0
 22 24  1  0
 24 25  2  0
 25 26  1  0
 26 27  1  0
 26 28  2  0
 28 29  1  0
 28 30  1  0
 30 31  1  0
 30 32  2  0
 16 33  2  0
 33 34  1  0
 34 35  1  0
 34 36  1  0
  6 37  1  0
 37 38  1  0
 37 39  2  0
 39 40  1  0
 39  2  1  0
 34  7  1  0
 33 12  1  0
 32 17  1  0
 32 24  1  0
M  END
>  <plip>  (1) 
-0.034482758620689655

>  <filename>  (1) 
[H][c]1[n][c]([H])[c]([C@@]2([H])[C]([H])([H])[c]3[n][n]([H])[c](-[c]4[c]([H])[c]([H])[c]([H])[c]5[n][c]([H])[c]([H])[c]([H])[c]45)[c]3[C]2([H])[H])[c]([H])[c]1[H]

$$$$
