
     RDKit          3D

 49 51  0  0  0  0  0  0  0  0999 V2000
    6.6834   -2.5575   25.1164 C   0  0  0  0  0  0  0  0  0  0  0  0
    6.0505   -3.6584   24.2913 C   0  0  0  0  0  0  0  0  0  0  0  0
    5.1870   -4.5712   24.9109 C   0  0  0  0  0  0  0  0  0  0  0  0
    4.6029   -5.6204   24.1957 C   0  0  0  0  0  0  0  0  0  0  0  0
    4.8834   -5.7764   22.8384 C   0  0  0  0  0  0  0  0  0  0  0  0
    5.7445   -4.8771   22.2050 C   0  0  0  0  0  0  0  0  0  0  0  0
    6.3329   -3.8161   22.9110 C   0  0  0  0  0  0  0  0  0  0  0  0
    7.3226   -2.9224   22.1986 C   0  0  0  0  0  0  0  0  0  0  0  0
    6.6068   -1.8059   21.5403 N   0  0  0  0  0  4  0  0  0  0  0  0
    7.4029   -0.6715   20.9933 C   0  0  0  0  0  0  0  0  0  0  0  0
    7.8644    0.3135   22.0958 C   0  0  0  0  0  0  0  0  0  0  0  0
    8.8939    1.3122   21.6469 N   0  0  0  0  0  4  0  0  0  0  0  0
    9.2640    2.3137   22.7187 C   0  0  0  0  0  0  0  0  0  0  0  0
   10.7226    2.7083   22.4507 C   0  0  0  0  0  0  0  0  0  0  0  0
   11.2540    1.7678   21.3529 C   0  0  0  0  0  0  0  0  0  0  0  0
   10.1923    0.6862   21.1840 C   0  0  0  0  0  0  0  0  0  0  0  0
   10.0890    0.3458   20.1524 H   0  0  0  0  0  0  0  0  0  0  0  0
   10.4132   -0.1781   21.8239 H   0  0  0  0  0  0  0  0  0  0  0  0
   11.4152    2.3070   20.4114 H   0  0  0  0  0  0  0  0  0  0  0  0
   12.2045    1.3069   21.6443 H   0  0  0  0  0  0  0  0  0  0  0  0
   10.8097    3.7504   22.1434 H   0  0  0  0  0  0  0  0  0  0  0  0
   11.2970    2.6039   23.3763 H   0  0  0  0  0  0  0  0  0  0  0  0
    9.1928    1.8119   23.6891 H   0  0  0  0  0  0  0  0  0  0  0  0
    8.5595    3.1541   22.7173 H   0  0  0  0  0  0  0  0  0  0  0  0
    8.4797    1.8624   20.8519 H   0  0  0  0  0  0  0  0  0  0  0  0
    8.2867   -0.2796   22.9208 H   0  0  0  0  0  0  0  0  0  0  0  0
    6.9804    0.8219   22.4964 H   0  0  0  0  0  0  0  0  0  0  0  0
    6.5632   -0.0128   19.9200 C   0  0  0  0  0  0  0  0  0  0  0  0
    5.3534    0.6697   20.1394 C   0  0  0  0  0  0  0  0  0  0  0  0
    4.7618    1.3313   19.0600 C   0  0  0  0  0  0  0  0  0  0  0  0
    5.3833    1.3023   17.8087 C   0  0  0  0  0  0  0  0  0  0  0  0
    6.5238    0.6413   17.5739 N   0  0  0  0  0  0  0  0  0  0  0  0
    7.0781    0.0101   18.6131 C   0  0  0  0  0  0  0  0  0  0  0  0
    8.0108   -0.5125   18.4001 H   0  0  0  0  0  0  0  0  0  0  0  0
    4.9525    1.8475   16.9656 H   0  0  0  0  0  0  0  0  0  0  0  0
    3.8409    1.8869   19.1817 H   0  0  0  0  0  0  0  0  0  0  0  0
    4.8736    0.6921   21.1242 H   0  0  0  0  0  0  0  0  0  0  0  0
    8.3075   -1.0777   20.5281 H   0  0  0  0  0  0  0  0  0  0  0  0
    5.9170   -1.4175   22.2380 H   0  0  0  0  0  0  0  0  0  0  0  0
    6.0245   -2.1750   20.7538 H   0  0  0  0  0  0  0  0  0  0  0  0
    7.8754   -3.5152   21.4618 H   0  0  0  0  0  0  0  0  0  0  0  0
    8.0685   -2.5538   22.9123 H   0  0  0  0  0  0  0  0  0  0  0  0
    5.9782   -5.0121   21.1489 H   0  0  0  0  0  0  0  0  0  0  0  0
    4.4521   -6.6012   22.2783 H   0  0  0  0  0  0  0  0  0  0  0  0
    3.9469   -6.3234   24.7040 H   0  0  0  0  0  0  0  0  0  0  0  0
    4.9825   -4.4570   25.9753 H   0  0  0  0  0  0  0  0  0  0  0  0
    6.2446   -2.4898   26.1143 H   0  0  0  0  0  0  0  0  0  0  0  0
    7.7597   -2.7182   25.2504 H   0  0  0  0  0  0  0  0  0  0  0  0
    6.5650   -1.5725   24.6495 H   0  0  0  0  0  0  0  0  0  0  0  0
  1  2  1  0
  2  3  2  0
  3  4  1  0
  4  5  2  0
  5  6  1  0
  6  7  2  0
  7  8  1  0
  8  9  1  0
  9 10  1  0
 10 11  1  0
 11 12  1  0
 12 13  1  0
 13 14  1  0
 14 15  1  0
 15 16  1  0
 16 17  1  0
 16 18  1  0
 15 19  1  0
 15 20  1  0
 14 21  1  0
 14 22  1  0
 13 23  1  0
 13 24  1  0
 12 25  1  0
 11 26  1  0
 11 27  1  0
 10 28  1  0
 28 29  2  0
 29 30  1  0
 30 31  2  0
 31 32  1  0
 32 33  2  0
 33 34  1  0
 31 35  1  0
 30 36  1  0
 29 37  1  0
 10 38  1  0
  9 39  1  0
  9 40  1  0
  8 41  1  0
  8 42  1  0
  6 43  1  0
  5 44  1  0
  4 45  1  0
  3 46  1  0
  1 47  1  0
  1 48  1  0
  1 49  1  0
  7  2  1  0
 16 12  1  0
 33 28  1  0
M  CHG  2   9   1  12   1
M  END
>  <plip>  (1) 
-0.17857142857142858

>  <filename>  (1) 
[H][c]1[n][c]([H])[c]([C]([H])([C]([H])([H])[N+]2([H])[C]([H])([H])[C]([H])([H])[C]([H])([H])[C]2([H])[H])[N+]([H])([H])[C]([H])([H])[c]2[c]([H])[c]([H])[c]([H])[c]([H])[c]2[C]([H])([H])[H])[c]([H])[c]1[H]

$$$$
