
     RDKit          3D

 28 29  0  0  0  0  0  0  0  0999 V2000
    4.3322   -4.2370   23.6226 H   0  0  0  0  0  0  0  0  0  0  0  0
    4.9928   -3.5118   23.1428 C   0  0  0  0  0  0  0  0  0  0  0  0
    4.9243   -3.4001   21.8004 N   0  0  0  0  0  0  0  0  0  0  0  0
    5.7144   -2.4534   21.2634 C   0  0  0  0  0  0  0  0  0  0  0  0
    5.7365   -2.3938   20.1767 H   0  0  0  0  0  0  0  0  0  0  0  0
    6.5218   -1.5695   22.0265 C   0  0  0  0  0  0  0  0  0  0  0  0
    7.4173   -0.5553   21.2685 C   0  0  0  0  0  0  0  0  0  0  0  0
    6.6650    0.0270   20.0382 C   0  0  0  0  0  0  0  0  0  0  0  0
    7.1854    0.0271   18.7296 C   0  0  0  0  0  0  0  0  0  0  0  0
    8.1170   -0.4893   18.5174 H   0  0  0  0  0  0  0  0  0  0  0  0
    6.6176    0.6253   17.6700 N   0  0  0  0  0  0  0  0  0  0  0  0
    5.4578    1.2605   17.8741 C   0  0  0  0  0  0  0  0  0  0  0  0
    5.0232    1.7622   17.0085 H   0  0  0  0  0  0  0  0  0  0  0  0
    4.8122    1.2829   19.1148 C   0  0  0  0  0  0  0  0  0  0  0  0
    3.8661    1.8055   19.2078 H   0  0  0  0  0  0  0  0  0  0  0  0
    5.4177    0.6537   20.2079 C   0  0  0  0  0  0  0  0  0  0  0  0
    4.9251    0.6472   21.1840 H   0  0  0  0  0  0  0  0  0  0  0  0
    8.6598   -1.3688   20.8375 C   0  0  0  0  0  0  0  0  0  0  0  0
    8.3491   -2.2156   20.2348 H   0  0  0  0  0  0  0  0  0  0  0  0
    9.3704   -0.7657   20.2618 H   0  0  0  0  0  0  0  0  0  0  0  0
    9.1842   -1.7664   21.7135 H   0  0  0  0  0  0  0  0  0  0  0  0
    7.8924    0.6240   22.1428 C   0  0  0  0  0  0  0  0  0  0  0  0
    8.5714    1.2546   21.5592 H   0  0  0  0  0  0  0  0  0  0  0  0
    8.4343    0.2573   23.0181 H   0  0  0  0  0  0  0  0  0  0  0  0
    7.0585    1.2458   22.4860 H   0  0  0  0  0  0  0  0  0  0  0  0
    6.6353   -1.7472   23.3628 N   0  0  0  0  0  0  0  0  0  0  0  0
    5.8816   -2.7320   23.9021 C   0  0  0  0  0  0  0  0  0  0  0  0
    5.9951   -2.9228   24.9620 H   0  0  0  0  0  0  0  0  0  0  0  0
  1  2  1  0
  2  3  2  0
  3  4  1  0
  4  5  1  0
  4  6  2  0
  6  7  1  0
  7  8  1  0
  8  9  2  0
  9 10  1  0
  9 11  1  0
 11 12  2  0
 12 13  1  0
 12 14  1  0
 14 15  1  0
 14 16  2  0
 16 17  1  0
  7 18  1  0
 18 19  1  0
 18 20  1  0
 18 21  1  0
  7 22  1  0
 22 23  1  0
 22 24  1  0
 22 25  1  0
  6 26  1  0
 26 27  2  0
 27 28  1  0
 27  2  1  0
 16  8  1  0
M  END
>  <plip>  (1) 
-0.03571428571428571

>  <filename>  (1) 
[H][c]1[n][c]([H])[c]([C]([c]2[c]([H])[n][c]([H])[c]([H])[c]2[H])([C]([H])([H])[H])[C]([H])([H])[H])[n][c]1[H]

$$$$
