
     RDKit          3D

 28 30  0  0  0  0  0  0  0  0999 V2000
    6.7499    4.9084   26.6536 H   0  0  0  0  0  0  0  0  0  0  0  0
    6.3278    4.6569   25.6851 C   0  0  0  0  0  0  0  0  0  0  0  0
    6.7606    3.5130   25.1496 N   0  0  0  0  0  0  0  0  0  0  0  0
    6.2576    3.1711   23.9468 C   0  0  0  0  0  0  0  0  0  0  0  0
    6.7154    1.9352   23.3663 C   0  0  0  0  0  0  0  0  0  0  0  0
    7.0650    0.9155   22.8219 C   0  0  0  0  0  0  0  0  0  0  0  0
    7.5352   -0.2911   22.2446 C   0  0  0  0  0  0  0  0  0  0  0  0
    8.3033   -1.2970   22.7786 C   0  0  0  0  0  0  0  0  0  0  0  0
    8.6651   -1.3734   23.7915 H   0  0  0  0  0  0  0  0  0  0  0  0
    8.5727   -2.2119   21.8147 N   0  0  0  0  0  0  0  0  0  0  0  0
    8.0174   -1.8289   20.7091 N   0  0  0  0  0  0  0  0  0  0  0  0
    7.3697   -0.6677   20.9379 N   0  0  0  0  0  0  0  0  0  0  0  0
    6.6580    0.0036   19.9043 C   0  0  0  0  0  0  0  0  0  0  0  0
    7.1809    0.0494   18.5998 C   0  0  0  0  0  0  0  0  0  0  0  0
    8.1272   -0.4404   18.3800 H   0  0  0  0  0  0  0  0  0  0  0  0
    6.5722    0.6735   17.5906 N   0  0  0  0  0  0  0  0  0  0  0  0
    5.4043    1.2897   17.8441 C   0  0  0  0  0  0  0  0  0  0  0  0
    4.9204    1.7787   17.0001 H   0  0  0  0  0  0  0  0  0  0  0  0
    4.8105    1.3028   19.1098 C   0  0  0  0  0  0  0  0  0  0  0  0
    3.8790    1.8382   19.2607 H   0  0  0  0  0  0  0  0  0  0  0  0
    5.4418    0.6449   20.1692 C   0  0  0  0  0  0  0  0  0  0  0  0
    5.0100    0.6271   21.1709 H   0  0  0  0  0  0  0  0  0  0  0  0
    5.3156    3.9590   23.2614 C   0  0  0  0  0  0  0  0  0  0  0  0
    4.9501    3.6342   22.2928 H   0  0  0  0  0  0  0  0  0  0  0  0
    4.8739    5.1488   23.8351 C   0  0  0  0  0  0  0  0  0  0  0  0
    4.1477    5.7826   23.3261 H   0  0  0  0  0  0  0  0  0  0  0  0
    5.3946    5.5067   25.0810 C   0  0  0  0  0  0  0  0  0  0  0  0
    5.0910    6.4206   25.5766 H   0  0  0  0  0  0  0  0  0  0  0  0
  1  2  1  0
  2  3  2  0
  3  4  1  0
  4  5  1  0
  5  6  3  0
  6  7  1  0
  7  8  2  0
  8  9  1  0
  8 10  1  0
 10 11  2  0
 11 12  1  0
 12 13  1  0
 13 14  2  0
 14 15  1  0
 14 16  1  0
 16 17  2  0
 17 18  1  0
 17 19  1  0
 19 20  1  0
 19 21  2  0
 21 22  1  0
  4 23  2  0
 23 24  1  0
 23 25  1  0
 25 26  1  0
 25 27  2  0
 27 28  1  0
 27  2  1  0
 12  7  1  0
 21 13  1  0
M  END
>  <plip>  (1) 
-0.034482758620689655

>  <filename>  (1) 
[H][c]1[n][c]([C]#[C][c]2[c]([H])[n][n][n]2-[c]2[c]([H])[n][c]([H])[c]([H])[c]2[H])[c]([H])[c]([H])[c]1[H]

$$$$
