
     RDKit          3D

 30 32  0  0  0  0  0  0  0  0999 V2000
    4.9246    1.7872   16.9905 H   0  0  0  0  0  0  0  0  0  0  0  0
    5.4011    1.2969   17.8346 C   0  0  0  0  0  0  0  0  0  0  0  0
    6.5639    0.6808   17.5753 N   0  0  0  0  0  0  0  0  0  0  0  0
    7.1612    0.0497   18.5935 C   0  0  0  0  0  0  0  0  0  0  0  0
    8.1125   -0.4293   18.3707 H   0  0  0  0  0  0  0  0  0  0  0  0
    6.6264   -0.0208   19.8881 C   0  0  0  0  0  0  0  0  0  0  0  0
    7.3910   -0.6835   21.0061 C   0  0  1  0  0  0  0  0  0  0  0  0
    6.6889   -1.0129   21.7902 H   0  0  0  0  0  0  0  0  0  0  0  0
    8.0261   -1.8263   20.5312 F   0  0  0  0  0  0  0  0  0  0  0  0
    8.4166    0.2596   21.6155 C   0  0  0  0  0  0  0  0  0  0  0  0
    9.7166    0.3827   21.0354 C   0  0  0  0  0  0  0  0  0  0  0  0
    9.9758   -0.2590   20.1929 H   0  0  0  0  0  0  0  0  0  0  0  0
   10.6251    1.2790   21.5461 C   0  0  0  0  0  0  0  0  0  0  0  0
   11.6257    1.3629   21.1243 H   0  0  0  0  0  0  0  0  0  0  0  0
   10.2863    2.1087   22.6594 C   0  0  0  0  0  0  0  0  0  0  0  0
   11.2129    3.0383   23.2243 C   0  0  0  0  0  0  0  0  0  0  0  0
   12.2090    3.1018   22.7860 H   0  0  0  0  0  0  0  0  0  0  0  0
   10.8454    3.8317   24.2882 C   0  0  0  0  0  0  0  0  0  0  0  0
   11.5571    4.5375   24.7133 H   0  0  0  0  0  0  0  0  0  0  0  0
    9.5355    3.7302   24.8525 C   0  0  0  0  0  0  0  0  0  0  0  0
    9.2659    4.3603   25.6992 H   0  0  0  0  0  0  0  0  0  0  0  0
    8.6216    2.8417   24.3360 C   0  0  0  0  0  0  0  0  0  0  0  0
    7.6163    2.7528   24.7533 H   0  0  0  0  0  0  0  0  0  0  0  0
    8.9723    2.0088   23.2290 C   0  0  0  0  0  0  0  0  0  0  0  0
    8.0577    1.0708   22.6703 C   0  0  0  0  0  0  0  0  0  0  0  0
    7.0565    1.0223   23.1031 H   0  0  0  0  0  0  0  0  0  0  0  0
    5.4241    0.6461   20.1497 C   0  0  0  0  0  0  0  0  0  0  0  0
    4.9916    0.6429   21.1550 H   0  0  0  0  0  0  0  0  0  0  0  0
    4.7998    1.3159   19.0992 C   0  0  0  0  0  0  0  0  0  0  0  0
    3.8690    1.8493   19.2496 H   0  0  0  0  0  0  0  0  0  0  0  0
  1  2  1  0
  2  3  2  0
  3  4  1  0
  4  5  1  0
  4  6  2  0
  6  7  1  0
  7  8  1  1
  7  9  1  0
  7 10  1  0
 10 11  2  0
 11 12  1  0
 11 13  1  0
 13 14  1  0
 13 15  2  0
 15 16  1  0
 16 17  1  0
 16 18  2  0
 18 19  1  0
 18 20  1  0
 20 21  1  0
 20 22  2  0
 22 23  1  0
 22 24  1  0
 24 25  2  0
 25 26  1  0
  6 27  1  0
 27 28  1  0
 27 29  2  0
 29 30  1  0
 29  2  1  0
 25 10  1  0
 24 15  1  0
M  END
>  <plip>  (1) 
-0.10714285714285714

>  <filename>  (1) 
[H][c]1[n][c]([H])[c]([C@@]([H])([F])[c]2[c]([H])[c]([H])[c]3[c]([H])[c]([H])[c]([H])[c]([H])[c]3[c]2[H])[c]([H])[c]1[H]

$$$$
