
     RDKit          3D

 43 46  0  0  0  0  0  0  0  0999 V2000
    1.3395   -4.1478   24.1703 C   0  0  0  0  0  0  0  0  0  0  0  0
    1.7362   -4.9137   23.0703 C   0  0  0  0  0  0  0  0  0  0  0  0
    3.0909   -5.0508   22.7469 C   0  0  0  0  0  0  0  0  0  0  0  0
    4.0925   -4.4222   23.5249 C   0  0  0  0  0  0  0  0  0  0  0  0
    5.4371   -4.6265   23.2327 N   0  0  0  0  0  0  0  0  0  0  0  0
    5.9556   -4.9172   21.8746 C   0  0  0  0  0  0  0  0  0  0  0  0
    7.4294   -4.4728   21.9855 C   0  0  2  0  0  0  0  0  0  0  0  0
    7.7403   -4.8931   23.4112 C   0  0  0  0  0  0  0  0  0  0  0  0
    6.5758   -4.0894   24.0047 C   0  0  1  0  0  0  0  0  0  0  0  0
    6.9219   -2.6674   23.5049 C   0  0  0  0  0  0  0  0  0  0  0  0
    7.5301   -2.9474   22.0983 N   0  0  0  0  0  4  0  0  0  0  0  0
    6.9065   -2.1754   20.9995 C   0  0  0  0  0  0  0  0  0  0  0  0
    7.3855   -0.7298   20.9798 C   0  0  0  0  0  0  0  0  0  0  0  0
    6.6748    0.0452   19.9001 C   0  0  0  0  0  0  0  0  0  0  0  0
    5.4428    0.6645   20.1491 C   0  0  0  0  0  0  0  0  0  0  0  0
    4.7992    1.3155   19.0953 C   0  0  0  0  0  0  0  0  0  0  0  0
    5.3933    1.2979   17.8278 C   0  0  0  0  0  0  0  0  0  0  0  0
    6.5527    0.6809   17.5595 N   0  0  0  0  0  0  0  0  0  0  0  0
    7.1688    0.0810   18.5853 C   0  0  0  0  0  0  0  0  0  0  0  0
    8.1118   -0.4152   18.3598 H   0  0  0  0  0  0  0  0  0  0  0  0
    4.9128    1.7905   16.9859 H   0  0  0  0  0  0  0  0  0  0  0  0
    3.8685    1.8470   19.2498 H   0  0  0  0  0  0  0  0  0  0  0  0
    5.0102    0.6328   21.1549 H   0  0  0  0  0  0  0  0  0  0  0  0
    8.4730   -0.7340   20.8299 H   0  0  0  0  0  0  0  0  0  0  0  0
    7.1869   -0.2804   21.9633 H   0  0  0  0  0  0  0  0  0  0  0  0
    5.8174   -2.1883   21.1137 H   0  0  0  0  0  0  0  0  0  0  0  0
    7.0976   -2.6417   20.0247 H   0  0  0  0  0  0  0  0  0  0  0  0
    8.5415   -2.6899   22.1112 H   0  0  0  0  0  0  0  0  0  0  0  0
    7.6560   -2.1613   24.1387 H   0  0  0  0  0  0  0  0  0  0  0  0
    6.0266   -2.0535   23.3936 H   0  0  0  0  0  0  0  0  0  0  0  0
    6.4395   -4.1661   25.0860 H   0  0  0  0  0  0  0  0  0  0  0  0
    8.7261   -4.5607   23.7421 H   0  0  0  0  0  0  0  0  0  0  0  0
    7.6457   -5.9680   23.5734 H   0  0  0  0  0  0  0  0  0  0  0  0
    8.0753   -4.8489   21.1914 H   0  0  0  0  0  0  0  0  0  0  0  0
    5.4241   -4.3850   21.0744 H   0  0  0  0  0  0  0  0  0  0  0  0
    5.9045   -5.9925   21.6604 H   0  0  0  0  0  0  0  0  0  0  0  0
    3.6754   -3.6473   24.6319 C   0  0  0  0  0  0  0  0  0  0  0  0
    2.3168   -3.5193   24.9459 C   0  0  0  0  0  0  0  0  0  0  0  0
    2.0267   -2.9265   25.8104 H   0  0  0  0  0  0  0  0  0  0  0  0
    4.4195   -3.1554   25.2491 H   0  0  0  0  0  0  0  0  0  0  0  0
    3.3907   -5.6561   21.8981 H   0  0  0  0  0  0  0  0  0  0  0  0
    0.9870   -5.4013   22.4512 H   0  0  0  0  0  0  0  0  0  0  0  0
    0.2835   -4.0390   24.4177 H   0  0  0  0  0  0  0  0  0  0  0  0
  1  2  2  0
  2  3  1  0
  3  4  2  0
  4  5  1  0
  5  6  1  0
  6  7  1  0
  7  8  1  0
  8  9  1  0
  9 10  1  0
 10 11  1  0
 11 12  1  0
 12 13  1  0
 13 14  1  0
 14 15  2  0
 15 16  1  0
 16 17  2  0
 17 18  1  0
 18 19  2  0
 19 20  1  0
 17 21  1  0
 16 22  1  0
 15 23  1  0
 13 24  1  0
 13 25  1  0
 12 26  1  0
 12 27  1  0
 11 28  1  0
 10 29  1  0
 10 30  1  0
  9 31  1  1
  8 32  1  0
  8 33  1  0
  7 34  1  6
  6 35  1  0
  6 36  1  0
  4 37  1  0
 37 38  2  0
 38 39  1  0
 37 40  1  0
  3 41  1  0
  2 42  1  0
  1 43  1  0
 38  1  1  0
  9  5  1  0
 19 14  1  0
 11  7  1  0
M  CHG  1  11   1
M  END
>  <plip>  (1) 
-0.03333333333333333

>  <filename>  (1) 
[H][c]1[n][c]([H])[c]([C]([H])([H])[C]([H])([H])[N+]2([H])[C]([H])([H])[C@@]3([H])[N]([c]4[c]([H])[c]([H])[c]([H])[c]([H])[c]4[H])[C]([H])([H])[C@]2([H])[C]3([H])[H])[c]([H])[c]1[H]

$$$$
