
     RDKit          3D

 24 25  0  0  0  0  0  0  0  0999 V2000
    4.9655    1.8201   16.9927 H   0  0  0  0  0  0  0  0  0  0  0  0
    5.4146    1.2969   17.8353 C   0  0  0  0  0  0  0  0  0  0  0  0
    6.5686    0.6594   17.5908 N   0  0  0  0  0  0  0  0  0  0  0  0
    7.1546    0.0252   18.6091 C   0  0  0  0  0  0  0  0  0  0  0  0
    8.0965   -0.4677   18.3684 H   0  0  0  0  0  0  0  0  0  0  0  0
    6.6294   -0.0191   19.9092 C   0  0  0  0  0  0  0  0  0  0  0  0
    7.4494   -0.6907   20.9917 C   0  0  0  0  0  0  0  0  0  0  0  0
    8.0465   -1.8145   20.4815 F   0  0  0  0  0  0  0  0  0  0  0  0
    6.6269   -1.1348   21.9887 F   0  0  0  0  0  0  0  0  0  0  0  0
    8.5813    0.1566   21.6029 C   0  0  0  0  0  0  0  0  0  0  0  0
    9.1512   -0.4987   22.2730 H   0  0  0  0  0  0  0  0  0  0  0  0
    9.2395    0.4121   20.7628 H   0  0  0  0  0  0  0  0  0  0  0  0
    8.1059    1.4246   22.2710 C   0  0  0  0  0  0  0  0  0  0  0  0
    7.4867    1.6847   23.5226 C   0  0  0  0  0  0  0  0  0  0  0  0
    7.3644    1.0328   24.3740 H   0  0  0  0  0  0  0  0  0  0  0  0
    7.0102    2.9207   23.5981 N   0  0  0  0  0  0  0  0  0  0  0  0
    7.3316    3.4664   22.4191 N   0  0  0  0  0  0  0  0  0  0  0  0
    7.0644    4.4173   22.2248 H   0  0  0  0  0  0  0  0  0  0  0  0
    7.9984    2.6181   21.6038 C   0  0  0  0  0  0  0  0  0  0  0  0
    8.3854    2.8848   20.6351 H   0  0  0  0  0  0  0  0  0  0  0  0
    5.4135    0.6466   20.1504 C   0  0  0  0  0  0  0  0  0  0  0  0
    4.9635    0.6432   21.1427 H   0  0  0  0  0  0  0  0  0  0  0  0
    4.7992    1.3132   19.0893 C   0  0  0  0  0  0  0  0  0  0  0  0
    3.8672    1.8540   19.2220 H   0  0  0  0  0  0  0  0  0  0  0  0
  1  2  1  0
  2  3  2  0
  3  4  1  0
  4  5  1  0
  4  6  2  0
  6  7  1  0
  7  8  1  0
  7  9  1  0
  7 10  1  0
 10 11  1  0
 10 12  1  0
 10 13  1  0
 13 14  1  0
 14 15  1  0
 14 16  2  0
 16 17  1  0
 17 18  1  0
 17 19  1  0
 19 20  1  0
  6 21  1  0
 21 22  1  0
 21 23  2  0
 23 24  1  0
 23  2  1  0
 19 13  2  0
M  END
>  <plip>  (1) 
-0.034482758620689655

>  <filename>  (1) 
[H][c]1[n][c]([H])[c]([C]([F])([F])[C]([H])([H])[c]2[c]([H])[n][n]([H])[c]2[H])[c]([H])[c]1[H]

$$$$
