
     RDKit          3D

 36 38  0  0  0  0  0  0  0  0999 V2000
    4.9266    1.8044   16.9787 H   0  0  0  0  0  0  0  0  0  0  0  0
    5.3879    1.3041   17.8283 C   0  0  0  0  0  0  0  0  0  0  0  0
    6.5509    0.6858   17.5774 N   0  0  0  0  0  0  0  0  0  0  0  0
    7.1478    0.0620   18.6010 C   0  0  0  0  0  0  0  0  0  0  0  0
    8.1006   -0.4130   18.3668 H   0  0  0  0  0  0  0  0  0  0  0  0
    6.6212   -0.0128   19.9017 C   0  0  0  0  0  0  0  0  0  0  0  0
    7.3936   -0.7171   20.9982 C   0  0  0  0  0  0  0  0  0  0  0  0
    7.6433   -1.7456   20.7057 H   0  0  0  0  0  0  0  0  0  0  0  0
    6.7730   -0.8101   21.8977 H   0  0  0  0  0  0  0  0  0  0  0  0
    8.6699    0.0199   21.3205 C   0  0  0  0  0  0  0  0  0  0  0  0
    9.9910   -0.3284   20.9708 C   0  0  0  0  0  0  0  0  0  0  0  0
   10.3370   -1.2383   20.4887 H   0  0  0  0  0  0  0  0  0  0  0  0
   10.8671    0.6228   21.2620 N   0  0  0  0  0  0  0  0  0  0  0  0
   10.1090    1.6047   21.7838 N   0  0  0  0  0  0  0  0  0  0  0  0
   10.5387    2.4242   22.1893 H   0  0  0  0  0  0  0  0  0  0  0  0
    8.7906    1.2838   21.8817 C   0  0  0  0  0  0  0  0  0  0  0  0
    7.8691    2.1601   22.4749 N   0  0  0  0  0  0  0  0  0  0  0  0
    6.9084    1.6747   23.3867 C   0  0  0  0  0  0  0  0  0  0  0  0
    5.5909    2.1732   23.4193 C   0  0  0  0  0  0  0  0  0  0  0  0
    5.2889    2.9212   22.6944 H   0  0  0  0  0  0  0  0  0  0  0  0
    4.6821    1.7120   24.3772 C   0  0  0  0  0  0  0  0  0  0  0  0
    3.6767    2.1272   24.4102 H   0  0  0  0  0  0  0  0  0  0  0  0
    5.0728    0.7427   25.3059 C   0  0  0  0  0  0  0  0  0  0  0  0
    4.3719    0.3842   26.0545 H   0  0  0  0  0  0  0  0  0  0  0  0
    6.3752    0.2336   25.2709 C   0  0  0  0  0  0  0  0  0  0  0  0
    6.6909   -0.5225   25.9861 H   0  0  0  0  0  0  0  0  0  0  0  0
    7.2865    0.6942   24.3197 C   0  0  0  0  0  0  0  0  0  0  0  0
    8.3033    0.3173   24.2526 H   0  0  0  0  0  0  0  0  0  0  0  0
    7.6507    3.4637   21.8706 C   0  0  0  0  0  0  0  0  0  0  0  0
    8.5680    3.7720   21.3703 H   0  0  0  0  0  0  0  0  0  0  0  0
    6.8266    3.4311   21.1433 H   0  0  0  0  0  0  0  0  0  0  0  0
    7.4066    4.2109   22.6340 H   0  0  0  0  0  0  0  0  0  0  0  0
    5.4149    0.6536   20.1427 C   0  0  0  0  0  0  0  0  0  0  0  0
    5.0018    0.6610   21.1533 H   0  0  0  0  0  0  0  0  0  0  0  0
    4.7830    1.3217   19.0892 C   0  0  0  0  0  0  0  0  0  0  0  0
    3.8532    1.8623   19.2266 H   0  0  0  0  0  0  0  0  0  0  0  0
  1  2  1  0
  2  3  2  0
  3  4  1  0
  4  5  1  0
  4  6  2  0
  6  7  1  0
  7  8  1  0
  7  9  1  0
  7 10  1  0
 10 11  1  0
 11 12  1  0
 11 13  2  0
 13 14  1  0
 14 15  1  0
 14 16  1  0
 16 17  1  0
 17 18  1  0
 18 19  2  0
 19 20  1  0
 19 21  1  0
 21 22  1  0
 21 23  2  0
 23 24  1  0
 23 25  1  0
 25 26  1  0
 25 27  2  0
 27 28  1  0
 17 29  1  0
 29 30  1  0
 29 31  1  0
 29 32  1  0
  6 33  1  0
 33 34  1  0
 33 35  2  0
 35 36  1  0
 35  2  1  0
 16 10  2  0
 27 18  1  0
M  END
>  <plip>  (1) 
-0.07142857142857142

>  <filename>  (1) 
[H][c]1[n][c]([H])[c]([C]([H])([H])[c]2[c]([H])[n][n]([H])[c]2[N]([c]2[c]([H])[c]([H])[c]([H])[c]([H])[c]2[H])[C]([H])([H])[H])[c]([H])[c]1[H]

$$$$
