
     RDKit          3D

 53 55  0  0  0  0  0  0  0  0999 V2000
    6.2931   -4.5312   26.4306 C   0  0  0  0  0  0  0  0  0  0  0  0
    5.4987   -3.2421   26.6697 C   0  0  0  0  0  0  0  0  0  0  0  0
    3.9880   -3.4095   26.6151 C   0  0  0  0  0  0  0  0  0  0  0  0
    3.2408   -3.1892   27.7837 C   0  0  0  0  0  0  0  0  0  0  0  0
    1.8529   -3.3409   27.8097 C   0  0  0  0  0  0  0  0  0  0  0  0
    1.1727   -3.7373   26.6561 C   0  0  0  0  0  0  0  0  0  0  0  0
    1.8878   -3.9813   25.4807 C   0  0  0  0  0  0  0  0  0  0  0  0
    3.2814   -3.8131   25.4552 C   0  0  0  0  0  0  0  0  0  0  0  0
    3.9778   -4.0321   24.2221 N   0  0  0  0  0  0  0  0  0  0  0  0
    3.8506   -5.0801   23.3497 C   0  0  0  0  0  0  0  0  0  0  0  0
    4.6604   -4.8093   22.2760 C   0  0  0  0  0  0  0  0  0  0  0  0
    4.9025   -5.5504   21.1927 O   0  0  0  0  0  0  0  0  0  0  0  0
    5.5992   -5.0488   20.6991 H   0  0  0  0  0  0  0  0  0  0  0  0
    5.2088   -3.5401   22.5602 C   0  0  0  0  0  0  0  0  0  0  0  0
    6.0881   -2.8578   21.5889 C   0  0  0  0  0  0  0  0  0  0  0  0
    6.4739   -3.4618   20.5738 O   0  0  0  0  0  0  0  0  0  0  0  0
    6.4357   -1.5857   21.8608 N   0  0  0  0  0  0  0  0  0  0  0  0
    7.3049   -0.8087   20.9920 C   0  0  0  0  0  0  0  0  0  0  0  0
    6.5178   -0.1577   19.8569 C   0  0  0  0  0  0  0  0  0  0  0  0
    5.3388    0.5774   20.0606 C   0  0  0  0  0  0  0  0  0  0  0  0
    4.8065    1.3000   18.9903 C   0  0  0  0  0  0  0  0  0  0  0  0
    5.4457    1.2392   17.7494 C   0  0  0  0  0  0  0  0  0  0  0  0
    6.5309    0.4890   17.5151 N   0  0  0  0  0  0  0  0  0  0  0  0
    7.0300   -0.1971   18.5516 C   0  0  0  0  0  0  0  0  0  0  0  0
    7.9015   -0.8122   18.3241 H   0  0  0  0  0  0  0  0  0  0  0  0
    5.0691    1.8186   16.9079 H   0  0  0  0  0  0  0  0  0  0  0  0
    3.9216    1.9158   19.1092 H   0  0  0  0  0  0  0  0  0  0  0  0
    4.8444    0.5968   21.0328 H   0  0  0  0  0  0  0  0  0  0  0  0
    8.1940    0.1987   21.7932 C   0  0  0  0  0  0  0  0  0  0  0  0
    9.0463   -0.4815   22.6893 O   0  0  0  0  0  0  0  0  0  0  0  0
   10.3874   -0.6423   22.2898 C   0  0  0  0  0  0  0  0  0  0  0  0
   10.8926   -1.1660   23.1059 H   0  0  0  0  0  0  0  0  0  0  0  0
   10.4916   -1.2505   21.3763 H   0  0  0  0  0  0  0  0  0  0  0  0
   10.8814    0.3288   22.1312 H   0  0  0  0  0  0  0  0  0  0  0  0
    7.3882    1.0780   22.5121 O   0  0  0  0  0  0  0  0  0  0  0  0
    8.0567    2.2415   22.9612 C   0  0  0  0  0  0  0  0  0  0  0  0
    7.3096    2.8566   23.4665 H   0  0  0  0  0  0  0  0  0  0  0  0
    8.8653    2.0048   23.6645 H   0  0  0  0  0  0  0  0  0  0  0  0
    8.4732    2.8128   22.1167 H   0  0  0  0  0  0  0  0  0  0  0  0
    8.7880    0.7592   21.0453 H   0  0  0  0  0  0  0  0  0  0  0  0
    8.0217   -1.5151   20.5487 H   0  0  0  0  0  0  0  0  0  0  0  0
    6.0433   -1.1643   22.6988 H   0  0  0  0  0  0  0  0  0  0  0  0
    4.8014   -3.0923   23.7530 N   0  0  0  0  0  0  0  0  0  0  0  0
    3.2648   -5.9498   23.5727 H   0  0  0  0  0  0  0  0  0  0  0  0
    1.3650   -4.2826   24.5750 H   0  0  0  0  0  0  0  0  0  0  0  0
    0.0901   -3.8459   26.6672 H   0  0  0  0  0  0  0  0  0  0  0  0
    1.3074   -3.1403   28.7278 H   0  0  0  0  0  0  0  0  0  0  0  0
    3.7741   -2.8804   28.6836 H   0  0  0  0  0  0  0  0  0  0  0  0
    5.7685   -2.8253   27.6485 H   0  0  0  0  0  0  0  0  0  0  0  0
    5.7993   -2.4946   25.9267 H   0  0  0  0  0  0  0  0  0  0  0  0
    6.1115   -5.2676   27.2214 H   0  0  0  0  0  0  0  0  0  0  0  0
    6.0180   -4.9874   25.4746 H   0  0  0  0  0  0  0  0  0  0  0  0
    7.3687   -4.3188   26.4055 H   0  0  0  0  0  0  0  0  0  0  0  0
  1  2  1  0
  2  3  1  0
  3  4  2  0
  4  5  1  0
  5  6  2  0
  6  7  1  0
  7  8  2  0
  8  9  1  0
  9 10  1  0
 10 11  2  0
 11 12  1  0
 12 13  1  0
 11 14  1  0
 14 15  1  0
 15 16  2  0
 15 17  1  0
 17 18  1  0
 18 19  1  0
 19 20  2  0
 20 21  1  0
 21 22  2  0
 22 23  1  0
 23 24  2  0
 24 25  1  0
 22 26  1  0
 21 27  1  0
 20 28  1  0
 18 29  1  0
 29 30  1  0
 30 31  1  0
 31 32  1  0
 31 33  1  0
 31 34  1  0
 29 35  1  0
 35 36  1  0
 36 37  1  0
 36 38  1  0
 36 39  1  0
 29 40  1  0
 18 41  1  0
 17 42  1  0
 14 43  2  0
 10 44  1  0
  7 45  1  0
  6 46  1  0
  5 47  1  0
  4 48  1  0
  2 49  1  0
  2 50  1  0
  1 51  1  0
  1 52  1  0
  1 53  1  0
  8  3  1  0
 43  9  1  0
 24 19  1  0
M  END
>  <plip>  (1) 
-0.14285714285714285

>  <filename>  (1) 
[H][O][c]1[c]([C](=[O])[N]([H])[C]([H])([c]2[c]([H])[n][c]([H])[c]([H])[c]2[H])[C]([H])([O][C]([H])([H])[H])[O][C]([H])([H])[H])[n][n](-[c]2[c]([H])[c]([H])[c]([H])[c]([H])[c]2[C]([H])([H])[C]([H])([H])[H])[c]1[H]

$$$$
