
     RDKit          3D

 33 35  0  0  0  0  0  0  0  0999 V2000
    4.8150    1.3271   19.0501 C   0  0  0  0  0  0  0  0  0  0  0  0
    5.4354    1.3155   17.7966 C   0  0  0  0  0  0  0  0  0  0  0  0
    6.5984    0.6880   17.5599 N   0  0  0  0  0  0  0  0  0  0  0  0
    7.1756    0.0543   18.5897 C   0  0  0  0  0  0  0  0  0  0  0  0
    6.6380   -0.0148   19.8954 C   0  0  0  0  0  0  0  0  0  0  0  0
    7.2836   -0.7694   21.0164 C   0  0  0  0  0  0  0  0  0  0  0  0
    8.6550   -0.6924   21.2944 C   0  0  0  0  0  0  0  0  0  0  0  0
    9.1950   -1.4001   22.3847 C   0  0  0  0  0  0  0  0  0  0  0  0
   10.6496   -1.3015   22.7934 C   0  0  0  0  0  0  0  0  0  0  0  0
   11.2276    0.1208   22.9729 C   0  0  0  0  0  0  0  0  0  0  0  0
   12.2584    0.2766   21.8531 C   0  0  0  0  0  0  0  0  0  0  0  0
   12.6956   -1.1536   21.5141 C   0  0  0  0  0  0  0  0  0  0  0  0
   11.4417   -1.9002   21.6622 N   0  0  0  0  0  4  0  0  0  0  0  0
   10.8087   -1.7187   20.8300 H   0  0  0  0  0  0  0  0  0  0  0  0
   11.5553   -2.9204   21.7501 H   0  0  0  0  0  0  0  0  0  0  0  0
   13.0893   -1.2507   20.4994 H   0  0  0  0  0  0  0  0  0  0  0  0
   13.4770   -1.5148   22.1997 H   0  0  0  0  0  0  0  0  0  0  0  0
   11.7591    0.7375   20.9881 H   0  0  0  0  0  0  0  0  0  0  0  0
   13.1099    0.9257   22.0848 H   0  0  0  0  0  0  0  0  0  0  0  0
   11.6874    0.2209   23.9610 H   0  0  0  0  0  0  0  0  0  0  0  0
   10.4582    0.9046   22.9360 H   0  0  0  0  0  0  0  0  0  0  0  0
   10.8083   -1.8975   23.6912 H   0  0  0  0  0  0  0  0  0  0  0  0
    8.3305   -2.2433   23.0964 C   0  0  0  0  0  0  0  0  0  0  0  0
    7.0238   -2.3629   22.8346 N   0  0  0  0  0  0  0  0  0  0  0  0
    6.5176   -1.6242   21.8406 C   0  0  0  0  0  0  0  0  0  0  0  0
    5.4498   -1.7395   21.6500 H   0  0  0  0  0  0  0  0  0  0  0  0
    8.7025   -2.8623   23.9155 H   0  0  0  0  0  0  0  0  0  0  0  0
    9.2692   -0.0311   20.6777 H   0  0  0  0  0  0  0  0  0  0  0  0
    5.4202    0.6522   20.1110 C   0  0  0  0  0  0  0  0  0  0  0  0
    4.9789    0.6625   21.1088 H   0  0  0  0  0  0  0  0  0  0  0  0
    8.1139   -0.4458   18.3560 H   0  0  0  0  0  0  0  0  0  0  0  0
    4.9772    1.8257   16.9504 H   0  0  0  0  0  0  0  0  0  0  0  0
    3.8828    1.8602   19.1863 H   0  0  0  0  0  0  0  0  0  0  0  0
  1  2  2  0
  2  3  1  0
  3  4  2  0
  4  5  1  0
  5  6  1  0
  6  7  2  0
  7  8  1  0
  8  9  1  0
  9 10  1  0
 10 11  1  0
 11 12  1  0
 12 13  1  0
 13 14  1  0
 13 15  1  0
 12 16  1  0
 12 17  1  0
 11 18  1  0
 11 19  1  0
 10 20  1  0
 10 21  1  0
  9 22  1  0
  8 23  2  0
 23 24  1  0
 24 25  2  0
 25 26  1  0
 23 27  1  0
  7 28  1  0
  5 29  2  0
 29 30  1  0
  4 31  1  0
  2 32  1  0
  1 33  1  0
 29  1  1  0
 25  6  1  0
 13  9  1  0
M  CHG  1  13   1
M  END
>  <plip>  (1) 
-0.06896551724137931

>  <filename>  (1) 
[H][c]1[n][c]([H])[c](-[c]2[c]([H])[n][c]([H])[c]([C]3([H])[C]([H])([H])[C]([H])([H])[C]([H])([H])[N+]3([H])[H])[c]2[H])[c]([H])[c]1[H]

$$$$
