
     RDKit          3D

 37 39  0  0  0  0  0  0  0  0999 V2000
    5.0323    1.7574   17.0340 H   0  0  0  0  0  0  0  0  0  0  0  0
    5.4794    1.2349   17.8769 C   0  0  0  0  0  0  0  0  0  0  0  0
    6.6316    0.5988   17.6229 N   0  0  0  0  0  0  0  0  0  0  0  0
    7.2297   -0.0277   18.6403 C   0  0  0  0  0  0  0  0  0  0  0  0
    8.1773   -0.5154   18.4079 H   0  0  0  0  0  0  0  0  0  0  0  0
    6.6971   -0.0535   19.9353 C   0  0  0  0  0  0  0  0  0  0  0  0
    7.4117   -0.7154   21.0312 C   0  0  0  0  0  0  0  0  0  0  0  0
    6.9875   -0.8258   22.1569 O   0  0  0  0  0  0  0  0  0  0  0  0
    8.6316   -1.1561   20.6478 O   0  0  0  0  0  0  0  0  0  0  0  0
    9.3255   -1.9625   21.5534 C   0  0  0  0  0  0  0  0  0  0  0  0
    8.9795   -3.2887   21.4889 O   0  0  0  0  0  0  0  0  0  0  0  0
    7.8419   -3.7452   22.2107 C   0  0  0  0  0  0  0  0  0  0  0  0
    7.4252   -2.9434   22.8388 H   0  0  0  0  0  0  0  0  0  0  0  0
    8.2577   -4.9240   23.0991 C   0  0  0  0  0  0  0  0  0  0  0  0
    9.0306   -4.6204   23.8136 H   0  0  0  0  0  0  0  0  0  0  0  0
    8.6907   -5.7122   22.4646 H   0  0  0  0  0  0  0  0  0  0  0  0
    7.0072   -5.4656   23.7998 C   0  0  0  0  0  0  0  0  0  0  0  0
    7.2230   -6.2334   24.5429 H   0  0  0  0  0  0  0  0  0  0  0  0
    6.5288   -4.6618   24.3758 H   0  0  0  0  0  0  0  0  0  0  0  0
    6.0128   -5.9510   22.8418 N   0  0  0  0  0  0  0  0  0  0  0  0
    6.4321   -6.6997   22.2938 H   0  0  0  0  0  0  0  0  0  0  0  0
    5.6089   -4.8917   21.9178 C   0  0  0  0  0  0  0  0  0  0  0  0
    5.0712   -4.1349   22.5068 H   0  0  0  0  0  0  0  0  0  0  0  0
    4.8790   -5.3012   21.2087 H   0  0  0  0  0  0  0  0  0  0  0  0
    6.7998   -4.2365   21.2009 C   0  0  0  0  0  0  0  0  0  0  0  0
    6.4766   -3.4164   20.5540 H   0  0  0  0  0  0  0  0  0  0  0  0
    7.2888   -4.9813   20.5574 H   0  0  0  0  0  0  0  0  0  0  0  0
   10.7544   -1.6364   21.6669 C   0  0  0  0  0  0  0  0  0  0  0  0
   11.4378   -2.4680   21.7574 H   0  0  0  0  0  0  0  0  0  0  0  0
   11.1165   -0.8084   21.0724 H   0  0  0  0  0  0  0  0  0  0  0  0
    9.8088   -1.3709   22.8288 C   0  0  0  0  0  0  0  0  0  0  0  0
    9.4900   -0.3574   23.0502 H   0  0  0  0  0  0  0  0  0  0  0  0
    9.8530   -2.0583   23.6705 H   0  0  0  0  0  0  0  0  0  0  0  0
    5.4794    0.5999   20.1924 C   0  0  0  0  0  0  0  0  0  0  0  0
    5.0579    0.6038   21.1989 H   0  0  0  0  0  0  0  0  0  0  0  0
    4.8639    1.2542   19.1321 C   0  0  0  0  0  0  0  0  0  0  0  0
    3.9358    1.7942   19.2682 H   0  0  0  0  0  0  0  0  0  0  0  0
  1  2  1  0
  2  3  2  0
  3  4  1  0
  4  5  1  0
  4  6  2  0
  6  7  1  0
  7  8  2  0
  7  9  1  0
  9 10  1  0
 10 11  1  0
 11 12  1  0
 12 13  1  0
 12 14  1  0
 14 15  1  0
 14 16  1  0
 14 17  1  0
 17 18  1  0
 17 19  1  0
 17 20  1  0
 20 21  1  0
 20 22  1  0
 22 23  1  0
 22 24  1  0
 22 25  1  0
 25 26  1  0
 25 27  1  0
 10 28  1  0
 28 29  1  0
 28 30  1  0
 28 31  1  0
 31 32  1  0
 31 33  1  0
  6 34  1  0
 34 35  1  0
 34 36  2  0
 36 37  1  0
 36  2  1  0
 31 10  1  0
 25 12  1  0
M  END
>  <plip>  (1) 
-0.03333333333333333

>  <filename>  (1) 
[H][c]1[n][c]([H])[c]([C](=[O])[O][C]2([O][C]3([H])[C]([H])([H])[C]([H])([H])[N]([H])[C]([H])([H])[C]3([H])[H])[C]([H])([H])[C]2([H])[H])[c]([H])[c]1[H]

$$$$
