
     RDKit          3D

 43 45  0  0  0  0  0  0  0  0999 V2000
    5.4386   -3.6806   27.0517 C   0  0  0  0  0  0  0  0  0  0  0  0
    4.9462   -3.2426   25.8176 C   0  0  0  0  0  0  0  0  0  0  0  0
    5.8387   -2.8624   24.8125 C   0  0  0  0  0  0  0  0  0  0  0  0
    7.2259   -2.9044   25.0174 C   0  0  0  0  0  0  0  0  0  0  0  0
    8.1687   -2.4288   23.9349 C   0  0  0  0  0  0  0  0  0  0  0  0
    8.3236   -0.8933   23.9247 C   0  0  0  0  0  0  0  0  0  0  0  0
    9.0020   -0.3300   25.1920 C   0  0  0  0  0  0  0  0  0  0  0  0
    9.7147    0.9514   24.7255 C   0  0  0  0  0  0  0  0  0  0  0  0
   10.1655    0.6345   23.2815 C   0  0  0  0  0  0  0  0  0  0  0  0
    9.1503   -0.3648   22.7184 C   0  0  0  0  0  0  0  0  0  0  0  0
    8.3050    0.2397   21.6498 N   0  0  0  0  0  4  0  0  0  0  0  0
    7.4003   -0.7011   20.9817 C   0  0  0  0  0  0  0  0  0  0  0  0
    6.6654    0.0353   19.9116 C   0  0  0  0  0  0  0  0  0  0  0  0
    5.4384    0.6676   20.1557 C   0  0  0  0  0  0  0  0  0  0  0  0
    4.8020    1.3174   19.0991 C   0  0  0  0  0  0  0  0  0  0  0  0
    5.3986    1.2992   17.8367 C   0  0  0  0  0  0  0  0  0  0  0  0
    6.5660    0.6894   17.5845 N   0  0  0  0  0  0  0  0  0  0  0  0
    7.1768    0.0830   18.6082 C   0  0  0  0  0  0  0  0  0  0  0  0
    8.1158   -0.4184   18.3697 H   0  0  0  0  0  0  0  0  0  0  0  0
    4.9257    1.7884   16.9876 H   0  0  0  0  0  0  0  0  0  0  0  0
    3.8719    1.8438   19.2440 H   0  0  0  0  0  0  0  0  0  0  0  0
    5.0023    0.6427   21.1601 H   0  0  0  0  0  0  0  0  0  0  0  0
    7.9712   -1.5469   20.5649 H   0  0  0  0  0  0  0  0  0  0  0  0
    6.6870   -1.1209   21.7044 H   0  0  0  0  0  0  0  0  0  0  0  0
    7.7098    0.9851   22.0993 H   0  0  0  0  0  0  0  0  0  0  0  0
    8.8792    0.7211   20.9190 H   0  0  0  0  0  0  0  0  0  0  0  0
    9.6745   -1.2151   22.2702 H   0  0  0  0  0  0  0  0  0  0  0  0
   11.1518    0.1552   23.2912 H   0  0  0  0  0  0  0  0  0  0  0  0
   10.2565    1.5250   22.6500 H   0  0  0  0  0  0  0  0  0  0  0  0
    9.0106    1.7951   24.7170 H   0  0  0  0  0  0  0  0  0  0  0  0
   10.5499    1.2318   25.3789 H   0  0  0  0  0  0  0  0  0  0  0  0
    9.7248   -1.0616   25.5825 H   0  0  0  0  0  0  0  0  0  0  0  0
    8.2798   -0.1500   25.9981 H   0  0  0  0  0  0  0  0  0  0  0  0
    7.3165   -0.4561   23.8465 H   0  0  0  0  0  0  0  0  0  0  0  0
    7.8199   -2.7750   22.9507 H   0  0  0  0  0  0  0  0  0  0  0  0
    9.1618   -2.8780   24.0801 H   0  0  0  0  0  0  0  0  0  0  0  0
    7.7056   -3.3301   26.2652 C   0  0  0  0  0  0  0  0  0  0  0  0
    6.8202   -3.7327   27.2688 C   0  0  0  0  0  0  0  0  0  0  0  0
    7.2150   -4.1192   28.2042 H   0  0  0  0  0  0  0  0  0  0  0  0
    8.7810   -3.3465   26.4515 H   0  0  0  0  0  0  0  0  0  0  0  0
    5.4637   -2.5143   23.8517 H   0  0  0  0  0  0  0  0  0  0  0  0
    3.8753   -3.2036   25.6309 H   0  0  0  0  0  0  0  0  0  0  0  0
    4.7495   -3.9887   27.8355 H   0  0  0  0  0  0  0  0  0  0  0  0
  1  2  2  0
  2  3  1  0
  3  4  2  0
  4  5  1  0
  5  6  1  0
  6  7  1  0
  7  8  1  0
  8  9  1  0
  9 10  1  0
 10 11  1  0
 11 12  1  0
 12 13  1  0
 13 14  2  0
 14 15  1  0
 15 16  2  0
 16 17  1  0
 17 18  2  0
 18 19  1  0
 16 20  1  0
 15 21  1  0
 14 22  1  0
 12 23  1  0
 12 24  1  0
 11 25  1  0
 11 26  1  0
 10 27  1  0
  9 28  1  0
  9 29  1  0
  8 30  1  0
  8 31  1  0
  7 32  1  0
  7 33  1  0
  6 34  1  0
  5 35  1  0
  5 36  1  0
  4 37  1  0
 37 38  2  0
 38 39  1  0
 37 40  1  0
  3 41  1  0
  2 42  1  0
  1 43  1  0
 38  1  1  0
 10  6  1  0
 18 13  1  0
M  CHG  1  11   1
M  END
>  <plip>  (1) 
-0.03571428571428571

>  <filename>  (1) 
[H][c]1[n][c]([H])[c]([C]([H])([H])[N+]([H])([H])[C]2([H])[C]([H])([H])[C]([H])([H])[C]([H])([H])[C]2([H])[C]([H])([H])[c]2[c]([H])[c]([H])[c]([H])[c]([H])[c]2[H])[c]([H])[c]1[H]

$$$$
