
     RDKit          3D

 38 40  0  0  0  0  0  0  0  0999 V2000
    8.1362   -2.1674   22.8627 O   0  0  0  0  0  0  0  0  0  0  0  0
    8.7288   -1.6354   21.9381 C   0  0  0  0  0  0  0  0  0  0  0  0
    8.0706   -0.9435   20.8015 C   0  0  0  0  0  0  0  0  0  0  0  0
    6.7798   -0.5784   20.7475 C   0  0  0  0  0  0  0  0  0  0  0  0
    6.1758    0.1625   19.6158 C   0  0  0  0  0  0  0  0  0  0  0  0
    4.9522    0.8511   19.7473 C   0  0  0  0  0  0  0  0  0  0  0  0
    4.4629    1.5843   18.6627 C   0  0  0  0  0  0  0  0  0  0  0  0
    5.1934    1.6002   17.4703 C   0  0  0  0  0  0  0  0  0  0  0  0
    6.3332    0.9146   17.3027 N   0  0  0  0  0  0  0  0  0  0  0  0
    6.7965    0.2280   18.3501 C   0  0  0  0  0  0  0  0  0  0  0  0
    7.7163   -0.3210   18.1647 H   0  0  0  0  0  0  0  0  0  0  0  0
    4.8592    2.1759   16.6092 H   0  0  0  0  0  0  0  0  0  0  0  0
    3.5452    2.1582   18.7206 H   0  0  0  0  0  0  0  0  0  0  0  0
    4.3922    0.8303   20.6835 H   0  0  0  0  0  0  0  0  0  0  0  0
    6.1159   -0.8082   21.5861 H   0  0  0  0  0  0  0  0  0  0  0  0
    8.7451   -0.6899   19.9916 H   0  0  0  0  0  0  0  0  0  0  0  0
   10.1065   -1.6302   21.8459 N   0  0  0  0  0  0  0  0  0  0  0  0
   10.9241   -1.9018   23.0261 C   0  0  0  0  0  0  0  0  0  0  0  0
   10.8206   -0.7929   24.1048 C   0  0  0  0  0  0  0  0  0  0  0  0
   11.4648    0.5271   23.7659 C   0  0  0  0  0  0  0  0  0  0  0  0
   12.7825    0.9003   23.8407 C   0  0  0  0  0  0  0  0  0  0  0  0
   12.9054    2.2528   23.5568 N   0  0  0  0  0  0  0  0  0  0  0  0
   11.6726    2.7665   23.2807 C   0  0  0  0  0  0  0  0  0  0  0  0
   11.4211    4.0520   23.0126 N   0  0  0  0  0  0  0  0  0  0  0  0
   10.1253    4.3136   22.8074 C   0  0  0  0  0  0  0  0  0  0  0  0
    9.0890    3.3466   22.8402 C   0  0  0  0  0  0  0  0  0  0  0  0
    9.3918    2.0135   23.1105 C   0  0  0  0  0  0  0  0  0  0  0  0
   10.7361    1.7062   23.3736 C   0  0  0  0  0  0  0  0  0  0  0  0
    8.6214    1.2370   23.1216 H   0  0  0  0  0  0  0  0  0  0  0  0
    8.0707    3.6739   22.6585 H   0  0  0  0  0  0  0  0  0  0  0  0
    9.8879    5.3598   22.6114 H   0  0  0  0  0  0  0  0  0  0  0  0
   13.7276    2.8179   23.4530 H   0  0  0  0  0  0  0  0  0  0  0  0
   13.6524    0.2968   24.0819 H   0  0  0  0  0  0  0  0  0  0  0  0
   11.2296   -1.1484   25.0579 H   0  0  0  0  0  0  0  0  0  0  0  0
    9.7453   -0.6480   24.2926 H   0  0  0  0  0  0  0  0  0  0  0  0
   10.5773   -2.8427   23.4660 H   0  0  0  0  0  0  0  0  0  0  0  0
   11.9647   -2.0645   22.7046 H   0  0  0  0  0  0  0  0  0  0  0  0
   10.4603   -0.9603   21.1847 H   0  0  0  0  0  0  0  0  0  0  0  0
  1  2  2  0
  2  3  1  0
  3  4  2  3
  4  5  1  0
  5  6  2  0
  6  7  1  0
  7  8  2  0
  8  9  1  0
  9 10  2  0
 10 11  1  0
  8 12  1  0
  7 13  1  0
  6 14  1  0
  4 15  1  0
  3 16  1  0
  2 17  1  0
 17 18  1  0
 18 19  1  0
 19 20  1  0
 20 21  2  0
 21 22  1  0
 22 23  1  0
 23 24  2  0
 24 25  1  0
 25 26  2  0
 26 27  1  0
 27 28  2  0
 27 29  1  0
 26 30  1  0
 25 31  1  0
 22 32  1  0
 21 33  1  0
 19 34  1  0
 19 35  1  0
 18 36  1  0
 18 37  1  0
 17 38  1  0
 10  5  1  0
 28 20  1  0
 28 23  1  0
M  END
>  <plip>  (1) 
-0.0

>  <filename>  (1) 
[H][C]([C](=[O])[N]([H])[C]([H])([H])[C]([H])([H])[c]1[c]([H])[n]([H])[c]2[n][c]([H])[c]([H])[c]([H])[c]12)=[C]([H])[c]1[c]([H])[n][c]([H])[c]([H])[c]1[H]

$$$$
