
     RDKit          3D

 34 35  0  0  0  0  0  0  0  0999 V2000
    9.1989    7.4574   23.1188 H   0  0  0  0  0  0  0  0  0  0  0  0
    8.4809    6.7913   22.6447 C   0  0  0  0  0  0  0  0  0  0  0  0
    8.7999    5.4945   22.6844 N   0  0  0  0  0  0  0  0  0  0  0  0
    7.9352    4.6345   22.1124 C   0  0  0  0  0  0  0  0  0  0  0  0
    8.2759    3.2211   22.0764 C   0  0  0  0  0  0  0  0  0  0  0  0
    8.4137    2.0241   21.9501 C   0  0  0  0  0  0  0  0  0  0  0  0
    8.9672    0.3863   21.7910 S   0  0  0  0  0  0  0  0  0  0  0  0
    9.3541   -0.1093   23.1150 O   0  0  0  0  0  0  0  0  0  0  0  0
    9.9121    0.3506   20.6802 O   0  0  0  0  0  0  0  0  0  0  0  0
    7.4168   -0.5908   21.2287 C   0  0  0  0  0  0  0  0  0  0  0  0
    6.6528    0.0782   20.0471 C   0  0  0  0  0  0  0  0  0  0  0  0
    7.1032   -0.0311   18.7084 C   0  0  0  0  0  0  0  0  0  0  0  0
    8.0132   -0.5892   18.4921 H   0  0  0  0  0  0  0  0  0  0  0  0
    6.5086    0.5143   17.6369 N   0  0  0  0  0  0  0  0  0  0  0  0
    5.3970    1.2284   17.8531 C   0  0  0  0  0  0  0  0  0  0  0  0
    4.9347    1.6754   16.9743 H   0  0  0  0  0  0  0  0  0  0  0  0
    4.8412    1.4088   19.1218 C   0  0  0  0  0  0  0  0  0  0  0  0
    3.9259    1.9814   19.2402 H   0  0  0  0  0  0  0  0  0  0  0  0
    5.4842    0.8415   20.2275 C   0  0  0  0  0  0  0  0  0  0  0  0
    5.0470    0.9747   21.2160 H   0  0  0  0  0  0  0  0  0  0  0  0
    7.9348   -1.9936   20.8231 C   0  0  0  0  0  0  0  0  0  0  0  0
    8.2127   -2.5777   21.7067 H   0  0  0  0  0  0  0  0  0  0  0  0
    8.8242   -1.9473   20.1884 H   0  0  0  0  0  0  0  0  0  0  0  0
    7.1335   -2.5459   20.3135 H   0  0  0  0  0  0  0  0  0  0  0  0
    6.5315   -0.7726   22.4725 C   0  0  0  0  0  0  0  0  0  0  0  0
    5.9628    0.1248   22.7386 H   0  0  0  0  0  0  0  0  0  0  0  0
    5.8431   -1.5989   22.2622 H   0  0  0  0  0  0  0  0  0  0  0  0
    7.1479   -1.0432   23.3354 H   0  0  0  0  0  0  0  0  0  0  0  0
    6.7157    5.0387   21.5408 C   0  0  0  0  0  0  0  0  0  0  0  0
    6.0548    4.2822   21.1332 H   0  0  0  0  0  0  0  0  0  0  0  0
    6.4017    6.3960   21.4966 C   0  0  0  0  0  0  0  0  0  0  0  0
    5.4706    6.7309   21.0362 H   0  0  0  0  0  0  0  0  0  0  0  0
    7.3138    7.2964   22.0557 C   0  0  0  0  0  0  0  0  0  0  0  0
    7.1435    8.3672   22.0269 H   0  0  0  0  0  0  0  0  0  0  0  0
  1  2  1  0
  2  3  2  0
  3  4  1  0
  4  5  1  0
  5  6  3  0
  6  7  1  0
  7  8  2  0
  7  9  2  0
  7 10  1  0
 10 11  1  0
 11 12  2  0
 12 13  1  0
 12 14  1  0
 14 15  2  0
 15 16  1  0
 15 17  1  0
 17 18  1  0
 17 19  2  0
 19 20  1  0
 10 21  1  0
 21 22  1  0
 21 23  1  0
 21 24  1  0
 10 25  1  0
 25 26  1  0
 25 27  1  0
 25 28  1  0
  4 29  2  0
 29 30  1  0
 29 31  1  0
 31 32  1  0
 31 33  2  0
 33 34  1  0
 33  2  1  0
 19 11  1  0
M  END
>  <plip>  (1) 
-0.07142857142857142

>  <filename>  (1) 
[H][c]1[n][c]([C]#[C][S](=[O])(=[O])[C]([c]2[c]([H])[n][c]([H])[c]([H])[c]2[H])([C]([H])([H])[H])[C]([H])([H])[H])[c]([H])[c]([H])[c]1[H]

$$$$
