
     RDKit          3D

 28 30  0  0  0  0  0  0  0  0999 V2000
    5.5785   -1.5725   21.7046 H   0  0  0  0  0  0  0  0  0  0  0  0
    6.6411   -1.4153   21.8197 C   0  0  0  0  0  0  0  0  0  0  0  0
    7.2683   -0.6801   20.8995 C   0  0  0  0  0  0  0  0  0  0  0  0
    8.6233   -0.6281   20.8802 F   0  0  0  0  0  0  0  0  0  0  0  0
    6.6314    0.0799   19.8172 C   0  0  0  0  0  0  0  0  0  0  0  0
    7.1912    0.1360   18.5260 C   0  0  0  0  0  0  0  0  0  0  0  0
    8.1484   -0.3444   18.3185 H   0  0  0  0  0  0  0  0  0  0  0  0
    6.6054    0.7500   17.4930 N   0  0  0  0  0  0  0  0  0  0  0  0
    5.4245    1.3538   17.7160 C   0  0  0  0  0  0  0  0  0  0  0  0
    4.9577    1.8290   16.8561 H   0  0  0  0  0  0  0  0  0  0  0  0
    4.7919    1.3797   18.9634 C   0  0  0  0  0  0  0  0  0  0  0  0
    3.8468    1.9014   19.0819 H   0  0  0  0  0  0  0  0  0  0  0  0
    5.4082    0.7390   20.0336 C   0  0  0  0  0  0  0  0  0  0  0  0
    4.9681    0.7640   21.0319 H   0  0  0  0  0  0  0  0  0  0  0  0
    7.2499   -2.1090   22.9312 C   0  0  0  0  0  0  0  0  0  0  0  0
    6.6114   -2.9341   23.7184 N   0  0  0  0  0  0  0  0  0  0  0  0
    7.5825   -3.4251   24.5683 C   0  0  0  0  0  0  0  0  0  0  0  0
    7.4807   -4.3738   25.5998 C   0  0  0  0  0  0  0  0  0  0  0  0
    6.5060   -4.7751   25.8569 H   0  0  0  0  0  0  0  0  0  0  0  0
    8.6439   -4.7909   26.2452 C   0  0  0  0  0  0  0  0  0  0  0  0
    8.6040   -5.5632   27.0070 H   0  0  0  0  0  0  0  0  0  0  0  0
    9.9007   -4.2351   25.9089 C   0  0  0  0  0  0  0  0  0  0  0  0
   10.7949   -4.5680   26.4368 H   0  0  0  0  0  0  0  0  0  0  0  0
   10.0181   -3.2771   24.9046 C   0  0  0  0  0  0  0  0  0  0  0  0
   10.9859   -2.8855   24.6180 H   0  0  0  0  0  0  0  0  0  0  0  0
    8.8453   -2.8727   24.2541 C   0  0  0  0  0  0  0  0  0  0  0  0
    8.5863   -2.0031   23.2249 N   0  0  0  0  0  0  0  0  0  0  0  0
    9.2180   -1.3586   22.7865 H   0  0  0  0  0  0  0  0  0  0  0  0
  1  2  1  0
  2  3  2  3
  3  4  1  0
  3  5  1  0
  5  6  2  0
  6  7  1  0
  6  8  1  0
  8  9  2  0
  9 10  1  0
  9 11  1  0
 11 12  1  0
 11 13  2  0
 13 14  1  0
  2 15  1  0
 15 16  2  0
 16 17  1  0
 17 18  2  0
 18 19  1  0
 18 20  1  0
 20 21  1  0
 20 22  2  0
 22 23  1  0
 22 24  1  0
 24 25  1  0
 24 26  2  0
 26 27  1  0
 27 28  1  0
 13  5  1  0
 27 15  1  0
 26 17  1  0
M  END
>  <plip>  (1) 
-0.034482758620689655

>  <filename>  (1) 
[H][C](=[C]([F])[c]1[c]([H])[n][c]([H])[c]([H])[c]1[H])[c]1[n][c]2[c]([H])[c]([H])[c]([H])[c]([H])[c]2[n]1[H]

$$$$
