
     RDKit          3D

 43 45  0  0  0  0  0  0  0  0999 V2000
    9.3148    0.6737   21.2331 C   0  0  0  0  0  0  0  0  0  0  0  0
    8.1126   -0.0126   21.8766 C   0  0  0  0  0  0  0  0  0  0  0  0
    7.3223   -0.7189   20.8870 O   0  0  0  0  0  0  0  0  0  0  0  0
    6.6751    0.0061   19.9139 C   0  0  0  0  0  0  0  0  0  0  0  0
    5.4527    0.6385   20.1638 C   0  0  0  0  0  0  0  0  0  0  0  0
    4.8177    1.2988   19.1052 C   0  0  0  0  0  0  0  0  0  0  0  0
    5.4212    1.2903   17.8415 C   0  0  0  0  0  0  0  0  0  0  0  0
    6.5840    0.6740   17.5833 N   0  0  0  0  0  0  0  0  0  0  0  0
    7.1913    0.0505   18.6033 C   0  0  0  0  0  0  0  0  0  0  0  0
    8.1386   -0.4435   18.3950 H   0  0  0  0  0  0  0  0  0  0  0  0
    4.9453    1.7891   17.0010 H   0  0  0  0  0  0  0  0  0  0  0  0
    3.8800    1.8269   19.2506 H   0  0  0  0  0  0  0  0  0  0  0  0
    5.0253    0.5990   21.1670 H   0  0  0  0  0  0  0  0  0  0  0  0
    7.2591    0.9562   22.7622 C   0  0  0  0  0  0  0  0  0  0  0  0
    7.2655    2.1670   22.5998 O   0  0  0  0  0  0  0  0  0  0  0  0
    6.4717    0.3823   23.7263 N   0  0  0  0  0  0  0  0  0  0  0  0
    5.6158    1.1845   24.6143 C   0  0  0  0  0  0  0  0  0  0  0  0
    6.4117    2.0743   25.5902 C   0  0  0  0  0  0  0  0  0  0  0  0
    5.5188    2.2617   26.8209 C   0  0  0  0  0  0  0  0  0  0  0  0
    4.5625    1.1524   26.7473 N   0  0  0  0  0  0  0  0  0  0  0  0
    3.6909    0.8644   27.7650 C   0  0  0  0  0  0  0  0  0  0  0  0
    3.6223    1.7835   28.7469 N   0  0  0  0  0  0  0  0  0  0  0  0
    2.7724    1.5951   29.7588 C   0  0  0  0  0  0  0  0  0  0  0  0
    1.9440    0.4832   29.8740 C   0  0  0  0  0  0  0  0  0  0  0  0
    2.0030   -0.5016   28.8776 C   0  0  0  0  0  0  0  0  0  0  0  0
    2.8771   -0.3180   27.8210 C   0  0  0  0  0  0  0  0  0  0  0  0
    2.9387   -1.2789   26.8643 F   0  0  0  0  0  0  0  0  0  0  0  0
    1.3921   -1.4045   28.8956 H   0  0  0  0  0  0  0  0  0  0  0  0
    1.2784    0.3973   30.7251 H   0  0  0  0  0  0  0  0  0  0  0  0
    2.7565    2.3785   30.5152 H   0  0  0  0  0  0  0  0  0  0  0  0
    4.6807    0.3619   25.5206 C   0  0  0  0  0  0  0  0  0  0  0  0
    5.0909   -0.6370   25.7243 H   0  0  0  0  0  0  0  0  0  0  0  0
    3.6991    0.2222   25.0526 H   0  0  0  0  0  0  0  0  0  0  0  0
    6.0883    2.2253   27.7609 H   0  0  0  0  0  0  0  0  0  0  0  0
    4.9880    3.2258   26.8341 H   0  0  0  0  0  0  0  0  0  0  0  0
    7.3381    1.5633   25.8744 H   0  0  0  0  0  0  0  0  0  0  0  0
    6.6805    3.0176   25.1085 H   0  0  0  0  0  0  0  0  0  0  0  0
    4.9893    1.8512   24.0072 H   0  0  0  0  0  0  0  0  0  0  0  0
    6.4879   -0.6221   23.8144 H   0  0  0  0  0  0  0  0  0  0  0  0
    8.4452   -0.8405   22.5086 H   0  0  0  0  0  0  0  0  0  0  0  0
    9.9764    1.0979   21.9949 H   0  0  0  0  0  0  0  0  0  0  0  0
    8.9835    1.4843   20.5764 H   0  0  0  0  0  0  0  0  0  0  0  0
    9.8839   -0.0513   20.6419 H   0  0  0  0  0  0  0  0  0  0  0  0
  1  2  1  0
  2  3  1  0
  3  4  1  0
  4  5  2  0
  5  6  1  0
  6  7  2  0
  7  8  1  0
  8  9  2  0
  9 10  1  0
  7 11  1  0
  6 12  1  0
  5 13  1  0
  2 14  1  0
 14 15  2  0
 14 16  1  0
 16 17  1  0
 17 18  1  0
 18 19  1  0
 19 20  1  0
 20 21  1  0
 21 22  2  0
 22 23  1  0
 23 24  2  0
 24 25  1  0
 25 26  2  0
 26 27  1  0
 25 28  1  0
 24 29  1  0
 23 30  1  0
 20 31  1  0
 31 32  1  0
 31 33  1  0
 19 34  1  0
 19 35  1  0
 18 36  1  0
 18 37  1  0
 17 38  1  0
 16 39  1  0
  2 40  1  0
  1 41  1  0
  1 42  1  0
  1 43  1  0
  9  4  1  0
 31 17  1  0
 26 21  1  0
M  END
>  <plip>  (1) 
-0.07142857142857142

>  <filename>  (1) 
[H][c]1[n][c]([N]2[C]([H])([H])[C]([H])([H])[C]([H])([N]([H])[C](=[O])[C]([H])([O][c]3[c]([H])[n][c]([H])[c]([H])[c]3[H])[C]([H])([H])[H])[C]2([H])[H])[c]([F])[c]([H])[c]1[H]

$$$$
