
     RDKit          3D

 59 62  0  0  0  0  0  0  0  0999 V2000
    4.7729    1.3482   19.0618 C   0  0  0  0  0  0  0  0  0  0  0  0
    5.4134    1.3255   17.8200 C   0  0  0  0  0  0  0  0  0  0  0  0
    6.5866    0.7125   17.6070 N   0  0  0  0  0  0  0  0  0  0  0  0
    7.1671    0.0998   18.6480 C   0  0  0  0  0  0  0  0  0  0  0  0
    6.6145    0.0594   19.9354 C   0  0  0  0  0  0  0  0  0  0  0  0
    7.3366   -0.6435   21.0640 C   0  0  0  0  0  0  0  0  0  0  0  0
    7.6485   -2.1065   20.7459 C   0  0  0  0  0  0  0  0  0  0  0  0
    7.6700   -3.1103   21.9082 C   0  0  0  0  0  0  0  0  0  0  0  0
    7.6292   -4.5898   21.4866 C   0  0  0  0  0  0  0  0  0  0  0  0
    8.2905   -5.3161   22.6636 C   0  0  0  0  0  0  0  0  0  0  0  0
    9.1160   -4.3614   23.3149 O   0  0  0  0  0  0  0  0  0  0  0  0
    8.9537   -3.0745   22.7468 C   0  0  0  0  0  0  0  0  0  0  0  0
    8.9281   -2.3391   23.5619 H   0  0  0  0  0  0  0  0  0  0  0  0
    9.8180   -2.8496   22.0984 H   0  0  0  0  0  0  0  0  0  0  0  0
    8.9111   -6.1620   22.3402 H   0  0  0  0  0  0  0  0  0  0  0  0
    7.5505   -5.6921   23.3830 H   0  0  0  0  0  0  0  0  0  0  0  0
    6.6143   -4.9501   21.2932 H   0  0  0  0  0  0  0  0  0  0  0  0
    8.2137   -4.7512   20.5757 H   0  0  0  0  0  0  0  0  0  0  0  0
    6.8192   -2.9236   22.5741 H   0  0  0  0  0  0  0  0  0  0  0  0
    6.9336   -2.4415   19.9872 H   0  0  0  0  0  0  0  0  0  0  0  0
    8.6285   -2.1242   20.2560 H   0  0  0  0  0  0  0  0  0  0  0  0
    8.6108    0.0741   21.3279 N   0  0  0  0  0  4  0  0  0  0  0  0
    8.5374    1.4844   21.7457 C   0  0  0  0  0  0  0  0  0  0  0  0
    7.9122    1.5880   23.1333 C   0  0  0  0  0  0  0  0  0  0  0  0
    7.7073    3.0416   23.5333 C   0  0  0  0  0  0  0  0  0  0  0  0
    8.8942    3.9357   23.1214 N   0  0  0  0  0  4  0  0  0  0  0  0
    8.5103    4.9086   21.9870 C   0  0  0  0  0  0  0  0  0  0  0  0
    7.4730    5.9447   22.3511 C   0  0  0  0  0  0  0  0  0  0  0  0
    7.8464    7.0474   23.1317 C   0  0  0  0  0  0  0  0  0  0  0  0
    6.9017    8.0304   23.4377 C   0  0  0  0  0  0  0  0  0  0  0  0
    5.6288    7.9984   23.0246 N   0  0  0  0  0  0  0  0  0  0  0  0
    5.2706    6.9532   22.2649 C   0  0  0  0  0  0  0  0  0  0  0  0
    6.1424    5.9207   21.8977 C   0  0  0  0  0  0  0  0  0  0  0  0
    5.7745    5.1344   21.2458 H   0  0  0  0  0  0  0  0  0  0  0  0
    4.2380    6.9425   21.9225 H   0  0  0  0  0  0  0  0  0  0  0  0
    7.1935    8.8931   24.0313 H   0  0  0  0  0  0  0  0  0  0  0  0
    8.8700    7.1543   23.4705 H   0  0  0  0  0  0  0  0  0  0  0  0
    9.4171    5.4414   21.6977 H   0  0  0  0  0  0  0  0  0  0  0  0
    8.1934    4.3376   21.1175 H   0  0  0  0  0  0  0  0  0  0  0  0
   10.1732    3.1575   22.8132 C   0  0  0  0  0  0  0  0  0  0  0  0
    9.9440    2.0996   21.7153 C   0  0  0  0  0  0  0  0  0  0  0  0
   10.1104    2.5593   20.7393 H   0  0  0  0  0  0  0  0  0  0  0  0
   10.6984    1.3144   21.8248 H   0  0  0  0  0  0  0  0  0  0  0  0
   10.5199    2.6748   23.7332 H   0  0  0  0  0  0  0  0  0  0  0  0
   10.9638    3.8521   22.5019 H   0  0  0  0  0  0  0  0  0  0  0  0
    9.0731    4.5755   23.9212 H   0  0  0  0  0  0  0  0  0  0  0  0
    6.8157    3.4416   23.0445 H   0  0  0  0  0  0  0  0  0  0  0  0
    7.5587    3.1264   24.6140 H   0  0  0  0  0  0  0  0  0  0  0  0
    6.9556    1.0654   23.1349 H   0  0  0  0  0  0  0  0  0  0  0  0
    8.5634    1.0762   23.8516 H   0  0  0  0  0  0  0  0  0  0  0  0
    7.9018    2.0343   21.0354 H   0  0  0  0  0  0  0  0  0  0  0  0
    9.1441   -0.4457   22.0624 H   0  0  0  0  0  0  0  0  0  0  0  0
    9.1310    0.0116   20.4306 H   0  0  0  0  0  0  0  0  0  0  0  0
    6.6930   -0.5910   21.9468 H   0  0  0  0  0  0  0  0  0  0  0  0
    5.3900    0.7091   20.1386 C   0  0  0  0  0  0  0  0  0  0  0  0
    4.9394    0.7193   21.1332 H   0  0  0  0  0  0  0  0  0  0  0  0
    8.1050   -0.4110   18.4128 H   0  0  0  0  0  0  0  0  0  0  0  0
    4.9653    1.8182   16.9585 H   0  0  0  0  0  0  0  0  0  0  0  0
    3.8226    1.8566   19.1694 H   0  0  0  0  0  0  0  0  0  0  0  0
  1  2  2  0
  2  3  1  0
  3  4  2  0
  4  5  1  0
  5  6  1  0
  6  7  1  0
  7  8  1  0
  8  9  1  0
  9 10  1  0
 10 11  1  0
 11 12  1  0
 12 13  1  0
 12 14  1  0
 10 15  1  0
 10 16  1  0
  9 17  1  0
  9 18  1  0
  8 19  1  0
  7 20  1  0
  7 21  1  0
  6 22  1  0
 22 23  1  0
 23 24  1  0
 24 25  1  0
 25 26  1  0
 26 27  1  0
 27 28  1  0
 28 29  2  0
 29 30  1  0
 30 31  2  0
 31 32  1  0
 32 33  2  0
 33 34  1  0
 32 35  1  0
 30 36  1  0
 29 37  1  0
 27 38  1  0
 27 39  1  0
 26 40  1  0
 40 41  1  0
 41 42  1  0
 41 43  1  0
 40 44  1  0
 40 45  1  0
 26 46  1  0
 25 47  1  0
 25 48  1  0
 24 49  1  0
 24 50  1  0
 23 51  1  0
 22 52  1  0
 22 53  1  0
  6 54  1  0
  5 55  2  0
 55 56  1  0
  4 57  1  0
  2 58  1  0
  1 59  1  0
 55  1  1  0
 12  8  1  0
 41 23  1  0
 33 28  1  0
M  CHG  2  22   1  26   1
M  END
>  <plip>  (1) 
-0.06666666666666667

>  <filename>  (1) 
[H][c]1[n][c]([H])[c]([C]([H])([C]([H])([H])[C]2([H])[C]([H])([H])[O][C]([H])([H])[C]2([H])[H])[N+]([H])([H])[C]2([H])[C]([H])([H])[C]([H])([H])[N+]([H])([C]([H])([H])[c]3[c]([H])[c]([H])[n][c]([H])[c]3[H])[C]([H])([H])[C]2([H])[H])[c]([H])[c]1[H]

$$$$
