
     RDKit          3D

 35 37  0  0  0  0  0  0  0  0999 V2000
    4.9485    1.7999   16.9837 H   0  0  0  0  0  0  0  0  0  0  0  0
    5.4163    1.2977   17.8272 C   0  0  0  0  0  0  0  0  0  0  0  0
    6.5721    0.6671   17.5812 N   0  0  0  0  0  0  0  0  0  0  0  0
    7.1672    0.0560   18.6148 C   0  0  0  0  0  0  0  0  0  0  0  0
    8.1066   -0.4388   18.3651 H   0  0  0  0  0  0  0  0  0  0  0  0
    6.6622    0.0252   19.9208 C   0  0  0  0  0  0  0  0  0  0  0  0
    7.4363   -0.7582   20.9653 C   0  0  2  0  0  0  0  0  0  0  0  0
    8.1513   -1.3938   20.4223 H   0  0  0  0  0  0  0  0  0  0  0  0
    6.5638   -1.5608   21.7225 O   0  0  0  0  0  0  0  0  0  0  0  0
    6.8388   -1.4750   23.1151 C   0  0  0  0  0  0  0  0  0  0  0  0
    7.0552   -2.4796   23.4950 H   0  0  0  0  0  0  0  0  0  0  0  0
    5.9638   -1.1104   23.6506 H   0  0  0  0  0  0  0  0  0  0  0  0
    7.9775   -0.4687   23.2944 C   0  0  0  0  0  0  0  0  0  0  0  0
    7.7218    0.3529   23.9791 H   0  0  0  0  0  0  0  0  0  0  0  0
    8.8975   -0.9324   23.6741 H   0  0  0  0  0  0  0  0  0  0  0  0
    8.1633    0.0259   21.9414 N   0  0  0  0  0  0  0  0  0  0  0  0
    9.6004    0.8002   21.5644 S   0  0  0  0  0  0  0  0  0  0  0  0
    9.0217    2.4677   21.1667 C   0  0  0  0  0  0  0  0  0  0  0  0
    9.9582    2.8874   20.7939 H   0  0  0  0  0  0  0  0  0  0  0  0
    8.3334    2.3788   20.3262 H   0  0  0  0  0  0  0  0  0  0  0  0
    8.4331    3.2628   22.3065 C   0  0  0  0  0  0  0  0  0  0  0  0
    7.0450    3.4530   22.4261 C   0  0  0  0  0  0  0  0  0  0  0  0
    6.3835    3.0724   21.6479 H   0  0  0  0  0  0  0  0  0  0  0  0
    6.5084    4.1038   23.5431 C   0  0  0  0  0  0  0  0  0  0  0  0
    5.4330    4.2193   23.6410 H   0  0  0  0  0  0  0  0  0  0  0  0
    7.3520    4.5857   24.5485 C   0  0  0  0  0  0  0  0  0  0  0  0
    6.9342    5.0678   25.4292 H   0  0  0  0  0  0  0  0  0  0  0  0
    8.7355    4.4219   24.4248 C   0  0  0  0  0  0  0  0  0  0  0  0
    9.3938    4.7781   25.2103 H   0  0  0  0  0  0  0  0  0  0  0  0
    9.2719    3.7729   23.3099 C   0  0  0  0  0  0  0  0  0  0  0  0
   10.3468    3.6366   23.2143 H   0  0  0  0  0  0  0  0  0  0  0  0
    5.4465    0.6829   20.1571 C   0  0  0  0  0  0  0  0  0  0  0  0
    4.9967    0.6717   21.1530 H   0  0  0  0  0  0  0  0  0  0  0  0
    4.8123    1.3245   19.0929 C   0  0  0  0  0  0  0  0  0  0  0  0
    3.8709    1.8507   19.2258 H   0  0  0  0  0  0  0  0  0  0  0  0
  1  2  1  0
  2  3  2  0
  3  4  1  0
  4  5  1  0
  4  6  2  0
  6  7  1  0
  7  8  1  6
  7  9  1  0
  9 10  1  0
 10 11  1  0
 10 12  1  0
 10 13  1  0
 13 14  1  0
 13 15  1  0
 13 16  1  0
 16 17  1  0
 17 18  1  0
 18 19  1  0
 18 20  1  0
 18 21  1  0
 21 22  2  0
 22 23  1  0
 22 24  1  0
 24 25  1  0
 24 26  2  0
 26 27  1  0
 26 28  1  0
 28 29  1  0
 28 30  2  0
 30 31  1  0
  6 32  1  0
 32 33  1  0
 32 34  2  0
 34 35  1  0
 34  2  1  0
 16  7  1  0
 30 21  1  0
M  END
>  <plip>  (1) 
-0.03571428571428571

>  <filename>  (1) 
[H][c]1[n][c]([H])[c]([C@]2([H])[O][C]([H])([H])[C]([H])([H])[N]2[S][C]([H])([H])[c]2[c]([H])[c]([H])[c]([H])[c]([H])[c]2[H])[c]([H])[c]1[H]

$$$$
