
     RDKit          3D

 30 31  0  0  0  0  0  0  0  0999 V2000
    5.0277    1.7106   17.0562 H   0  0  0  0  0  0  0  0  0  0  0  0
    5.4895    1.2218   17.9118 C   0  0  0  0  0  0  0  0  0  0  0  0
    6.6642    0.6043   17.6913 N   0  0  0  0  0  0  0  0  0  0  0  0
    7.2784    0.0211   18.7340 C   0  0  0  0  0  0  0  0  0  0  0  0
    8.2244   -0.4913   18.5442 H   0  0  0  0  0  0  0  0  0  0  0  0
    6.7246    0.0284   20.0273 C   0  0  0  0  0  0  0  0  0  0  0  0
    7.4037   -0.5317   21.1114 O   0  0  0  0  0  0  0  0  0  0  0  0
    6.8115   -1.5766   21.7889 C   0  0  0  0  0  0  0  0  0  0  0  0
    5.8501   -2.1906   21.4017 O   0  0  0  0  0  0  0  0  0  0  0  0
    7.5411   -1.7466   22.9232 N   0  0  0  0  0  0  0  0  0  0  0  0
    8.3235   -1.1204   22.9494 H   0  0  0  0  0  0  0  0  0  0  0  0
    7.2413   -2.5783   24.0046 C   0  0  0  0  0  0  0  0  0  0  0  0
    6.4015   -3.6780   23.8323 C   0  0  0  0  0  0  0  0  0  0  0  0
    5.9919   -3.8673   22.8509 H   0  0  0  0  0  0  0  0  0  0  0  0
    6.1039   -4.4996   24.9225 C   0  0  0  0  0  0  0  0  0  0  0  0
    5.4510   -5.3475   24.7654 H   0  0  0  0  0  0  0  0  0  0  0  0
    6.6240   -4.2450   26.1951 C   0  0  0  0  0  0  0  0  0  0  0  0
    6.3523   -4.9518   27.3227 O   0  0  0  0  0  0  0  0  0  0  0  0
    5.5072   -6.0861   27.2437 C   0  0  0  0  0  0  0  0  0  0  0  0
    4.4931   -5.8226   26.9113 H   0  0  0  0  0  0  0  0  0  0  0  0
    5.4562   -6.4790   28.2580 H   0  0  0  0  0  0  0  0  0  0  0  0
    5.9244   -6.8555   26.5800 H   0  0  0  0  0  0  0  0  0  0  0  0
    7.4956   -3.1391   26.3210 C   0  0  0  0  0  0  0  0  0  0  0  0
    8.0470   -2.8969   27.5164 F   0  0  0  0  0  0  0  0  0  0  0  0
    7.7998   -2.3016   25.2586 C   0  0  0  0  0  0  0  0  0  0  0  0
    8.4331   -1.4360   25.4320 H   0  0  0  0  0  0  0  0  0  0  0  0
    5.4903    0.6414   20.2448 C   0  0  0  0  0  0  0  0  0  0  0  0
    5.0486    0.5789   21.2396 H   0  0  0  0  0  0  0  0  0  0  0  0
    4.8660    1.2719   19.1665 C   0  0  0  0  0  0  0  0  0  0  0  0
    3.9132    1.7822   19.2957 H   0  0  0  0  0  0  0  0  0  0  0  0
  1  2  1  0
  2  3  2  0
  3  4  1  0
  4  5  1  0
  4  6  2  0
  6  7  1  0
  7  8  1  0
  8  9  2  0
  8 10  1  0
 10 11  1  0
 10 12  1  0
 12 13  2  0
 13 14  1  0
 13 15  1  0
 15 16  1  0
 15 17  2  0
 17 18  1  0
 18 19  1  0
 19 20  1  0
 19 21  1  0
 19 22  1  0
 17 23  1  0
 23 24  1  0
 23 25  2  0
 25 26  1  0
  6 27  1  0
 27 28  1  0
 27 29  2  0
 29 30  1  0
 29  2  1  0
 25 12  1  0
M  END
>  <plip>  (1) 
-0.07142857142857142

>  <filename>  (1) 
[H][c]1[n][c]([H])[c]([O][C](=[O])[N]([H])[c]2[c]([H])[c]([H])[c]([O][C]([H])([H])[H])[c]([F])[c]2[H])[c]([H])[c]1[H]

$$$$
