
     RDKit          3D

 37 39  0  0  0  0  0  0  0  0999 V2000
    8.8736    0.3252   24.2707 H   0  0  0  0  0  0  0  0  0  0  0  0
    9.0177   -0.6877   24.1873 N   0  0  0  0  0  0  0  0  0  0  0  0
    8.4985   -0.9669   23.0633 C   0  0  0  0  0  0  0  0  0  0  0  0
    8.4937   -2.5650   22.3266 S   0  0  0  0  0  0  0  0  0  0  0  0
    7.5952   -1.9833   20.9597 C   0  0  0  0  0  0  0  0  0  0  0  0
    7.2305   -2.6673   20.2066 H   0  0  0  0  0  0  0  0  0  0  0  0
    7.3484   -0.6672   21.0144 C   0  0  0  0  0  0  0  0  0  0  0  0
    6.6518    0.0754   19.9356 C   0  0  0  0  0  0  0  0  0  0  0  0
    7.1655    0.0753   18.6222 C   0  0  0  0  0  0  0  0  0  0  0  0
    8.1068   -0.4238   18.3846 H   0  0  0  0  0  0  0  0  0  0  0  0
    6.5664    0.6753   17.5841 N   0  0  0  0  0  0  0  0  0  0  0  0
    5.4053    1.3032   17.8214 C   0  0  0  0  0  0  0  0  0  0  0  0
    4.9436    1.7984   16.9717 H   0  0  0  0  0  0  0  0  0  0  0  0
    4.7925    1.3469   19.0775 C   0  0  0  0  0  0  0  0  0  0  0  0
    3.8460    1.8580   19.2039 H   0  0  0  0  0  0  0  0  0  0  0  0
    5.4240    0.7225   20.1519 C   0  0  0  0  0  0  0  0  0  0  0  0
    4.9767    0.7174   21.1488 H   0  0  0  0  0  0  0  0  0  0  0  0
    7.8125   -0.0801   22.2067 N   0  0  0  0  0  0  0  0  0  0  0  0
    7.7761    1.2493   22.5732 N   0  0  0  0  0  0  0  0  0  0  0  0
    6.6617    1.7058   23.4051 C   0  0  0  0  0  0  0  0  0  0  0  0
    6.3210    0.8754   24.0317 H   0  0  0  0  0  0  0  0  0  0  0  0
    5.8104    2.0047   22.7746 H   0  0  0  0  0  0  0  0  0  0  0  0
    7.1568    2.8886   24.2497 C   0  0  0  0  0  0  0  0  0  0  0  0
    6.3671    3.2757   24.9032 H   0  0  0  0  0  0  0  0  0  0  0  0
    7.9462    2.5149   24.9164 H   0  0  0  0  0  0  0  0  0  0  0  0
    7.7453    4.0131   23.3780 C   0  0  0  0  0  0  0  0  0  0  0  0
    8.2899    4.7059   24.0357 H   0  0  0  0  0  0  0  0  0  0  0  0
    6.6963    4.8446   22.6211 C   0  0  0  0  0  0  0  0  0  0  0  0
    5.9964    5.3395   23.3020 H   0  0  0  0  0  0  0  0  0  0  0  0
    7.1889    5.6242   22.0241 H   0  0  0  0  0  0  0  0  0  0  0  0
    6.1062    4.2365   21.9252 H   0  0  0  0  0  0  0  0  0  0  0  0
    8.7730    3.4244   22.3962 C   0  0  0  0  0  0  0  0  0  0  0  0
    9.0606    4.2345   21.7440 H   0  0  0  0  0  0  0  0  0  0  0  0
    9.6810    3.1052   22.9210 H   0  0  0  0  0  0  0  0  0  0  0  0
    8.2380    2.2294   21.6000 C   0  0  0  0  0  0  0  0  0  0  0  0
    7.4148    2.5204   20.9259 H   0  0  0  0  0  0  0  0  0  0  0  0
    9.0143    1.7682   20.9799 H   0  0  0  0  0  0  0  0  0  0  0  0
  1  2  1  0
  2  3  2  3
  3  4  1  0
  4  5  1  0
  5  6  1  0
  5  7  2  0
  7  8  1  0
  8  9  2  0
  9 10  1  0
  9 11  1  0
 11 12  2  0
 12 13  1  0
 12 14  1  0
 14 15  1  0
 14 16  2  0
 16 17  1  0
  7 18  1  0
 18 19  1  0
 19 20  1  0
 20 21  1  0
 20 22  1  0
 20 23  1  0
 23 24  1  0
 23 25  1  0
 23 26  1  0
 26 27  1  0
 26 28  1  0
 28 29  1  0
 28 30  1  0
 28 31  1  0
 26 32  1  0
 32 33  1  0
 32 34  1  0
 32 35  1  0
 35 36  1  0
 35 37  1  0
 18  3  1  0
 35 19  1  0
 16  8  1  0
M  END
>  <plip>  (1) 
-0.0

>  <filename>  (1) 
[H][N]=[c]1[s][c]([H])[c](-[c]2[c]([H])[n][c]([H])[c]([H])[c]2[H])[n]1[N]1[C]([H])([H])[C]([H])([H])[C]([H])([C]([H])([H])[H])[C]([H])([H])[C]1([H])[H]

$$$$
