
     RDKit          3D

 28 29  0  0  0  0  0  0  0  0999 V2000
    4.9169    1.7829   16.9941 H   0  0  0  0  0  0  0  0  0  0  0  0
    5.4028    1.2952   17.8353 C   0  0  0  0  0  0  0  0  0  0  0  0
    6.5667    0.6830   17.5742 N   0  0  0  0  0  0  0  0  0  0  0  0
    7.1667    0.0634   18.5972 C   0  0  0  0  0  0  0  0  0  0  0  0
    8.1150   -0.4242   18.3734 H   0  0  0  0  0  0  0  0  0  0  0  0
    6.6529    0.0047   19.8969 C   0  0  0  0  0  0  0  0  0  0  0  0
    7.4200   -0.6878   20.9833 C   0  0  2  0  0  0  0  0  0  0  0  0
    8.2648   -1.2475   20.5681 H   0  0  0  0  0  0  0  0  0  0  0  0
    6.3636   -1.9308   21.7487 Cl  0  0  0  0  0  0  0  0  0  0  0  0
    7.9415    0.3158   22.0181 C   0  0  0  0  0  0  0  0  0  0  0  0
    8.5386    1.0574   21.4822 H   0  0  0  0  0  0  0  0  0  0  0  0
    7.1133    0.8450   22.4958 H   0  0  0  0  0  0  0  0  0  0  0  0
    8.8703   -0.3473   23.0077 C   0  0  0  0  0  0  0  0  0  0  0  0
    9.9818   -0.6638   22.6376 O   0  0  0  0  0  0  0  0  0  0  0  0
    8.3947   -0.6373   24.4228 C   0  0  0  0  0  0  0  0  0  0  0  0
    7.0519   -0.5606   24.8441 C   0  0  0  0  0  0  0  0  0  0  0  0
    6.2476   -0.2973   24.1663 H   0  0  0  0  0  0  0  0  0  0  0  0
    6.7307   -0.8581   26.1715 C   0  0  0  0  0  0  0  0  0  0  0  0
    5.6983   -0.7924   26.4958 H   0  0  0  0  0  0  0  0  0  0  0  0
    7.6241   -1.2239   27.0992 N   0  0  0  0  0  0  0  0  0  0  0  0
    8.9015   -1.3005   26.6981 C   0  0  0  0  0  0  0  0  0  0  0  0
    9.6248   -1.5995   27.4477 H   0  0  0  0  0  0  0  0  0  0  0  0
    9.3288   -1.0274   25.3972 C   0  0  0  0  0  0  0  0  0  0  0  0
   10.3769   -1.1168   25.1374 H   0  0  0  0  0  0  0  0  0  0  0  0
    5.4382    0.6532   20.1545 C   0  0  0  0  0  0  0  0  0  0  0  0
    5.0004    0.6298   21.1561 H   0  0  0  0  0  0  0  0  0  0  0  0
    4.8062    1.3101   19.1015 C   0  0  0  0  0  0  0  0  0  0  0  0
    3.8757    1.8425   19.2582 H   0  0  0  0  0  0  0  0  0  0  0  0
  1  2  1  0
  2  3  2  0
  3  4  1  0
  4  5  1  0
  4  6  2  0
  6  7  1  0
  7  8  1  6
  7  9  1  0
  7 10  1  0
 10 11  1  0
 10 12  1  0
 10 13  1  0
 13 14  2  0
 13 15  1  0
 15 16  2  0
 16 17  1  0
 16 18  1  0
 18 19  1  0
 18 20  2  0
 20 21  1  0
 21 22  1  0
 21 23  2  0
 23 24  1  0
  6 25  1  0
 25 26  1  0
 25 27  2  0
 27 28  1  0
 27  2  1  0
 23 15  1  0
M  END
>  <plip>  (1) 
-0.03571428571428571

>  <filename>  (1) 
[H][c]1[n][c]([H])[c]([C@]([H])([Cl])[C]([H])([H])[C](=[O])[c]2[c]([H])[c]([H])[n][c]([H])[c]2[H])[c]([H])[c]1[H]

$$$$
