
     RDKit          3D

 50 53  0  0  0  0  0  0  0  0999 V2000
    1.0956   -7.3286   27.8678 N   0  0  0  0  0  0  0  0  0  0  0  0
    2.0817   -7.0176   27.3460 C   0  0  0  0  0  0  0  0  0  0  0  0
    3.3402   -6.6781   26.7310 C   0  0  0  0  0  0  0  0  0  0  0  0
    4.5342   -7.0965   27.3456 C   0  0  0  0  0  0  0  0  0  0  0  0
    5.7608   -6.7664   26.7633 C   0  0  0  0  0  0  0  0  0  0  0  0
    5.8119   -6.0426   25.5721 C   0  0  0  0  0  0  0  0  0  0  0  0
    4.6180   -5.6532   24.9426 C   0  0  0  0  0  0  0  0  0  0  0  0
    4.6590   -4.8900   23.6864 C   0  0  0  0  0  0  0  0  0  0  0  0
    3.6813   -4.5678   22.9070 N   0  0  0  0  0  0  0  0  0  0  0  0
    4.2250   -3.8261   21.8782 N   0  0  0  0  0  0  0  0  0  0  0  0
    5.4873   -3.7417   22.1043 C   0  0  0  0  0  0  0  0  0  0  0  0
    6.4882   -3.0181   21.2469 C   0  0  0  0  0  0  0  0  0  0  0  0
    6.8878   -1.6209   21.7619 N   0  0  0  0  0  4  0  0  0  0  0  0
    7.7321   -0.6959   20.8593 C   0  0  0  0  0  0  0  0  0  0  0  0
    8.5865    0.2151   21.7666 C   0  0  0  0  0  0  0  0  0  0  0  0
    7.9090    1.3542   22.5523 C   0  0  0  0  0  0  0  0  0  0  0  0
    7.5353    2.5868   21.6955 C   0  0  0  0  0  0  0  0  0  0  0  0
    8.0918    3.7887   22.4797 C   0  0  0  0  0  0  0  0  0  0  0  0
    8.3167    3.3075   23.7920 O   0  0  0  0  0  0  0  0  0  0  0  0
    8.7999    1.9890   23.6392 C   0  0  0  0  0  0  0  0  0  0  0  0
    9.8616    2.0053   23.3325 H   0  0  0  0  0  0  0  0  0  0  0  0
    8.7363    1.4907   24.6123 H   0  0  0  0  0  0  0  0  0  0  0  0
    9.0316    4.1591   22.0367 H   0  0  0  0  0  0  0  0  0  0  0  0
    7.3940    4.6301   22.5432 H   0  0  0  0  0  0  0  0  0  0  0  0
    6.4531    2.6816   21.5597 H   0  0  0  0  0  0  0  0  0  0  0  0
    7.9791    2.5166   20.7002 H   0  0  0  0  0  0  0  0  0  0  0  0
    7.0069    0.9894   23.0665 H   0  0  0  0  0  0  0  0  0  0  0  0
    9.1062   -0.4647   22.4541 H   0  0  0  0  0  0  0  0  0  0  0  0
    9.3753    0.6545   21.1454 H   0  0  0  0  0  0  0  0  0  0  0  0
    6.8488   -0.0061   19.8420 C   0  0  0  0  0  0  0  0  0  0  0  0
    5.6043    0.5740   20.1347 C   0  0  0  0  0  0  0  0  0  0  0  0
    4.8998    1.2256   19.1202 C   0  0  0  0  0  0  0  0  0  0  0  0
    5.4510    1.2680   17.8382 C   0  0  0  0  0  0  0  0  0  0  0  0
    6.6287    0.7071   17.5291 N   0  0  0  0  0  0  0  0  0  0  0  0
    7.2972    0.0969   18.5145 C   0  0  0  0  0  0  0  0  0  0  0  0
    8.2498   -0.3449   18.2136 H   0  0  0  0  0  0  0  0  0  0  0  0
    4.9313    1.7841   17.0323 H   0  0  0  0  0  0  0  0  0  0  0  0
    3.9433    1.7029   19.3018 H   0  0  0  0  0  0  0  0  0  0  0  0
    5.2047    0.5706   21.1524 H   0  0  0  0  0  0  0  0  0  0  0  0
    8.4292   -1.3290   20.3025 H   0  0  0  0  0  0  0  0  0  0  0  0
    7.3842   -1.7032   22.6800 H   0  0  0  0  0  0  0  0  0  0  0  0
    6.0006   -1.0676   21.8884 H   0  0  0  0  0  0  0  0  0  0  0  0
    5.9971   -2.9245   20.2776 H   0  0  0  0  0  0  0  0  0  0  0  0
    7.3589   -3.6654   21.1133 H   0  0  0  0  0  0  0  0  0  0  0  0
    5.8528   -4.4108   23.2257 O   0  0  0  0  0  0  0  0  0  0  0  0
    3.3769   -5.9649   25.5271 C   0  0  0  0  0  0  0  0  0  0  0  0
    2.4430   -5.6487   25.0636 H   0  0  0  0  0  0  0  0  0  0  0  0
    6.7731   -5.7848   25.1293 H   0  0  0  0  0  0  0  0  0  0  0  0
    6.6877   -7.0704   27.2392 H   0  0  0  0  0  0  0  0  0  0  0  0
    4.4920   -7.6585   28.2747 H   0  0  0  0  0  0  0  0  0  0  0  0
  1  2  3  0
  2  3  1  0
  3  4  2  0
  4  5  1  0
  5  6  2  0
  6  7  1  0
  7  8  1  0
  8  9  2  0
  9 10  1  0
 10 11  2  0
 11 12  1  0
 12 13  1  0
 13 14  1  0
 14 15  1  0
 15 16  1  0
 16 17  1  0
 17 18  1  0
 18 19  1  0
 19 20  1  0
 20 21  1  0
 20 22  1  0
 18 23  1  0
 18 24  1  0
 17 25  1  0
 17 26  1  0
 16 27  1  0
 15 28  1  0
 15 29  1  0
 14 30  1  0
 30 31  2  0
 31 32  1  0
 32 33  2  0
 33 34  1  0
 34 35  2  0
 35 36  1  0
 33 37  1  0
 32 38  1  0
 31 39  1  0
 14 40  1  0
 13 41  1  0
 13 42  1  0
 12 43  1  0
 12 44  1  0
 11 45  1  0
  7 46  2  0
 46 47  1  0
  6 48  1  0
  5 49  1  0
  4 50  1  0
 46  3  1  0
 45  8  1  0
 20 16  1  0
 35 30  1  0
M  CHG  1  13   1
M  END
>  <plip>  (1) 
-0.10714285714285714

>  <filename>  (1) 
[H][c]1[n][c]([H])[c]([C]([H])([C]([H])([H])[C]2([H])[C]([H])([H])[O][C]([H])([H])[C]2([H])[H])[N+]([H])([H])[C]([H])([H])[c]2[n][n][c](-[c]3[c]([H])[c]([H])[c]([H])[c]([C]#[N])[c]3[H])[o]2)[c]([H])[c]1[H]

$$$$
