
     RDKit          3D

 37 38  0  0  0  0  0  0  0  0999 V2000
    3.9847   -5.6866   22.5677 C   0  0  0  0  0  0  0  0  0  0  0  0
    5.2226   -6.1364   23.3446 C   0  0  0  0  0  0  0  0  0  0  0  0
    6.4366   -5.2037   23.2133 C   0  0  0  0  0  0  0  0  0  0  0  0
    6.9406   -4.9918   21.7827 C   0  0  0  0  0  0  0  0  0  0  0  0
    8.1697   -4.0626   21.7118 C   0  0  0  0  0  0  0  0  0  0  0  0
    7.9434   -2.5916   21.9365 C   0  0  0  0  0  0  0  0  0  0  0  0
    8.3811   -2.0522   23.0720 N   0  0  0  0  0  0  0  0  0  0  0  0
    8.2204   -0.7371   23.2076 C   0  0  0  0  0  0  0  0  0  0  0  0
    7.6194    0.0879   22.2611 C   0  0  0  0  0  0  0  0  0  0  0  0
    7.5272    1.5877   22.4998 C   0  0  0  0  0  0  0  0  0  0  0  0
    7.6978    2.1706   21.5887 H   0  0  0  0  0  0  0  0  0  0  0  0
    8.2710    1.9004   23.2413 H   0  0  0  0  0  0  0  0  0  0  0  0
    6.5526    1.8913   22.8983 H   0  0  0  0  0  0  0  0  0  0  0  0
    7.1749   -0.6050   21.1175 C   0  0  0  0  0  0  0  0  0  0  0  0
    6.5058    0.0696   19.9817 C   0  0  0  0  0  0  0  0  0  0  0  0
    5.3220    0.8127   20.0902 C   0  0  0  0  0  0  0  0  0  0  0  0
    4.8046    1.4105   18.9372 C   0  0  0  0  0  0  0  0  0  0  0  0
    5.5036    1.2744   17.7344 C   0  0  0  0  0  0  0  0  0  0  0  0
    6.6232    0.5421   17.6118 N   0  0  0  0  0  0  0  0  0  0  0  0
    7.0798   -0.0686   18.7110 C   0  0  0  0  0  0  0  0  0  0  0  0
    7.9554   -0.6976   18.5603 H   0  0  0  0  0  0  0  0  0  0  0  0
    5.1482    1.7635   16.8277 H   0  0  0  0  0  0  0  0  0  0  0  0
    3.8853    1.9869   18.9600 H   0  0  0  0  0  0  0  0  0  0  0  0
    4.8063    0.9127   21.0469 H   0  0  0  0  0  0  0  0  0  0  0  0
    7.3702   -1.9149   20.9412 N   0  0  0  0  0  0  0  0  0  0  0  0
    8.5983   -0.3002   24.1362 H   0  0  0  0  0  0  0  0  0  0  0  0
    8.6037   -4.1539   20.7196 H   0  0  0  0  0  0  0  0  0  0  0  0
    8.9249   -4.3707   22.4397 H   0  0  0  0  0  0  0  0  0  0  0  0
    7.2223   -5.9578   21.3370 H   0  0  0  0  0  0  0  0  0  0  0  0
    6.1432   -4.5850   21.1433 H   0  0  0  0  0  0  0  0  0  0  0  0
    6.1975   -4.2142   23.6376 H   0  0  0  0  0  0  0  0  0  0  0  0
    7.2558   -5.6223   23.8200 H   0  0  0  0  0  0  0  0  0  0  0  0
    5.5011   -7.1554   23.0371 H   0  0  0  0  0  0  0  0  0  0  0  0
    4.9627   -6.2121   24.4080 H   0  0  0  0  0  0  0  0  0  0  0  0
    3.1355   -6.3557   22.7549 H   0  0  0  0  0  0  0  0  0  0  0  0
    4.1755   -5.6860   21.4898 H   0  0  0  0  0  0  0  0  0  0  0  0
    3.6949   -4.6678   22.8558 H   0  0  0  0  0  0  0  0  0  0  0  0
  1  2  1  0
  2  3  1  0
  3  4  1  0
  4  5  1  0
  5  6  1  0
  6  7  2  0
  7  8  1  0
  8  9  2  0
  9 10  1  0
 10 11  1  0
 10 12  1  0
 10 13  1  0
  9 14  1  0
 14 15  1  0
 15 16  2  0
 16 17  1  0
 17 18  2  0
 18 19  1  0
 19 20  2  0
 20 21  1  0
 18 22  1  0
 17 23  1  0
 16 24  1  0
 14 25  2  0
  8 26  1  0
  5 27  1  0
  5 28  1  0
  4 29  1  0
  4 30  1  0
  3 31  1  0
  3 32  1  0
  2 33  1  0
  2 34  1  0
  1 35  1  0
  1 36  1  0
  1 37  1  0
 25  6  1  0
 20 15  1  0
M  END
>  <plip>  (1) 
-0.10714285714285714

>  <filename>  (1) 
[H][c]1[n][c]([H])[c](-[c]2[n][c]([C]([H])([H])[C]([H])([H])[C]([H])([H])[C]([H])([H])[C]([H])([H])[H])[n][c]([H])[c]2[C]([H])([H])[H])[c]([H])[c]1[H]

$$$$
