
     RDKit          3D

 38 40  0  0  0  0  0  0  0  0999 V2000
    6.7409   -4.0206   22.5396 C   0  0  0  0  0  0  0  0  0  0  0  0
    7.3935   -2.8140   22.2262 O   0  0  0  0  0  0  0  0  0  0  0  0
    6.6853   -2.0330   21.2914 C   0  0  0  0  0  0  0  0  0  0  0  0
    7.4098   -0.7123   21.0075 C   0  0  2  0  0  0  0  0  0  0  0  0
    7.5449    0.1351   22.1868 N   0  0  0  0  0  0  0  0  0  0  0  0
    8.3444    1.2404   22.1795 C   0  0  0  0  0  0  0  0  0  0  0  0
    9.0724    1.5144   21.2373 O   0  0  0  0  0  0  0  0  0  0  0  0
    8.2634    2.0814   23.4194 C   0  0  0  0  0  0  0  0  0  0  0  0
    7.4492    2.0217   24.5164 C   0  0  0  0  0  0  0  0  0  0  0  0
    7.7103    3.0586   25.4737 C   0  0  0  0  0  0  0  0  0  0  0  0
    8.7564    3.9112   25.0545 C   0  0  0  0  0  0  0  0  0  0  0  0
    9.3783    3.4294   23.5108 S   0  0  0  0  0  0  0  0  0  0  0  0
    9.1342    4.9857   25.8862 C   0  0  0  0  0  0  0  0  0  0  0  0
   10.1237    5.8115   25.5271 F   0  0  0  0  0  0  0  0  0  0  0  0
    8.4893    5.2071   27.0924 C   0  0  0  0  0  0  0  0  0  0  0  0
    7.4459    4.3507   27.5048 C   0  0  0  0  0  0  0  0  0  0  0  0
    7.0590    3.2874   26.7055 C   0  0  0  0  0  0  0  0  0  0  0  0
    6.2586    2.6224   27.0096 H   0  0  0  0  0  0  0  0  0  0  0  0
    6.9484    4.5290   28.4560 H   0  0  0  0  0  0  0  0  0  0  0  0
    8.8132    6.0469   27.6963 H   0  0  0  0  0  0  0  0  0  0  0  0
    6.6487    1.3107   24.7130 H   0  0  0  0  0  0  0  0  0  0  0  0
    7.0389   -0.0625   23.0326 H   0  0  0  0  0  0  0  0  0  0  0  0
    6.6725    0.0368   19.9062 C   0  0  0  0  0  0  0  0  0  0  0  0
    5.4416    0.6669   20.1451 C   0  0  0  0  0  0  0  0  0  0  0  0
    4.7997    1.3108   19.0875 C   0  0  0  0  0  0  0  0  0  0  0  0
    5.3966    1.2889   17.8212 C   0  0  0  0  0  0  0  0  0  0  0  0
    6.5587    0.6731   17.5654 N   0  0  0  0  0  0  0  0  0  0  0  0
    7.1737    0.0795   18.6005 C   0  0  0  0  0  0  0  0  0  0  0  0
    8.1235   -0.4037   18.3663 H   0  0  0  0  0  0  0  0  0  0  0  0
    4.9278    1.7918   16.9770 H   0  0  0  0  0  0  0  0  0  0  0  0
    3.8666    1.8412   19.2366 H   0  0  0  0  0  0  0  0  0  0  0  0
    5.0012    0.6615   21.1457 H   0  0  0  0  0  0  0  0  0  0  0  0
    8.4226   -0.9616   20.6571 H   0  0  0  0  0  0  0  0  0  0  0  0
    5.6585   -1.8112   21.6367 H   0  0  0  0  0  0  0  0  0  0  0  0
    6.5880   -2.5740   20.3365 H   0  0  0  0  0  0  0  0  0  0  0  0
    5.7436   -3.8476   22.9744 H   0  0  0  0  0  0  0  0  0  0  0  0
    7.3613   -4.5399   23.2741 H   0  0  0  0  0  0  0  0  0  0  0  0
    6.6185   -4.6641   21.6535 H   0  0  0  0  0  0  0  0  0  0  0  0
  1  2  1  0
  2  3  1  0
  3  4  1  0
  4  5  1  0
  5  6  1  0
  6  7  2  0
  6  8  1  0
  8  9  2  0
  9 10  1  0
 10 11  2  0
 11 12  1  0
 11 13  1  0
 13 14  1  0
 13 15  2  0
 15 16  1  0
 16 17  2  0
 17 18  1  0
 16 19  1  0
 15 20  1  0
  9 21  1  0
  5 22  1  0
  4 23  1  0
 23 24  2  0
 24 25  1  0
 25 26  2  0
 26 27  1  0
 27 28  2  0
 28 29  1  0
 26 30  1  0
 25 31  1  0
 24 32  1  0
  4 33  1  6
  3 34  1  0
  3 35  1  0
  1 36  1  0
  1 37  1  0
  1 38  1  0
 12  8  1  0
 28 23  1  0
 17 10  1  0
M  END
>  <plip>  (1) 
-0.13793103448275862

>  <filename>  (1) 
[H][c]1[n][c]([H])[c]([C@@]([H])([N]([H])[C](=[O])[c]2[s][c]3[c]([F])[c]([H])[c]([H])[c]([H])[c]3[c]2[H])[C]([H])([H])[O][C]([H])([H])[H])[c]([H])[c]1[H]

$$$$
