
     RDKit          3D

 22 22  0  0  0  0  0  0  0  0999 V2000
   13.2635    3.1307   21.6692 H   0  0  0  0  0  0  0  0  0  0  0  0
   12.3353    3.3981   21.7322 O   0  0  0  0  0  0  0  0  0  0  0  0
   11.5610    2.4360   21.0274 C   0  0  0  0  0  0  0  0  0  0  0  0
   11.4329    2.7265   19.9725 H   0  0  0  0  0  0  0  0  0  0  0  0
   12.0453    1.4510   21.0243 H   0  0  0  0  0  0  0  0  0  0  0  0
   10.2141    2.3234   21.7335 C   0  0  0  0  0  0  0  0  0  0  0  0
    9.5786    3.1908   21.5395 H   0  0  0  0  0  0  0  0  0  0  0  0
   10.3675    2.2466   22.8143 H   0  0  0  0  0  0  0  0  0  0  0  0
    9.5286    1.1364   21.2567 O   0  0  0  0  0  0  0  0  0  0  0  0
    8.4111    0.7402   21.8688 C   0  0  0  0  0  0  0  0  0  0  0  0
    7.6922    1.4536   23.1516 S   0  0  0  0  0  0  0  0  0  0  0  0
    7.7667   -0.7371   21.0471 S   0  0  0  0  0  0  0  0  0  0  0  0
    6.7368    0.0213   19.7988 C   0  0  0  0  0  0  0  0  0  0  0  0
    7.1811    0.0459   18.4679 C   0  0  0  0  0  0  0  0  0  0  0  0
    8.1194   -0.4514   18.2145 H   0  0  0  0  0  0  0  0  0  0  0  0
    6.5358    0.6675   17.4775 N   0  0  0  0  0  0  0  0  0  0  0  0
    5.3890    1.2918   17.7819 C   0  0  0  0  0  0  0  0  0  0  0  0
    4.8927    1.8052   16.9541 H   0  0  0  0  0  0  0  0  0  0  0  0
    4.8341    1.2859   19.0635 C   0  0  0  0  0  0  0  0  0  0  0  0
    3.8928    1.7952   19.2398 H   0  0  0  0  0  0  0  0  0  0  0  0
    5.5141    0.6375   20.1005 C   0  0  0  0  0  0  0  0  0  0  0  0
    5.1241    0.6215   21.1211 H   0  0  0  0  0  0  0  0  0  0  0  0
  1  2  1  0
  2  3  1  0
  3  4  1  0
  3  5  1  0
  3  6  1  0
  6  7  1  0
  6  8  1  0
  6  9  1  0
  9 10  1  0
 10 11  2  0
 10 12  1  0
 12 13  1  0
 13 14  2  0
 14 15  1  0
 14 16  1  0
 16 17  2  0
 17 18  1  0
 17 19  1  0
 19 20  1  0
 19 21  2  0
 21 22  1  0
 21 13  1  0
M  END
>  <plip>  (1) 
-0.10714285714285714

>  <filename>  (1) 
[H][O][C]([H])([H])[C]([H])([H])[O][C](=[S])[S][c]1[c]([H])[n][c]([H])[c]([H])[c]1[H]

$$$$
