
     RDKit          3D

 45 48  0  0  0  0  0  0  0  0999 V2000
   10.5759   -1.6428   21.8919 C   0  0  0  0  0  0  0  0  0  0  0  0
    9.0897   -1.5033   21.8822 C   0  0  0  0  0  0  0  0  0  0  0  0
    8.3205   -2.0169   22.9060 C   0  0  0  0  0  0  0  0  0  0  0  0
    7.0309   -1.5366   22.9318 C   0  0  0  0  0  0  0  0  0  0  0  0
    6.2074   -1.7112   23.9882 N   0  0  0  0  0  0  0  0  0  0  0  0
    6.6554   -1.9436   25.2813 C   0  0  0  0  0  0  0  0  0  0  0  0
    9.4812   -1.1280   25.6176 C   0  0  0  0  0  0  0  0  0  0  0  0
   10.5403   -0.6375   24.8482 N   0  0  0  0  0  0  0  0  0  0  0  0
   10.0341    1.6552   25.2258 O   0  0  0  0  0  0  0  0  0  0  0  0
   10.9436    0.7743   25.3647 C   0  0  0  0  0  0  0  0  0  0  0  0
    9.3710   -0.9489   25.5977 C   0  0  0  0  0  0  0  0  0  0  0  0
    9.4356   -0.6754   26.7791 H   0  0  0  0  0  0  0  0  0  0  0  0
    9.4305   -2.2884   25.6898 H   0  0  0  0  0  0  0  0  0  0  0  0
   11.2759    0.6205   26.4465 H   0  0  0  0  0  0  0  0  0  0  0  0
   11.8964    1.0372   24.7933 H   0  0  0  0  0  0  0  0  0  0  0  0
    6.7738   -3.2350   25.7552 C   0  0  0  0  0  0  0  0  0  0  0  0
    7.4229   -3.4809   27.0094 C   0  0  0  0  0  0  0  0  0  0  0  0
    7.5232   -4.7718   27.5252 C   0  0  0  0  0  0  0  0  0  0  0  0
    7.0057   -5.8588   26.8106 C   0  0  0  0  0  0  0  0  0  0  0  0
    6.3896   -5.6542   25.5716 C   0  0  0  0  0  0  0  0  0  0  0  0
    6.2817   -4.3710   25.0396 C   0  0  0  0  0  0  0  0  0  0  0  0
    5.8085   -4.2234   24.0699 H   0  0  0  0  0  0  0  0  0  0  0  0
    5.9835   -6.4909   25.0128 H   0  0  0  0  0  0  0  0  0  0  0  0
    7.0771   -6.8582   27.2260 H   0  0  0  0  0  0  0  0  0  0  0  0
    8.0152   -4.9299   28.4785 H   0  0  0  0  0  0  0  0  0  0  0  0
    7.8805   -2.6388   27.5306 H   0  0  0  0  0  0  0  0  0  0  0  0
    6.8298   -1.0763   25.9110 H   0  0  0  0  0  0  0  0  0  0  0  0
    5.4544   -1.0684   23.7957 H   0  0  0  0  0  0  0  0  0  0  0  0
    6.4577   -0.8391   21.9707 N   0  0  0  0  0  0  0  0  0  0  0  0
    7.2336   -0.5834   20.9316 C   0  0  0  0  0  0  0  0  0  0  0  0
    6.6123    0.0983   19.7946 C   0  0  0  0  0  0  0  0  0  0  0  0
    5.3825    0.7709   19.8896 C   0  0  0  0  0  0  0  0  0  0  0  0
    4.8935    1.3957   18.7492 C   0  0  0  0  0  0  0  0  0  0  0  0
    5.6334    1.3085   17.5646 C   0  0  0  0  0  0  0  0  0  0  0  0
    6.7940    0.6477   17.4600 N   0  0  0  0  0  0  0  0  0  0  0  0
    7.2703    0.0625   18.5628 C   0  0  0  0  0  0  0  0  0  0  0  0
    8.2141   -0.4673   18.4578 H   0  0  0  0  0  0  0  0  0  0  0  0
    5.2720    1.7897   16.6599 H   0  0  0  0  0  0  0  0  0  0  0  0
    3.9625    1.9514   18.7675 H   0  0  0  0  0  0  0  0  0  0  0  0
    4.8326    0.7922   20.8335 H   0  0  0  0  0  0  0  0  0  0  0  0
    8.5361   -0.8630   20.8447 N   0  0  0  0  0  0  0  0  0  0  0  0
    8.6542   -2.7230   23.6442 H   0  0  0  0  0  0  0  0  0  0  0  0
   10.9025   -2.2875   22.7109 H   0  0  0  0  0  0  0  0  0  0  0  0
   11.0267   -0.6572   22.0494 H   0  0  0  0  0  0  0  0  0  0  0  0
   10.9322   -2.0297   20.9362 H   0  0  0  0  0  0  0  0  0  0  0  0
  1  2  1  0
  2  3  2  0
  3  4  1  0
  4  5  1  0
  5  6  1  0
  6  7  1  0
  7  8  2  0
  8  9  1  0
  9 10  1  0
 10 11  1  0
 11 12  1  0
 11 13  1  0
 10 14  1  0
 10 15  1  0
  6 16  1  0
 16 17  2  0
 17 18  1  0
 18 19  2  0
 19 20  1  0
 20 21  2  0
 21 22  1  0
 20 23  1  0
 19 24  1  0
 18 25  1  0
 17 26  1  0
  6 27  1  0
  5 28  1  0
  4 29  2  0
 29 30  1  0
 30 31  1  0
 31 32  2  0
 32 33  1  0
 33 34  2  0
 34 35  1  0
 35 36  2  0
 36 37  1  0
 34 38  1  0
 33 39  1  0
 32 40  1  0
 30 41  2  0
  3 42  1  0
  1 43  1  0
  1 44  1  0
  1 45  1  0
 41  2  1  0
 11  7  1  0
 21 16  1  0
 36 31  1  0
M  END
>  <plip>  (1) 
-0.10344827586206896

>  <filename>  (1) 
[H][c]1[n][c]([H])[c](-[c]2[n][c]([N]([H])[C]([H])([C]3=[N][O][C]([H])([H])[C]3([H])[H])[c]3[c]([H])[c]([H])[c]([H])[c]([H])[c]3[H])[c]([H])[c]([C]([H])([H])[H])[n]2)[c]([H])[c]1[H]

$$$$
