
     RDKit          3D

 26 28  0  0  0  0  0  0  0  0999 V2000
    4.9157    1.8039   16.9731 H   0  0  0  0  0  0  0  0  0  0  0  0
    5.3839    1.3000   17.8184 C   0  0  0  0  0  0  0  0  0  0  0  0
    6.5478    0.6808   17.5610 N   0  0  0  0  0  0  0  0  0  0  0  0
    7.1558    0.0627   18.5796 C   0  0  0  0  0  0  0  0  0  0  0  0
    8.1130   -0.3965   18.3288 H   0  0  0  0  0  0  0  0  0  0  0  0
    6.6466    0.0190   19.8973 C   0  0  0  0  0  0  0  0  0  0  0  0
    7.3533   -0.6389   21.0053 C   0  0  0  0  0  0  0  0  0  0  0  0
    7.4135   -0.3710   22.3608 C   0  0  0  0  0  0  0  0  0  0  0  0
    6.7394    0.7138   22.8894 O   0  0  0  0  0  0  0  0  0  0  0  0
    6.6012    0.7794   24.2505 N   0  0  0  0  0  0  0  0  0  0  0  0
    6.2619   -0.2349   25.1016 C   0  0  0  0  0  0  0  0  0  0  0  0
    6.2703   -1.2765   24.8212 H   0  0  0  0  0  0  0  0  0  0  0  0
    5.9610    0.2426   26.2842 N   0  0  0  0  0  0  0  0  0  0  0  0
    6.0674    1.6037   26.1747 C   0  0  0  0  0  0  0  0  0  0  0  0
    5.8431    2.2373   27.0217 H   0  0  0  0  0  0  0  0  0  0  0  0
    6.4408    1.9749   24.9143 C   0  0  0  0  0  0  0  0  0  0  0  0
    6.5625    2.9348   24.4322 H   0  0  0  0  0  0  0  0  0  0  0  0
    8.2502   -1.3494   22.9374 C   0  0  0  0  0  0  0  0  0  0  0  0
    8.6033   -1.4884   23.9541 H   0  0  0  0  0  0  0  0  0  0  0  0
    8.6715   -2.1903   21.9952 N   0  0  0  0  0  0  0  0  0  0  0  0
    8.1327   -1.7432   20.8573 N   0  0  0  0  0  0  0  0  0  0  0  0
    8.2610   -2.2647   19.9982 H   0  0  0  0  0  0  0  0  0  0  0  0
    5.4267    0.6687   20.1414 C   0  0  0  0  0  0  0  0  0  0  0  0
    5.0233    0.6628   21.1521 H   0  0  0  0  0  0  0  0  0  0  0  0
    4.7889    1.3152   19.0840 C   0  0  0  0  0  0  0  0  0  0  0  0
    3.8607    1.8503   19.2318 H   0  0  0  0  0  0  0  0  0  0  0  0
  1  2  1  0
  2  3  2  0
  3  4  1  0
  4  5  1  0
  4  6  2  0
  6  7  1  0
  7  8  2  0
  8  9  1  0
  9 10  1  0
 10 11  1  0
 11 12  1  0
 11 13  2  0
 13 14  1  0
 14 15  1  0
 14 16  2  0
 16 17  1  0
  8 18  1  0
 18 19  1  0
 18 20  2  0
 20 21  1  0
 21 22  1  0
  6 23  1  0
 23 24  1  0
 23 25  2  0
 25 26  1  0
 25  2  1  0
 21  7  1  0
 16 10  1  0
M  END
>  <plip>  (1) 
-0.0

>  <filename>  (1) 
[H][c]1[n][c]([H])[c](-[c]2[c]([O][n]3[c]([H])[n][c]([H])[c]3[H])[c]([H])[n][n]2[H])[c]([H])[c]1[H]

$$$$
