
     RDKit          3D

 33 34  0  0  0  0  0  0  0  0999 V2000
    4.9196    1.8066   16.9837 H   0  0  0  0  0  0  0  0  0  0  0  0
    5.4007    1.3018   17.8187 C   0  0  0  0  0  0  0  0  0  0  0  0
    6.5639    0.6908   17.5394 N   0  0  0  0  0  0  0  0  0  0  0  0
    7.1869    0.0771   18.5554 C   0  0  0  0  0  0  0  0  0  0  0  0
    8.1336   -0.4081   18.3158 H   0  0  0  0  0  0  0  0  0  0  0  0
    6.6989    0.0208   19.8786 C   0  0  0  0  0  0  0  0  0  0  0  0
    7.4623   -0.6687   21.0179 C   0  0  2  0  0  0  0  0  0  0  0  0
    8.2555   -1.2942   20.5876 H   0  0  0  0  0  0  0  0  0  0  0  0
    6.5771   -1.6393   21.8199 C   0  0  0  0  0  0  0  0  0  0  0  0
    5.8707   -2.5346   21.4014 O   0  0  0  0  0  0  0  0  0  0  0  0
    6.7148   -1.3514   23.1330 N   0  0  0  0  0  0  0  0  0  0  0  0
    6.2178   -1.9762   23.7471 H   0  0  0  0  0  0  0  0  0  0  0  0
    7.7156   -0.3672   23.4656 C   0  0  0  0  0  0  0  0  0  0  0  0
    8.6156   -0.8180   23.9055 H   0  0  0  0  0  0  0  0  0  0  0  0
    7.3423    0.3799   24.1715 H   0  0  0  0  0  0  0  0  0  0  0  0
    8.0407    0.2989   22.0918 C   0  0  1  0  0  0  0  0  0  0  0  0
    7.4664    1.2410   22.0512 H   0  0  0  0  0  0  0  0  0  0  0  0
    9.4436    0.6397   21.9192 N   0  0  0  0  0  0  0  0  0  0  0  0
   10.0974    0.1980   21.2944 H   0  0  0  0  0  0  0  0  0  0  0  0
   10.0342    1.5990   22.6781 C   0  0  0  0  0  0  0  0  0  0  0  0
    9.4859    2.2496   23.5431 O   0  0  0  0  0  0  0  0  0  0  0  0
   11.3368    1.6943   22.3175 O   0  0  0  0  0  0  0  0  0  0  0  0
   12.1220    2.6781   23.0192 C   0  0  0  0  0  0  0  0  0  0  0  0
   13.1606    2.3689   22.8595 H   0  0  0  0  0  0  0  0  0  0  0  0
   11.8974    2.6247   24.0921 H   0  0  0  0  0  0  0  0  0  0  0  0
   11.8735    4.0822   22.4894 C   0  0  0  0  0  0  0  0  0  0  0  0
   12.5254    4.7875   23.0163 H   0  0  0  0  0  0  0  0  0  0  0  0
   10.8357    4.3878   22.6607 H   0  0  0  0  0  0  0  0  0  0  0  0
   12.0835    4.1434   21.4161 H   0  0  0  0  0  0  0  0  0  0  0  0
    5.4716    0.6564   20.1319 C   0  0  0  0  0  0  0  0  0  0  0  0
    5.0283    0.6287   21.1321 H   0  0  0  0  0  0  0  0  0  0  0  0
    4.8118    1.3133   19.0879 C   0  0  0  0  0  0  0  0  0  0  0  0
    3.8713    1.8398   19.2414 H   0  0  0  0  0  0  0  0  0  0  0  0
  1  2  1  0
  2  3  2  0
  3  4  1  0
  4  5  1  0
  4  6  2  0
  6  7  1  0
  7  8  1  6
  7  9  1  0
  9 10  2  0
  9 11  1  0
 11 12  1  0
 11 13  1  0
 13 14  1  0
 13 15  1  0
 13 16  1  0
 16 17  1  1
 16 18  1  0
 18 19  1  0
 18 20  1  0
 20 21  2  0
 20 22  1  0
 22 23  1  0
 23 24  1  0
 23 25  1  0
 23 26  1  0
 26 27  1  0
 26 28  1  0
 26 29  1  0
  6 30  1  0
 30 31  1  0
 30 32  2  0
 32 33  1  0
 32  2  1  0
 16  7  1  0
M  END
>  <plip>  (1) 
-0.10714285714285714

>  <filename>  (1) 
[H][c]1[n][c]([H])[c]([C@]2([H])[C](=[O])[N]([H])[C]([H])([H])[C@@]2([H])[N]([H])[C](=[O])[O][C]([H])([H])[C]([H])([H])[H])[c]([H])[c]1[H]

$$$$
