
     RDKit          3D

 41 42  0  0  0  0  0  0  0  0999 V2000
    4.9736    1.8643   16.8512 H   0  0  0  0  0  0  0  0  0  0  0  0
    5.3920    1.3897   17.7363 C   0  0  0  0  0  0  0  0  0  0  0  0
    6.5575    0.7498   17.5627 N   0  0  0  0  0  0  0  0  0  0  0  0
    7.1023    0.1476   18.6226 C   0  0  0  0  0  0  0  0  0  0  0  0
    8.0540   -0.3580   18.4576 H   0  0  0  0  0  0  0  0  0  0  0  0
    6.5203    0.1566   19.8987 C   0  0  0  0  0  0  0  0  0  0  0  0
    7.1771   -0.5939   20.9844 C   0  0  0  0  0  0  0  0  0  0  0  0
    7.6919   -1.7479   20.6611 N   0  0  0  0  0  0  0  0  0  0  0  0
    8.2845   -2.4937   21.6408 C   0  0  0  0  0  0  0  0  0  0  0  0
    8.6706   -3.6318   21.5150 O   0  0  0  0  0  0  0  0  0  0  0  0
    8.4967   -1.8910   22.8775 N   0  0  0  0  0  0  0  0  0  0  0  0
    8.9094   -2.5168   23.5395 H   0  0  0  0  0  0  0  0  0  0  0  0
    7.9127   -0.7427   23.2409 C   0  0  0  0  0  0  0  0  0  0  0  0
    8.1215   -0.4443   24.5197 O   0  0  0  0  0  0  0  0  0  0  0  0
    7.5302    0.7449   25.0713 C   0  0  0  0  0  0  0  0  0  0  0  0
    7.5547    0.5885   26.1507 H   0  0  0  0  0  0  0  0  0  0  0  0
    6.4774    0.8267   24.7835 H   0  0  0  0  0  0  0  0  0  0  0  0
    8.3049    2.0173   24.7039 C   0  0  0  0  0  0  0  0  0  0  0  0
    8.3827    2.0902   23.6088 H   0  0  0  0  0  0  0  0  0  0  0  0
    9.3368    1.8842   25.0550 H   0  0  0  0  0  0  0  0  0  0  0  0
    7.7015    3.2111   25.2954 N   0  0  0  0  0  0  0  0  0  0  0  0
    6.9766    4.0607   24.3548 C   0  0  0  0  0  0  0  0  0  0  0  0
    6.7118    4.9922   24.8651 H   0  0  0  0  0  0  0  0  0  0  0  0
    7.6073    4.3350   23.4833 H   0  0  0  0  0  0  0  0  0  0  0  0
    5.6854    3.4410   23.8361 C   0  0  0  0  0  0  0  0  0  0  0  0
    5.1469    4.1589   23.2084 H   0  0  0  0  0  0  0  0  0  0  0  0
    5.0195    3.1397   24.6513 H   0  0  0  0  0  0  0  0  0  0  0  0
    5.8816    2.5691   23.2090 H   0  0  0  0  0  0  0  0  0  0  0  0
    8.5305    3.9359   26.2609 C   0  0  0  0  0  0  0  0  0  0  0  0
    9.0962    3.1755   26.8079 H   0  0  0  0  0  0  0  0  0  0  0  0
    7.8534    4.4126   26.9846 H   0  0  0  0  0  0  0  0  0  0  0  0
    9.5270    4.9611   25.6999 C   0  0  0  0  0  0  0  0  0  0  0  0
   10.1196    4.5233   24.8864 H   0  0  0  0  0  0  0  0  0  0  0  0
   10.2142    5.2910   26.4894 H   0  0  0  0  0  0  0  0  0  0  0  0
    9.0099    5.8436   25.3056 H   0  0  0  0  0  0  0  0  0  0  0  0
    7.2207   -0.0378   22.2891 C   0  0  0  0  0  0  0  0  0  0  0  0
    6.7661    0.9107   22.5099 H   0  0  0  0  0  0  0  0  0  0  0  0
    5.3256    0.8604   20.0768 C   0  0  0  0  0  0  0  0  0  0  0  0
    4.8536    0.9157   21.0606 H   0  0  0  0  0  0  0  0  0  0  0  0
    4.7421    1.4701   18.9717 C   0  0  0  0  0  0  0  0  0  0  0  0
    3.8098    2.0129   19.0489 H   0  0  0  0  0  0  0  0  0  0  0  0
  1  2  1  0
  2  3  2  0
  3  4  1  0
  4  5  1  0
  4  6  2  0
  6  7  1  0
  7  8  2  0
  8  9  1  0
  9 10  2  0
  9 11  1  0
 11 12  1  0
 11 13  1  0
 13 14  1  0
 14 15  1  0
 15 16  1  0
 15 17  1  0
 15 18  1  0
 18 19  1  0
 18 20  1  0
 18 21  1  0
 21 22  1  0
 22 23  1  0
 22 24  1  0
 22 25  1  0
 25 26  1  0
 25 27  1  0
 25 28  1  0
 21 29  1  0
 29 30  1  0
 29 31  1  0
 29 32  1  0
 32 33  1  0
 32 34  1  0
 32 35  1  0
 13 36  2  0
 36 37  1  0
  6 38  1  0
 38 39  1  0
 38 40  2  0
 40 41  1  0
 40  2  1  0
 36  7  1  0
M  END
>  <plip>  (1) 
-0.06896551724137931

>  <filename>  (1) 
[H][c]1[n][c]([H])[c](-[c]2[n][c](=[O])[n]([H])[c]([O][C]([H])([H])[C]([H])([H])[N]([C]([H])([H])[C]([H])([H])[H])[C]([H])([H])[C]([H])([H])[H])[c]2[H])[c]([H])[c]1[H]

$$$$
