
     RDKit          3D

 27 28  0  0  0  0  0  0  0  0999 V2000
    4.9390    1.7788   16.9997 H   0  0  0  0  0  0  0  0  0  0  0  0
    5.4071    1.2812   17.8466 C   0  0  0  0  0  0  0  0  0  0  0  0
    6.5700    0.6611   17.5912 N   0  0  0  0  0  0  0  0  0  0  0  0
    7.1890    0.0693   18.6152 C   0  0  0  0  0  0  0  0  0  0  0  0
    8.1346   -0.4172   18.3840 H   0  0  0  0  0  0  0  0  0  0  0  0
    6.6816    0.0292   19.9278 C   0  0  0  0  0  0  0  0  0  0  0  0
    7.4600   -0.6879   20.9763 C   0  0  0  0  0  0  0  0  0  0  0  0
    8.7233   -0.7968   20.8082 N   0  0  0  0  0  0  0  0  0  0  0  0
    9.5433   -1.2399   21.9448 C   0  0  2  0  0  0  0  0  0  0  0  0
    9.3636   -2.3153   22.0759 H   0  0  0  0  0  0  0  0  0  0  0  0
    9.3687   -0.5767   23.2460 N   0  0  0  0  0  0  0  0  0  0  0  0
   10.5157   -0.0968   23.5174 C   0  0  0  0  0  0  0  0  0  0  0  0
   10.7781    0.6047   24.6080 N   0  0  0  0  0  0  0  0  0  0  0  0
    9.9853    0.6879   25.2106 H   0  0  0  0  0  0  0  0  0  0  0  0
   11.7057    0.9483   24.7323 H   0  0  0  0  0  0  0  0  0  0  0  0
   11.5696   -0.2594   22.7077 O   0  0  0  0  0  0  0  0  0  0  0  0
   11.0363   -1.0177   21.5927 C   0  0  0  0  0  0  0  0  0  0  0  0
   11.5937   -1.9576   21.5212 H   0  0  0  0  0  0  0  0  0  0  0  0
   11.1308   -0.4256   20.6788 H   0  0  0  0  0  0  0  0  0  0  0  0
    6.6849   -1.3423   22.0953 C   0  0  0  0  0  0  0  0  0  0  0  0
    7.1606   -2.2624   22.4385 H   0  0  0  0  0  0  0  0  0  0  0  0
    6.6092   -0.6721   22.9531 H   0  0  0  0  0  0  0  0  0  0  0  0
    5.6853   -1.5975   21.7404 H   0  0  0  0  0  0  0  0  0  0  0  0
    5.4466    0.6564   20.1680 C   0  0  0  0  0  0  0  0  0  0  0  0
    4.9903    0.6439   21.1589 H   0  0  0  0  0  0  0  0  0  0  0  0
    4.8102    1.3050   19.1103 C   0  0  0  0  0  0  0  0  0  0  0  0
    3.8743    1.8373   19.2481 H   0  0  0  0  0  0  0  0  0  0  0  0
  1  2  1  0
  2  3  2  0
  3  4  1  0
  4  5  1  0
  4  6  2  0
  6  7  1  0
  7  8  2  3
  8  9  1  0
  9 10  1  1
  9 11  1  0
 11 12  2  0
 12 13  1  0
 13 14  1  0
 13 15  1  0
 12 16  1  0
 16 17  1  0
 17 18  1  0
 17 19  1  0
  7 20  1  0
 20 21  1  0
 20 22  1  0
 20 23  1  0
  6 24  1  0
 24 25  1  0
 24 26  2  0
 26 27  1  0
 26  2  1  0
 17  9  1  0
M  END
>  <plip>  (1) 
-0.10714285714285714

>  <filename>  (1) 
[H][c]1[n][c]([H])[c]([C](=[N][C@]2([H])[N]=[C]([N]([H])[H])[O][C]2([H])[H])[C]([H])([H])[H])[c]([H])[c]1[H]

$$$$
