
     RDKit          3D

 47 50  0  0  0  0  0  0  0  0999 V2000
    1.5231   -5.8979   24.9386 C   0  0  0  0  0  0  0  0  0  0  0  0
    3.0253   -5.9577   25.1734 C   0  0  0  0  0  0  0  0  0  0  0  0
    3.9484   -5.2773   24.3346 C   0  0  0  0  0  0  0  0  0  0  0  0
    3.4796   -4.6842   23.1799 N   0  0  0  0  0  0  0  0  0  0  0  0
    4.2414   -3.9231   22.3647 C   0  0  0  0  0  0  0  0  0  0  0  0
    5.5324   -3.6497   22.6530 C   0  0  0  0  0  0  0  0  0  0  0  0
    6.2672   -2.8110   21.6804 C   0  0  0  0  0  0  0  0  0  0  0  0
    6.2369   -3.1244   20.4945 O   0  0  0  0  0  0  0  0  0  0  0  0
    6.8552   -1.6500   22.0920 N   0  0  0  0  0  0  0  0  0  0  0  0
    7.0862   -1.1758   23.4656 C   0  0  0  0  0  0  0  0  0  0  0  0
    7.5329    0.2751   23.2642 C   0  0  0  0  0  0  0  0  0  0  0  0
    8.3400    0.8803   24.4096 C   0  0  0  0  0  0  0  0  0  0  0  0
    8.7157    1.8739   24.1361 H   0  0  0  0  0  0  0  0  0  0  0  0
    7.7521    0.9890   25.3278 H   0  0  0  0  0  0  0  0  0  0  0  0
    9.2094    0.2493   24.6387 H   0  0  0  0  0  0  0  0  0  0  0  0
    8.3150    0.1814   21.9458 C   0  0  0  0  0  0  0  0  0  0  0  0
    7.5605   -0.8467   21.0868 C   0  0  0  0  0  0  0  0  0  0  0  0
    6.6850   -0.2034   20.0136 C   0  0  0  0  0  0  0  0  0  0  0  0
    5.4915    0.4899   20.2668 C   0  0  0  0  0  0  0  0  0  0  0  0
    4.8881    1.1990   19.2223 C   0  0  0  0  0  0  0  0  0  0  0  0
    5.4886    1.1938   17.9596 C   0  0  0  0  0  0  0  0  0  0  0  0
    6.6192    0.5251   17.6910 N   0  0  0  0  0  0  0  0  0  0  0  0
    7.1819   -0.1527   18.7007 C   0  0  0  0  0  0  0  0  0  0  0  0
    8.1070   -0.6758   18.4468 H   0  0  0  0  0  0  0  0  0  0  0  0
    5.0467    1.7478   17.1294 H   0  0  0  0  0  0  0  0  0  0  0  0
    3.9750    1.7636   19.3702 H   0  0  0  0  0  0  0  0  0  0  0  0
    5.0418    0.4943   21.2617 H   0  0  0  0  0  0  0  0  0  0  0  0
    8.2541   -1.5185   20.5601 H   0  0  0  0  0  0  0  0  0  0  0  0
    8.4112    1.1497   21.4492 H   0  0  0  0  0  0  0  0  0  0  0  0
    9.3254   -0.1994   22.1391 H   0  0  0  0  0  0  0  0  0  0  0  0
    6.6344    0.8855   23.0865 H   0  0  0  0  0  0  0  0  0  0  0  0
    6.1796   -1.2744   24.0719 H   0  0  0  0  0  0  0  0  0  0  0  0
    7.8806   -1.7667   23.9463 H   0  0  0  0  0  0  0  0  0  0  0  0
    6.1848   -4.2955   23.7787 C   0  0  0  0  0  0  0  0  0  0  0  0
    7.3769   -4.1436   24.0148 O   0  0  0  0  0  0  0  0  0  0  0  0
    5.3216   -5.1705   24.6224 C   0  0  0  0  0  0  0  0  0  0  0  0
    5.8335   -5.8949   25.7164 C   0  0  0  0  0  0  0  0  0  0  0  0
    4.9871   -6.6695   26.4900 C   0  0  0  0  0  0  0  0  0  0  0  0
    3.6066   -6.6713   26.2105 C   0  0  0  0  0  0  0  0  0  0  0  0
    2.8225   -7.4211   27.0080 F   0  0  0  0  0  0  0  0  0  0  0  0
    5.3436   -7.2495   27.3310 H   0  0  0  0  0  0  0  0  0  0  0  0
    6.8939   -5.8408   25.9472 H   0  0  0  0  0  0  0  0  0  0  0  0
    3.7745   -3.5177   21.4782 H   0  0  0  0  0  0  0  0  0  0  0  0
    2.5310   -4.8891   22.9288 H   0  0  0  0  0  0  0  0  0  0  0  0
    0.9688   -6.4309   25.7136 H   0  0  0  0  0  0  0  0  0  0  0  0
    1.2490   -6.3491   23.9766 H   0  0  0  0  0  0  0  0  0  0  0  0
    1.1462   -4.8657   24.9237 H   0  0  0  0  0  0  0  0  0  0  0  0
  1  2  1  0
  2  3  2  0
  3  4  1  0
  4  5  1  0
  5  6  2  0
  6  7  1  0
  7  8  2  0
  7  9  1  0
  9 10  1  0
 10 11  1  0
 11 12  1  0
 12 13  1  0
 12 14  1  0
 12 15  1  0
 11 16  1  0
 16 17  1  0
 17 18  1  0
 18 19  2  0
 19 20  1  0
 20 21  2  0
 21 22  1  0
 22 23  2  0
 23 24  1  0
 21 25  1  0
 20 26  1  0
 19 27  1  0
 17 28  1  0
 16 29  1  0
 16 30  1  0
 11 31  1  0
 10 32  1  0
 10 33  1  0
  6 34  1  0
 34 35  2  0
 34 36  1  0
 36 37  2  0
 37 38  1  0
 38 39  2  0
 39 40  1  0
 38 41  1  0
 37 42  1  0
  5 43  1  0
  4 44  1  0
  1 45  1  0
  1 46  1  0
  1 47  1  0
 39  2  1  0
 36  3  1  0
 17  9  1  0
 23 18  1  0
M  END
>  <plip>  (1) 
-0.06896551724137931

>  <filename>  (1) 
[H][c]1[n][c]([H])[c]([C]2([H])[N]([C](=[O])[c]3[c]([H])[n]([H])[c]4[c]([C]([H])([H])[H])[c]([F])[c]([H])[c]([H])[c]4[c]3=[O])[C]([H])([H])[C]([H])([C]([H])([H])[H])[C]2([H])[H])[c]([H])[c]1[H]

$$$$
