
     RDKit          3D

 30 32  0  0  0  0  0  0  0  0999 V2000
    7.7734    0.0307   23.0205 H   0  0  0  0  0  0  0  0  0  0  0  0
    7.2009    0.4762   22.3106 N   0  0  0  0  0  0  0  0  0  0  0  0
    7.1875   -0.1859   21.2393 C   0  0  0  0  0  0  0  0  0  0  0  0
    8.0991   -1.7685   21.0804 S   0  0  0  0  0  0  0  0  0  0  0  0
    6.9493   -3.1612   20.9269 C   0  0  0  0  0  0  0  0  0  0  0  0
    6.1788   -3.3653   19.7945 C   0  0  0  0  0  0  0  0  0  0  0  0
    6.1362   -2.5885   19.0269 H   0  0  0  0  0  0  0  0  0  0  0  0
    5.5257   -4.5280   19.5082 N   0  0  0  0  0  0  0  0  0  0  0  0
    5.5080   -5.4629   20.4355 C   0  0  0  0  0  0  0  0  0  0  0  0
    5.0215   -6.4092   20.1822 H   0  0  0  0  0  0  0  0  0  0  0  0
    6.0532   -5.2975   21.7444 C   0  0  0  0  0  0  0  0  0  0  0  0
    5.7544   -6.1751   22.8355 C   0  0  0  0  0  0  0  0  0  0  0  0
    5.0336   -6.9845   22.7018 H   0  0  0  0  0  0  0  0  0  0  0  0
    6.3136   -5.9262   24.0719 C   0  0  0  0  0  0  0  0  0  0  0  0
    6.0139   -6.5163   24.9279 H   0  0  0  0  0  0  0  0  0  0  0  0
    7.2684   -4.8879   24.2560 C   0  0  0  0  0  0  0  0  0  0  0  0
    7.7279   -4.7368   25.2313 H   0  0  0  0  0  0  0  0  0  0  0  0
    7.5567   -4.0269   23.2213 C   0  0  0  0  0  0  0  0  0  0  0  0
    8.2630   -3.2130   23.3534 H   0  0  0  0  0  0  0  0  0  0  0  0
    6.8907   -4.1561   21.9642 C   0  0  0  0  0  0  0  0  0  0  0  0
    6.4994    0.3362   20.0399 C   0  0  0  0  0  0  0  0  0  0  0  0
    7.1229    0.2398   18.7928 C   0  0  0  0  0  0  0  0  0  0  0  0
    8.1072   -0.2164   18.7089 H   0  0  0  0  0  0  0  0  0  0  0  0
    6.5901    0.6931   17.6550 N   0  0  0  0  0  0  0  0  0  0  0  0
    5.3971    1.2987   17.7396 C   0  0  0  0  0  0  0  0  0  0  0  0
    4.9944    1.6777   16.8037 H   0  0  0  0  0  0  0  0  0  0  0  0
    4.6910    1.4535   18.9378 C   0  0  0  0  0  0  0  0  0  0  0  0
    3.7374    1.9662   18.9363 H   0  0  0  0  0  0  0  0  0  0  0  0
    5.2613    0.9884   20.1202 C   0  0  0  0  0  0  0  0  0  0  0  0
    4.7824    1.1425   21.0885 H   0  0  0  0  0  0  0  0  0  0  0  0
  1  2  1  0
  2  3  2  3
  3  4  1  0
  4  5  1  0
  5  6  2  0
  6  7  1  0
  6  8  1  0
  8  9  2  0
  9 10  1  0
  9 11  1  0
 11 12  2  0
 12 13  1  0
 12 14  1  0
 14 15  1  0
 14 16  2  0
 16 17  1  0
 16 18  1  0
 18 19  1  0
 18 20  2  0
  3 21  1  0
 21 22  2  0
 22 23  1  0
 22 24  1  0
 24 25  2  0
 25 26  1  0
 25 27  1  0
 27 28  1  0
 27 29  2  0
 29 30  1  0
 20  5  1  0
 29 21  1  0
 20 11  1  0
M  END
>  <plip>  (1) 
-0.14285714285714285

>  <filename>  (1) 
[H][N]=[C]([S][c]1[c]([H])[n][c]([H])[c]2[c]([H])[c]([H])[c]([H])[c]([H])[c]12)[c]1[c]([H])[n][c]([H])[c]([H])[c]1[H]

$$$$
