
     RDKit          3D

 49 52  0  0  0  0  0  0  0  0999 V2000
    7.6923    1.0867   26.1807 O   0  0  0  0  0  0  0  0  0  0  0  0
    8.3612    1.8053   25.4688 C   0  0  0  0  0  0  0  0  0  0  0  0
    9.7260    1.7611   25.4073 N   0  0  0  0  0  0  0  0  0  0  0  0
   10.2509    2.6960   24.5142 C   0  0  0  0  0  0  0  0  0  0  0  0
    9.2135    3.4728   23.9856 C   0  0  0  0  0  0  0  0  0  0  0  0
    9.4958    4.5196   23.1037 C   0  0  0  0  0  0  0  0  0  0  0  0
   10.8310    4.8134   22.8064 C   0  0  0  0  0  0  0  0  0  0  0  0
   11.8726    4.0183   23.3186 C   0  0  0  0  0  0  0  0  0  0  0  0
   11.5724    2.9301   24.1248 C   0  0  0  0  0  0  0  0  0  0  0  0
   12.5446    2.0815   24.5106 F   0  0  0  0  0  0  0  0  0  0  0  0
   12.9168    4.2160   23.1033 H   0  0  0  0  0  0  0  0  0  0  0  0
   11.0756    5.6341   22.1363 H   0  0  0  0  0  0  0  0  0  0  0  0
    8.6994    5.0832   22.6198 H   0  0  0  0  0  0  0  0  0  0  0  0
    7.8970    2.8716   24.4494 C   0  0  0  0  0  0  0  0  0  0  0  0
    7.0213    2.2987   23.2965 C   0  0  0  0  0  0  0  0  0  0  0  0
    7.6967    1.3116   22.3398 C   0  0  0  0  0  0  0  0  0  0  0  0
    8.5563    1.6866   21.5608 O   0  0  0  0  0  0  0  0  0  0  0  0
    7.1782    0.0208   22.3129 N   0  0  0  0  0  0  0  0  0  0  0  0
    6.8693   -0.7754   23.5014 C   0  0  0  0  0  0  0  0  0  0  0  0
    8.0496   -1.5660   24.0761 C   0  0  0  0  0  0  0  0  0  0  0  0
    8.7975   -2.4428   23.0566 C   0  0  0  0  0  0  0  0  0  0  0  0
    9.5939   -1.6177   22.0256 C   0  0  0  0  0  0  0  0  0  0  0  0
    8.7972   -1.1310   20.7966 C   0  0  0  0  0  0  0  0  0  0  0  0
    7.3297   -0.7317   21.0509 C   0  0  0  0  0  0  0  0  0  0  0  0
    6.6397   -0.0080   19.8940 C   0  0  0  0  0  0  0  0  0  0  0  0
    5.4062    0.6347   20.1064 C   0  0  0  0  0  0  0  0  0  0  0  0
    4.7864    1.3018   19.0533 C   0  0  0  0  0  0  0  0  0  0  0  0
    5.4105    1.2913   17.8010 C   0  0  0  0  0  0  0  0  0  0  0  0
    6.5723    0.6705   17.5654 N   0  0  0  0  0  0  0  0  0  0  0  0
    7.1660    0.0547   18.6012 C   0  0  0  0  0  0  0  0  0  0  0  0
    8.1214   -0.4139   18.3658 H   0  0  0  0  0  0  0  0  0  0  0  0
    4.9537    1.8012   16.9552 H   0  0  0  0  0  0  0  0  0  0  0  0
    3.8564    1.8435   19.2000 H   0  0  0  0  0  0  0  0  0  0  0  0
    4.9588    0.6364   21.1012 H   0  0  0  0  0  0  0  0  0  0  0  0
    6.7634   -1.6639   21.2133 H   0  0  0  0  0  0  0  0  0  0  0  0
    9.3395   -0.2948   20.3478 H   0  0  0  0  0  0  0  0  0  0  0  0
    8.7605   -1.9297   20.0558 H   0  0  0  0  0  0  0  0  0  0  0  0
   10.4467   -2.2009   21.6593 H   0  0  0  0  0  0  0  0  0  0  0  0
   10.0281   -0.7477   22.5385 H   0  0  0  0  0  0  0  0  0  0  0  0
    9.4828   -3.0960   23.6079 H   0  0  0  0  0  0  0  0  0  0  0  0
    8.1023   -3.1228   22.5426 H   0  0  0  0  0  0  0  0  0  0  0  0
    7.6508   -2.1926   24.8855 H   0  0  0  0  0  0  0  0  0  0  0  0
    8.7640   -0.8819   24.5492 H   0  0  0  0  0  0  0  0  0  0  0  0
    6.4224   -0.1530   24.2795 H   0  0  0  0  0  0  0  0  0  0  0  0
    6.1065   -1.5091   23.2108 H   0  0  0  0  0  0  0  0  0  0  0  0
    6.1017    1.8671   23.6999 H   0  0  0  0  0  0  0  0  0  0  0  0
    6.7235    3.1227   22.6334 H   0  0  0  0  0  0  0  0  0  0  0  0
    7.2790    3.5749   25.0167 H   0  0  0  0  0  0  0  0  0  0  0  0
   10.2053    1.1071   26.0036 H   0  0  0  0  0  0  0  0  0  0  0  0
  1  2  2  0
  2  3  1  0
  3  4  1  0
  4  5  2  0
  5  6  1  0
  6  7  2  0
  7  8  1  0
  8  9  2  0
  9 10  1  0
  8 11  1  0
  7 12  1  0
  6 13  1  0
  5 14  1  0
 14 15  1  0
 15 16  1  0
 16 17  2  0
 16 18  1  0
 18 19  1  0
 19 20  1  0
 20 21  1  0
 21 22  1  0
 22 23  1  0
 23 24  1  0
 24 25  1  0
 25 26  2  0
 26 27  1  0
 27 28  2  0
 28 29  1  0
 29 30  2  0
 30 31  1  0
 28 32  1  0
 27 33  1  0
 26 34  1  0
 24 35  1  0
 23 36  1  0
 23 37  1  0
 22 38  1  0
 22 39  1  0
 21 40  1  0
 21 41  1  0
 20 42  1  0
 20 43  1  0
 19 44  1  0
 19 45  1  0
 15 46  1  0
 15 47  1  0
 14 48  1  0
  3 49  1  0
 14  2  1  0
 24 18  1  0
 30 25  1  0
  9  4  1  0
M  END
>  <plip>  (1) 
-0.07142857142857142

>  <filename>  (1) 
[H][c]1[n][c]([H])[c]([C]2([H])[N]([C](=[O])[C]([H])([H])[C]3([H])[C](=[O])[N]([H])[c]4[c]([F])[c]([H])[c]([H])[c]([H])[c]43)[C]([H])([H])[C]([H])([H])[C]([H])([H])[C]([H])([H])[C]2([H])[H])[c]([H])[c]1[H]

$$$$
