
     RDKit          3D

 25 26  0  0  0  0  0  0  0  0999 V2000
    4.9324    1.7748   16.9991 H   0  0  0  0  0  0  0  0  0  0  0  0
    5.4086    1.2840   17.8454 C   0  0  0  0  0  0  0  0  0  0  0  0
    6.5714    0.6659   17.5935 N   0  0  0  0  0  0  0  0  0  0  0  0
    7.1704    0.0481   18.6154 C   0  0  0  0  0  0  0  0  0  0  0  0
    8.1192   -0.4289   18.3808 H   0  0  0  0  0  0  0  0  0  0  0  0
    6.6412   -0.0055   19.9069 C   0  0  0  0  0  0  0  0  0  0  0  0
    7.3392   -0.8198   20.9539 C   0  0  0  0  0  0  0  0  0  0  0  0
    7.1281   -0.2766   22.1906 F   0  0  0  0  0  0  0  0  0  0  0  0
    8.6960   -0.7373   20.8037 F   0  0  0  0  0  0  0  0  0  0  0  0
    6.9087   -2.1318   20.8957 O   0  0  0  0  0  0  0  0  0  0  0  0
    7.3574   -3.1273   21.7719 C   0  0  0  0  0  0  0  0  0  0  0  0
    6.7970   -4.3967   21.5615 C   0  0  0  0  0  0  0  0  0  0  0  0
    6.0706   -4.5373   20.7713 H   0  0  0  0  0  0  0  0  0  0  0  0
    7.1760   -5.4742   22.3702 C   0  0  0  0  0  0  0  0  0  0  0  0
    6.7634   -6.4699   22.2427 H   0  0  0  0  0  0  0  0  0  0  0  0
    8.1113   -5.2585   23.3790 C   0  0  0  0  0  0  0  0  0  0  0  0
    8.4874   -6.2809   24.1624 F   0  0  0  0  0  0  0  0  0  0  0  0
    8.6735   -4.0070   23.5990 C   0  0  0  0  0  0  0  0  0  0  0  0
    9.3968   -3.8831   24.3973 H   0  0  0  0  0  0  0  0  0  0  0  0
    8.2949   -2.9284   22.7905 C   0  0  0  0  0  0  0  0  0  0  0  0
    8.7305   -1.9530   22.9649 H   0  0  0  0  0  0  0  0  0  0  0  0
    5.4292    0.6502   20.1655 C   0  0  0  0  0  0  0  0  0  0  0  0
    4.9944    0.6413   21.1680 H   0  0  0  0  0  0  0  0  0  0  0  0
    4.8065    1.3062   19.1069 C   0  0  0  0  0  0  0  0  0  0  0  0
    3.8763    1.8421   19.2563 H   0  0  0  0  0  0  0  0  0  0  0  0
  1  2  1  0
  2  3  2  0
  3  4  1  0
  4  5  1  0
  4  6  2  0
  6  7  1  0
  7  8  1  0
  7  9  1  0
  7 10  1  0
 10 11  1  0
 11 12  2  0
 12 13  1  0
 12 14  1  0
 14 15  1  0
 14 16  2  0
 16 17  1  0
 16 18  1  0
 18 19  1  0
 18 20  2  0
 20 21  1  0
  6 22  1  0
 22 23  1  0
 22 24  2  0
 24 25  1  0
 24  2  1  0
 20 11  1  0
M  END
>  <plip>  (1) 
-0.034482758620689655

>  <filename>  (1) 
[H][c]1[n][c]([H])[c]([C]([F])([F])[O][c]2[c]([H])[c]([H])[c]([F])[c]([H])[c]2[H])[c]([H])[c]1[H]

$$$$
