
     RDKit          3D

 33 35  0  0  0  0  0  0  0  0999 V2000
    9.1663    0.8918   21.3252 C   0  0  0  0  0  0  0  0  0  0  0  0
    8.7530   -0.5612   21.1339 C   0  0  0  0  0  0  0  0  0  0  0  0
    7.3096   -0.7210   20.9244 N   0  0  0  0  0  0  0  0  0  0  0  0
    6.5617   -1.6882   21.6198 C   0  0  0  0  0  0  0  0  0  0  0  0
    5.7454   -2.4051   21.0709 O   0  0  0  0  0  0  0  0  0  0  0  0
    6.7850   -1.7732   23.1036 C   0  0  0  0  0  0  0  0  0  0  0  0
    6.2911   -2.7379   23.9308 C   0  0  0  0  0  0  0  0  0  0  0  0
    6.3851   -2.4154   25.3148 C   0  0  0  0  0  0  0  0  0  0  0  0
    5.9153   -3.2156   26.2972 N   0  0  0  0  0  0  0  0  0  0  0  0
    5.9274   -2.7051   27.5177 C   0  0  0  0  0  0  0  0  0  0  0  0
    6.4156   -1.4173   27.8317 C   0  0  0  0  0  0  0  0  0  0  0  0
    6.9868   -0.6301   26.8400 C   0  0  0  0  0  0  0  0  0  0  0  0
    6.9649   -1.1484   25.5360 C   0  0  0  0  0  0  0  0  0  0  0  0
    7.4338   -0.4201   24.0349 S   0  0  0  0  0  0  0  0  0  0  0  0
    7.3929    0.3517   27.0770 H   0  0  0  0  0  0  0  0  0  0  0  0
    6.2785   -1.0402   28.8362 H   0  0  0  0  0  0  0  0  0  0  0  0
    5.5181   -3.3293   28.3098 H   0  0  0  0  0  0  0  0  0  0  0  0
    5.8004   -3.6657   23.6557 H   0  0  0  0  0  0  0  0  0  0  0  0
    6.6642   -0.0203   19.8581 C   0  0  0  0  0  0  0  0  0  0  0  0
    5.4470    0.6374   20.1015 C   0  0  0  0  0  0  0  0  0  0  0  0
    4.8322    1.3197   19.0507 C   0  0  0  0  0  0  0  0  0  0  0  0
    5.4430    1.3182   17.7920 C   0  0  0  0  0  0  0  0  0  0  0  0
    6.6040    0.6944   17.5384 N   0  0  0  0  0  0  0  0  0  0  0  0
    7.1982    0.0540   18.5559 C   0  0  0  0  0  0  0  0  0  0  0  0
    8.1415   -0.4457   18.3362 H   0  0  0  0  0  0  0  0  0  0  0  0
    4.9786    1.8358   16.9556 H   0  0  0  0  0  0  0  0  0  0  0  0
    3.8952    1.8456   19.1986 H   0  0  0  0  0  0  0  0  0  0  0  0
    5.0137    0.6153   21.1025 H   0  0  0  0  0  0  0  0  0  0  0  0
    9.2973   -0.9926   20.2790 H   0  0  0  0  0  0  0  0  0  0  0  0
    9.0439   -1.1576   22.0052 H   0  0  0  0  0  0  0  0  0  0  0  0
   10.2529    0.9459   21.4490 H   0  0  0  0  0  0  0  0  0  0  0  0
    8.8900    1.4867   20.4511 H   0  0  0  0  0  0  0  0  0  0  0  0
    8.6974    1.3356   22.2080 H   0  0  0  0  0  0  0  0  0  0  0  0
  1  2  1  0
  2  3  1  0
  3  4  1  0
  4  5  2  0
  4  6  1  0
  6  7  2  0
  7  8  1  0
  8  9  2  0
  9 10  1  0
 10 11  2  0
 11 12  1  0
 12 13  2  0
 13 14  1  0
 12 15  1  0
 11 16  1  0
 10 17  1  0
  7 18  1  0
  3 19  1  0
 19 20  2  0
 20 21  1  0
 21 22  2  0
 22 23  1  0
 23 24  2  0
 24 25  1  0
 22 26  1  0
 21 27  1  0
 20 28  1  0
  2 29  1  0
  2 30  1  0
  1 31  1  0
  1 32  1  0
  1 33  1  0
 14  6  1  0
 24 19  1  0
 13  8  1  0
M  END
>  <plip>  (1) 
-0.07142857142857142

>  <filename>  (1) 
[H][c]1[n][c]([H])[c]([N]([C](=[O])[c]2[s][c]3[c]([H])[c]([H])[c]([H])[n][c]3[c]2[H])[C]([H])([H])[C]([H])([H])[H])[c]([H])[c]1[H]

$$$$
