
     RDKit          3D

 50 52  0  0  0  0  0  0  0  0999 V2000
    6.7964   -2.7915   23.7296 C   0  0  0  0  0  0  0  0  0  0  0  0
    7.3968   -2.6695   22.4533 O   0  0  0  0  0  0  0  0  0  0  0  0
    6.6848   -1.9564   21.4600 C   0  0  0  0  0  0  0  0  0  0  0  0
    6.5382   -2.7543   20.3319 O   0  0  0  0  0  0  0  0  0  0  0  0
    5.6798   -3.8535   20.5290 C   0  0  0  0  0  0  0  0  0  0  0  0
    5.4723   -4.2775   19.5458 H   0  0  0  0  0  0  0  0  0  0  0  0
    4.7471   -3.5206   21.0069 H   0  0  0  0  0  0  0  0  0  0  0  0
    6.1258   -4.6274   21.1645 H   0  0  0  0  0  0  0  0  0  0  0  0
    7.4271   -0.6708   20.9940 C   0  0  0  0  0  0  0  0  0  0  0  0
    7.6797    0.2187   22.1144 N   0  0  0  0  0  0  0  0  0  0  0  0
    8.7735    1.0186   22.2220 C   0  0  0  0  0  0  0  0  0  0  0  0
    9.6161    1.1093   21.3445 O   0  0  0  0  0  0  0  0  0  0  0  0
    8.8649    1.8499   23.5220 C   0  0  0  0  0  0  0  0  0  0  0  0
    8.2691    3.2636   23.3124 C   0  0  0  0  0  0  0  0  0  0  0  0
    6.7425    3.2541   23.4327 C   0  0  0  0  0  0  0  0  0  0  0  0
    6.3029    2.7653   24.8201 C   0  0  0  0  0  0  0  0  0  0  0  0
    7.0722    1.5532   25.3370 C   0  0  0  0  0  0  0  0  0  0  0  0
    6.5904    0.8257   26.4509 C   0  0  0  0  0  0  0  0  0  0  0  0
    5.4382    1.1799   27.0971 O   0  0  0  0  0  0  0  0  0  0  0  0
    5.1470    2.0270   26.7383 H   0  0  0  0  0  0  0  0  0  0  0  0
    7.2782   -0.2869   26.9422 C   0  0  0  0  0  0  0  0  0  0  0  0
    8.4762   -0.6809   26.3414 C   0  0  0  0  0  0  0  0  0  0  0  0
    8.9742    0.0271   25.2463 C   0  0  0  0  0  0  0  0  0  0  0  0
    8.2896    1.1508   24.7487 C   0  0  0  0  0  0  0  0  0  0  0  0
    9.9014   -0.2939   24.7799 H   0  0  0  0  0  0  0  0  0  0  0  0
    9.0258   -1.5346   26.7365 H   0  0  0  0  0  0  0  0  0  0  0  0
    6.8672   -0.8070   27.8028 H   0  0  0  0  0  0  0  0  0  0  0  0
    5.2212    2.5612   24.7877 H   0  0  0  0  0  0  0  0  0  0  0  0
    6.4268    3.5859   25.5439 H   0  0  0  0  0  0  0  0  0  0  0  0
    6.2934    2.6194   22.6528 H   0  0  0  0  0  0  0  0  0  0  0  0
    6.3532    4.2647   23.2592 H   0  0  0  0  0  0  0  0  0  0  0  0
    8.6885    3.9246   24.0844 H   0  0  0  0  0  0  0  0  0  0  0  0
    8.5907    3.6580   22.3420 H   0  0  0  0  0  0  0  0  0  0  0  0
    9.9463    1.9497   23.6719 H   0  0  0  0  0  0  0  0  0  0  0  0
    7.0447    0.2274   22.9003 H   0  0  0  0  0  0  0  0  0  0  0  0
    6.6817    0.0804   19.8944 C   0  0  0  0  0  0  0  0  0  0  0  0
    5.4492    0.7139   20.1168 C   0  0  0  0  0  0  0  0  0  0  0  0
    4.8072    1.3332   19.0435 C   0  0  0  0  0  0  0  0  0  0  0  0
    5.4182    1.3150   17.7842 C   0  0  0  0  0  0  0  0  0  0  0  0
    6.5932    0.7158   17.5473 N   0  0  0  0  0  0  0  0  0  0  0  0
    7.1945    0.1234   18.5899 C   0  0  0  0  0  0  0  0  0  0  0  0
    8.1467   -0.3607   18.3659 H   0  0  0  0  0  0  0  0  0  0  0  0
    4.9446    1.8006   16.9319 H   0  0  0  0  0  0  0  0  0  0  0  0
    3.8526    1.8334   19.1636 H   0  0  0  0  0  0  0  0  0  0  0  0
    4.9911    0.7352   21.1111 H   0  0  0  0  0  0  0  0  0  0  0  0
    8.3924   -1.0184   20.6035 H   0  0  0  0  0  0  0  0  0  0  0  0
    5.6904   -1.6595   21.8506 H   0  0  0  0  0  0  0  0  0  0  0  0
    6.6789   -1.8235   24.2448 H   0  0  0  0  0  0  0  0  0  0  0  0
    5.8144   -3.2897   23.6921 H   0  0  0  0  0  0  0  0  0  0  0  0
    7.4596   -3.4140   24.3391 H   0  0  0  0  0  0  0  0  0  0  0  0
  1  2  1  0
  2  3  1  0
  3  4  1  0
  4  5  1  0
  5  6  1  0
  5  7  1  0
  5  8  1  0
  3  9  1  0
  9 10  1  0
 10 11  1  0
 11 12  2  0
 11 13  1  0
 13 14  1  0
 14 15  1  0
 15 16  1  0
 16 17  1  0
 17 18  2  0
 18 19  1  0
 19 20  1  0
 18 21  1  0
 21 22  2  0
 22 23  1  0
 23 24  2  0
 23 25  1  0
 22 26  1  0
 21 27  1  0
 16 28  1  0
 16 29  1  0
 15 30  1  0
 15 31  1  0
 14 32  1  0
 14 33  1  0
 13 34  1  0
 10 35  1  0
  9 36  1  0
 36 37  2  0
 37 38  1  0
 38 39  2  0
 39 40  1  0
 40 41  2  0
 41 42  1  0
 39 43  1  0
 38 44  1  0
 37 45  1  0
  9 46  1  0
  3 47  1  0
  1 48  1  0
  1 49  1  0
  1 50  1  0
 24 13  1  0
 41 36  1  0
 24 17  1  0
M  END
>  <plip>  (1) 
-0.14285714285714285

>  <filename>  (1) 
[H][O][c]1[c]([H])[c]([H])[c]([H])[c]2[c]1[C]([H])([H])[C]([H])([H])[C]([H])([H])[C]2([H])[C](=[O])[N]([H])[C]([H])([c]1[c]([H])[n][c]([H])[c]([H])[c]1[H])[C]([H])([O][C]([H])([H])[H])[O][C]([H])([H])[H]

$$$$
