
     RDKit          3D

 41 42  0  0  0  0  0  0  0  0999 V2000
   10.2999   -0.5738   24.7430 C   0  0  0  0  0  0  0  0  0  0  0  0
   11.1236    0.5903   24.2311 C   0  0  0  0  0  0  0  0  0  0  0  0
   12.5192    0.5884   24.3581 C   0  0  0  0  0  0  0  0  0  0  0  0
   13.3426    1.5195   23.8589 N   0  0  0  0  0  0  0  0  0  0  0  0
   12.7823    2.5243   23.1744 C   0  0  0  0  0  0  0  0  0  0  0  0
   11.4038    2.6602   23.0225 C   0  0  0  0  0  0  0  0  0  0  0  0
   10.5516    1.7085   23.5893 C   0  0  0  0  0  0  0  0  0  0  0  0
    9.0459    1.8177   23.4310 C   0  0  0  0  0  0  0  0  0  0  0  0
    8.4628    3.2374   23.5999 C   0  0  0  0  0  0  0  0  0  0  0  0
    8.8646    3.7105   24.5050 H   0  0  0  0  0  0  0  0  0  0  0  0
    7.3709    3.1932   23.7085 H   0  0  0  0  0  0  0  0  0  0  0  0
    8.6863    3.8946   22.7532 H   0  0  0  0  0  0  0  0  0  0  0  0
    8.6497    1.1474   22.0895 C   0  0  0  0  0  0  0  0  0  0  0  0
    9.1317    1.4956   21.0231 O   0  0  0  0  0  0  0  0  0  0  0  0
    7.7321    0.0974   22.1765 N   0  0  0  0  0  0  0  0  0  0  0  0
    6.8302   -0.0610   23.3095 C   0  0  0  0  0  0  0  0  0  0  0  0
    7.3683   -0.3829   24.2079 H   0  0  0  0  0  0  0  0  0  0  0  0
    6.1186   -0.8522   23.0791 H   0  0  0  0  0  0  0  0  0  0  0  0
    6.2878    0.8692   23.5330 H   0  0  0  0  0  0  0  0  0  0  0  0
    7.4458   -0.7359   20.9792 C   0  0  0  0  0  0  0  0  0  0  0  0
    6.7980   -2.2756   21.3111 C   0  0  0  0  0  0  0  0  0  0  0  0
    5.6619   -2.5087   20.8776 O   0  0  0  0  0  0  0  0  0  0  0  0
    7.6152   -3.0129   21.8836 O   0  0  0  0  0  1  0  0  0  0  0  0
    6.6966    0.0441   19.9103 C   0  0  0  0  0  0  0  0  0  0  0  0
    5.4721    0.6847   20.1419 C   0  0  0  0  0  0  0  0  0  0  0  0
    4.8327    1.3179   19.0706 C   0  0  0  0  0  0  0  0  0  0  0  0
    5.4426    1.3077   17.8115 C   0  0  0  0  0  0  0  0  0  0  0  0
    6.6249    0.7184   17.5685 N   0  0  0  0  0  0  0  0  0  0  0  0
    7.2175    0.1154   18.6082 C   0  0  0  0  0  0  0  0  0  0  0  0
    8.1741   -0.3620   18.3930 H   0  0  0  0  0  0  0  0  0  0  0  0
    4.9598    1.7851   16.9599 H   0  0  0  0  0  0  0  0  0  0  0  0
    3.8766    1.8140   19.1991 H   0  0  0  0  0  0  0  0  0  0  0  0
    5.0231    0.6906   21.1390 H   0  0  0  0  0  0  0  0  0  0  0  0
    8.4103   -1.0424   20.5629 H   0  0  0  0  0  0  0  0  0  0  0  0
    8.6112    1.2320   24.2415 H   0  0  0  0  0  0  0  0  0  0  0  0
   11.0094    3.4903   22.4480 H   0  0  0  0  0  0  0  0  0  0  0  0
   13.4633    3.2517   22.7346 H   0  0  0  0  0  0  0  0  0  0  0  0
   13.0019   -0.2226   24.8971 H   0  0  0  0  0  0  0  0  0  0  0  0
   10.9026   -1.4747   24.8636 H   0  0  0  0  0  0  0  0  0  0  0  0
    9.8327   -0.3636   25.7134 H   0  0  0  0  0  0  0  0  0  0  0  0
    9.5134   -0.8375   24.0281 H   0  0  0  0  0  0  0  0  0  0  0  0
  1  2  1  0
  2  3  2  0
  3  4  1  0
  4  5  2  0
  5  6  1  0
  6  7  2  0
  7  8  1  0
  8  9  1  0
  9 10  1  0
  9 11  1  0
  9 12  1  0
  8 13  1  0
 13 14  2  0
 13 15  1  0
 15 16  1  0
 16 17  1  0
 16 18  1  0
 16 19  1  0
 15 20  1  0
 20 21  1  0
 21 22  2  0
 21 23  1  0
 20 24  1  0
 24 25  2  0
 25 26  1  0
 26 27  2  0
 27 28  1  0
 28 29  2  0
 29 30  1  0
 27 31  1  0
 26 32  1  0
 25 33  1  0
 20 34  1  0
  8 35  1  0
  6 36  1  0
  5 37  1  0
  3 38  1  0
  1 39  1  0
  1 40  1  0
  1 41  1  0
  7  2  1  0
 29 24  1  0
M  CHG  1  23  -1
M  END
>  <plip>  (1) 
-0.10344827586206896

>  <filename>  (1) 
[H][c]1[n][c]([H])[c]([C]([H])([C](=[O])[O-])[N]([C](=[O])[C]([H])([c]2[c]([H])[c]([H])[n][c]([H])[c]2[C]([H])([H])[H])[C]([H])([H])[H])[C]([H])([H])[H])[c]([H])[c]1[H]

$$$$
