
     RDKit          3D

 44 45  0  0  0  0  0  0  0  0999 V2000
    8.8582   -1.0676   20.7532 C   0  0  0  0  0  0  0  0  0  0  0  0
    7.3913   -0.6892   21.0751 C   0  0  0  0  0  0  0  0  0  0  0  0
    6.5938   -1.9885   21.3159 C   0  0  0  0  0  0  0  0  0  0  0  0
    5.5522   -1.7694   21.5705 H   0  0  0  0  0  0  0  0  0  0  0  0
    7.0274   -2.5483   22.1480 H   0  0  0  0  0  0  0  0  0  0  0  0
    6.6021   -2.6152   20.4171 H   0  0  0  0  0  0  0  0  0  0  0  0
    7.4233    0.1561   22.4110 C   0  0  0  0  0  0  0  0  0  0  0  0
    7.0363   -0.2697   23.4860 O   0  0  0  0  0  0  0  0  0  0  0  0
    8.0133    1.3905   22.2935 N   0  0  0  0  0  0  0  0  0  0  0  0
    7.9997    2.3602   23.3793 C   0  0  0  0  0  0  0  0  0  0  0  0
    8.7078    3.6554   22.9718 C   0  0  0  0  0  0  0  0  0  0  0  0
   10.2253    3.5138   22.7775 C   0  0  0  0  0  0  0  0  0  0  0  0
   11.1459    5.0794   22.5202 S   0  0  0  0  0  0  0  0  0  0  0  0
   11.2202    5.8002   24.1426 C   0  0  0  0  0  0  0  0  0  0  0  0
   10.1949    6.6508   24.5856 C   0  0  0  0  0  0  0  0  0  0  0  0
   10.2569    7.2271   25.8578 C   0  0  0  0  0  0  0  0  0  0  0  0
   11.3557    6.9587   26.6835 C   0  0  0  0  0  0  0  0  0  0  0  0
   12.4034    6.1441   26.2327 C   0  0  0  0  0  0  0  0  0  0  0  0
   12.3404    5.5707   24.9585 C   0  0  0  0  0  0  0  0  0  0  0  0
   13.1549    4.9566   24.5762 H   0  0  0  0  0  0  0  0  0  0  0  0
   13.2612    5.9479   26.8755 H   0  0  0  0  0  0  0  0  0  0  0  0
   11.3978    7.3901   27.6780 H   0  0  0  0  0  0  0  0  0  0  0  0
    9.4447    7.8698   26.1983 H   0  0  0  0  0  0  0  0  0  0  0  0
    9.3599    6.8621   23.9209 H   0  0  0  0  0  0  0  0  0  0  0  0
   10.6962    2.9850   23.6146 H   0  0  0  0  0  0  0  0  0  0  0  0
   10.4264    2.9367   21.8650 H   0  0  0  0  0  0  0  0  0  0  0  0
    8.5233    4.3935   23.7608 H   0  0  0  0  0  0  0  0  0  0  0  0
    8.2442    4.0534   22.0551 H   0  0  0  0  0  0  0  0  0  0  0  0
    8.4935    1.9119   24.2512 H   0  0  0  0  0  0  0  0  0  0  0  0
    6.9683    2.5848   23.6919 H   0  0  0  0  0  0  0  0  0  0  0  0
    7.9363    1.7642   21.3617 H   0  0  0  0  0  0  0  0  0  0  0  0
    6.7071    0.0560   19.8983 C   0  0  0  0  0  0  0  0  0  0  0  0
    5.4718    0.6923   20.1149 C   0  0  0  0  0  0  0  0  0  0  0  0
    4.8304    1.3259   19.0438 C   0  0  0  0  0  0  0  0  0  0  0  0
    5.4297    1.3009   17.7794 C   0  0  0  0  0  0  0  0  0  0  0  0
    6.5859    0.6712   17.5327 N   0  0  0  0  0  0  0  0  0  0  0  0
    7.1891    0.0665   18.5696 C   0  0  0  0  0  0  0  0  0  0  0  0
    8.1173   -0.4378   18.3154 H   0  0  0  0  0  0  0  0  0  0  0  0
    4.9525    1.7969   16.9318 H   0  0  0  0  0  0  0  0  0  0  0  0
    3.8799    1.8325   19.1755 H   0  0  0  0  0  0  0  0  0  0  0  0
    5.0182    0.6916   21.1111 H   0  0  0  0  0  0  0  0  0  0  0  0
    9.4651   -0.1885   20.5091 H   0  0  0  0  0  0  0  0  0  0  0  0
    8.9058   -1.7540   19.9074 H   0  0  0  0  0  0  0  0  0  0  0  0
    9.3139   -1.5783   21.6077 H   0  0  0  0  0  0  0  0  0  0  0  0
  1  2  1  0
  2  3  1  0
  3  4  1  0
  3  5  1  0
  3  6  1  0
  2  7  1  0
  7  8  2  0
  7  9  1  0
  9 10  1  0
 10 11  1  0
 11 12  1  0
 12 13  1  0
 13 14  1  0
 14 15  2  0
 15 16  1  0
 16 17  2  0
 17 18  1  0
 18 19  2  0
 19 20  1  0
 18 21  1  0
 17 22  1  0
 16 23  1  0
 15 24  1  0
 12 25  1  0
 12 26  1  0
 11 27  1  0
 11 28  1  0
 10 29  1  0
 10 30  1  0
  9 31  1  0
  2 32  1  0
 32 33  2  0
 33 34  1  0
 34 35  2  0
 35 36  1  0
 36 37  2  0
 37 38  1  0
 35 39  1  0
 34 40  1  0
 33 41  1  0
  1 42  1  0
  1 43  1  0
  1 44  1  0
 19 14  1  0
 37 32  1  0
M  END
>  <plip>  (1) 
-0.10714285714285714

>  <filename>  (1) 
[H][c]1[n][c]([H])[c]([C]([C](=[O])[N]([H])[C]([H])([H])[C]([H])([H])[C]([H])([H])[S][c]2[c]([H])[c]([H])[c]([H])[c]([H])[c]2[H])([C]([H])([H])[H])[C]([H])([H])[H])[c]([H])[c]1[H]

$$$$
