
     RDKit          3D

 44 46  0  0  0  0  0  0  0  0999 V2000
    9.3307   -2.8399   21.4828 O   0  0  0  0  0  0  0  0  0  0  0  0
    9.7155   -1.7154   21.2196 C   0  0  0  0  0  0  0  0  0  0  0  0
   11.1411   -1.2115   21.4498 C   0  0  0  0  0  0  0  0  0  0  0  0
   11.1946   -0.1765   22.5445 C   0  0  0  0  0  0  0  0  0  0  0  0
   11.6155    1.1162   22.5411 C   0  0  0  0  0  0  0  0  0  0  0  0
   11.3909    1.7436   23.7397 O   0  0  0  0  0  0  0  0  0  0  0  0
   10.8046    0.8209   24.5470 C   0  0  0  0  0  0  0  0  0  0  0  0
   10.3467    1.0252   25.8506 C   0  0  0  0  0  0  0  0  0  0  0  0
    9.7581   -0.0583   26.4984 C   0  0  0  0  0  0  0  0  0  0  0  0
    9.5628   -1.2877   25.8312 C   0  0  0  0  0  0  0  0  0  0  0  0
   10.0023   -1.4617   24.5187 C   0  0  0  0  0  0  0  0  0  0  0  0
   10.6455   -0.3903   23.8670 C   0  0  0  0  0  0  0  0  0  0  0  0
    9.8649   -2.4063   23.9965 H   0  0  0  0  0  0  0  0  0  0  0  0
    9.0764   -2.1149   26.3451 H   0  0  0  0  0  0  0  0  0  0  0  0
    9.4264    0.0666   27.5288 H   0  0  0  0  0  0  0  0  0  0  0  0
   10.4108    2.0083   26.2896 H   0  0  0  0  0  0  0  0  0  0  0  0
   12.0645    1.7536   21.7920 H   0  0  0  0  0  0  0  0  0  0  0  0
   11.7417   -2.0837   21.7172 H   0  0  0  0  0  0  0  0  0  0  0  0
   11.5412   -0.8049   20.5178 H   0  0  0  0  0  0  0  0  0  0  0  0
    8.8895   -0.7561   20.6863 N   0  0  0  0  0  0  0  0  0  0  0  0
    7.4523   -0.8421   20.9144 C   0  0  0  0  0  0  0  0  0  0  0  0
    7.1219   -0.5423   22.3964 C   0  0  0  0  0  0  0  0  0  0  0  0
    7.4157    0.8795   22.9148 C   0  0  0  0  0  0  0  0  0  0  0  0
    7.0259    1.0759   24.3731 C   0  0  0  0  0  0  0  0  0  0  0  0
    5.6073    1.0435   24.4521 O   0  0  0  0  0  0  0  0  0  0  0  0
    5.3616    1.0139   25.3823 H   0  0  0  0  0  0  0  0  0  0  0  0
    7.4114    2.0420   24.7349 H   0  0  0  0  0  0  0  0  0  0  0  0
    7.4747    0.2969   25.0089 H   0  0  0  0  0  0  0  0  0  0  0  0
    6.8684    1.6243   22.3231 H   0  0  0  0  0  0  0  0  0  0  0  0
    8.4770    1.1266   22.8031 H   0  0  0  0  0  0  0  0  0  0  0  0
    7.6863   -1.2729   22.9980 H   0  0  0  0  0  0  0  0  0  0  0  0
    6.0662   -0.7700   22.5536 H   0  0  0  0  0  0  0  0  0  0  0  0
    6.7152   -0.0105   19.8791 C   0  0  0  0  0  0  0  0  0  0  0  0
    5.4944    0.6356   20.1252 C   0  0  0  0  0  0  0  0  0  0  0  0
    4.8493    1.2935   19.0742 C   0  0  0  0  0  0  0  0  0  0  0  0
    5.4434    1.3021   17.8095 C   0  0  0  0  0  0  0  0  0  0  0  0
    6.6017    0.6818   17.5417 N   0  0  0  0  0  0  0  0  0  0  0  0
    7.2048    0.0507   18.5583 C   0  0  0  0  0  0  0  0  0  0  0  0
    8.1340   -0.4543   18.3096 H   0  0  0  0  0  0  0  0  0  0  0  0
    4.9740    1.8324   16.9811 H   0  0  0  0  0  0  0  0  0  0  0  0
    3.9126    1.8151   19.2322 H   0  0  0  0  0  0  0  0  0  0  0  0
    5.0627    0.6501   21.1292 H   0  0  0  0  0  0  0  0  0  0  0  0
    7.1867   -1.8926   20.7370 H   0  0  0  0  0  0  0  0  0  0  0  0
    9.2520    0.1721   20.8316 H   0  0  0  0  0  0  0  0  0  0  0  0
  1  2  2  0
  2  3  1  0
  3  4  1  0
  4  5  2  0
  5  6  1  0
  6  7  1  0
  7  8  2  0
  8  9  1  0
  9 10  2  0
 10 11  1  0
 11 12  2  0
 11 13  1  0
 10 14  1  0
  9 15  1  0
  8 16  1  0
  5 17  1  0
  3 18  1  0
  3 19  1  0
  2 20  1  0
 20 21  1  0
 21 22  1  0
 22 23  1  0
 23 24  1  0
 24 25  1  0
 25 26  1  0
 24 27  1  0
 24 28  1  0
 23 29  1  0
 23 30  1  0
 22 31  1  0
 22 32  1  0
 21 33  1  0
 33 34  2  0
 34 35  1  0
 35 36  2  0
 36 37  1  0
 37 38  2  0
 38 39  1  0
 36 40  1  0
 35 41  1  0
 34 42  1  0
 21 43  1  0
 20 44  1  0
 12  4  1  0
 38 33  1  0
 12  7  1  0
M  END
>  <plip>  (1) 
-0.13793103448275862

>  <filename>  (1) 
[H][O][C]([H])([H])[C]([H])([H])[C]([H])([H])[C]([H])([c]1[c]([H])[n][c]([H])[c]([H])[c]1[H])[N]([H])[C](=[O])[C]([H])([H])[c]1[c]([H])[o][c]2[c]([H])[c]([H])[c]([H])[c]([H])[c]12

$$$$
