
     RDKit          3D

 36 37  0  0  0  0  0  0  0  0999 V2000
    7.2822   -2.7612   27.9195 H   0  0  0  0  0  0  0  0  0  0  0  0
    7.5930   -3.1405   27.0766 O   0  0  0  0  0  0  0  0  0  0  0  0
    7.9707   -1.9961   26.4944 C   0  0  0  0  0  0  0  0  0  0  0  0
    7.8152   -0.9610   27.1030 O   0  0  0  0  0  0  0  0  0  0  0  0
    8.5444   -2.0773   25.0593 C   0  0  0  0  0  0  0  0  0  0  0  0
    9.0605   -3.2270   24.6297 O   0  0  0  0  0  0  0  0  0  0  0  0
    9.3816   -3.0465   23.7013 H   0  0  0  0  0  0  0  0  0  0  0  0
    8.5138   -0.9830   24.2370 C   0  0  0  0  0  0  0  0  0  0  0  0
    8.1662   -0.0437   24.6284 H   0  0  0  0  0  0  0  0  0  0  0  0
    8.8292   -1.0423   22.8130 C   0  0  0  0  0  0  0  0  0  0  0  0
    9.4898   -1.9852   22.3667 O   0  0  0  0  0  0  0  0  0  0  0  0
    8.2708    0.0073   21.7777 C   0  0  2  0  0  0  0  0  0  0  0  0
    7.2166   -0.7343   20.8941 C   0  0  0  0  0  0  0  0  0  0  0  0
    6.4277   -1.1102   21.5613 H   0  0  0  0  0  0  0  0  0  0  0  0
    7.7130   -1.6167   20.4730 H   0  0  0  0  0  0  0  0  0  0  0  0
    6.5564    0.0362   19.7660 C   0  0  0  0  0  0  0  0  0  0  0  0
    7.0801    0.0326   18.4553 C   0  0  0  0  0  0  0  0  0  0  0  0
    7.9895   -0.5322   18.2289 H   0  0  0  0  0  0  0  0  0  0  0  0
    6.5356    0.6746   17.4124 N   0  0  0  0  0  0  0  0  0  0  0  0
    5.4057    1.3655   17.6272 C   0  0  0  0  0  0  0  0  0  0  0  0
    4.9936    1.8978   16.7700 H   0  0  0  0  0  0  0  0  0  0  0  0
    4.7680    1.4123   18.8689 C   0  0  0  0  0  0  0  0  0  0  0  0
    3.8499    1.9814   18.9773 H   0  0  0  0  0  0  0  0  0  0  0  0
    5.3463    0.7326   19.9447 C   0  0  0  0  0  0  0  0  0  0  0  0
    4.8598    0.7450   20.9224 H   0  0  0  0  0  0  0  0  0  0  0  0
    9.4829    0.5583   21.0027 C   0  0  0  0  0  0  0  0  0  0  0  0
    9.1283    1.0723   20.0919 H   0  0  0  0  0  0  0  0  0  0  0  0
   10.1893   -0.2251   20.7004 H   0  0  0  0  0  0  0  0  0  0  0  0
   10.0803    1.4638   21.9824 N   0  0  0  0  0  0  0  0  0  0  0  0
   10.7010    2.1528   21.5719 H   0  0  0  0  0  0  0  0  0  0  0  0
    9.0374    2.0796   22.8139 C   0  0  0  0  0  0  0  0  0  0  0  0
    9.2642    1.9106   23.8780 H   0  0  0  0  0  0  0  0  0  0  0  0
    8.9603    3.1720   22.6759 H   0  0  0  0  0  0  0  0  0  0  0  0
    7.7547    1.3427   22.3872 C   0  0  0  0  0  0  0  0  0  0  0  0
    7.2673    1.9359   21.5982 H   0  0  0  0  0  0  0  0  0  0  0  0
    7.0127    1.2204   23.1831 H   0  0  0  0  0  0  0  0  0  0  0  0
  1  2  1  0
  2  3  1  0
  3  4  2  0
  3  5  1  0
  5  6  1  0
  6  7  1  0
  5  8  2  3
  8  9  1  0
  8 10  1  0
 10 11  2  0
 10 12  1  0
 12 13  1  6
 13 14  1  0
 13 15  1  0
 13 16  1  0
 16 17  2  0
 17 18  1  0
 17 19  1  0
 19 20  2  0
 20 21  1  0
 20 22  1  0
 22 23  1  0
 22 24  2  0
 24 25  1  0
 12 26  1  0
 26 27  1  0
 26 28  1  0
 26 29  1  0
 29 30  1  0
 29 31  1  0
 31 32  1  0
 31 33  1  0
 31 34  1  0
 34 35  1  0
 34 36  1  0
 34 12  1  0
 24 16  1  0
M  END
>  <plip>  (1) 
-0.14285714285714285

>  <filename>  (1) 
[H][O][C](=[O])[C]([O][H])=[C]([H])[C](=[O])[C@]1([C]([H])([H])[c]2[c]([H])[n][c]([H])[c]([H])[c]2[H])[C]([H])([H])[N]([H])[C]([H])([H])[C]1([H])[H]

$$$$
