
     RDKit          3D

 33 35  0  0  0  0  0  0  0  0999 V2000
    4.9823    1.7721   16.9355 H   0  0  0  0  0  0  0  0  0  0  0  0
    5.4324    1.2813   17.8004 C   0  0  0  0  0  0  0  0  0  0  0  0
    6.5750    0.6156   17.5753 N   0  0  0  0  0  0  0  0  0  0  0  0
    7.1371    0.0034   18.6256 C   0  0  0  0  0  0  0  0  0  0  0  0
    8.0609   -0.5281   18.4005 H   0  0  0  0  0  0  0  0  0  0  0  0
    6.6392    0.0237   19.9388 C   0  0  0  0  0  0  0  0  0  0  0  0
    7.3525   -0.7792   21.0175 C   0  0  2  0  0  0  0  0  0  0  0  0
    8.3113   -1.0940   20.5815 H   0  0  0  0  0  0  0  0  0  0  0  0
    6.6039   -1.9919   21.3626 N   0  0  0  0  0  0  0  0  0  0  0  0
    6.2376   -2.3908   20.5028 H   0  0  0  0  0  0  0  0  0  0  0  0
    5.7859   -1.7052   21.8989 H   0  0  0  0  0  0  0  0  0  0  0  0
    7.6691   -0.0184   22.2953 C   0  0  1  0  0  0  0  0  0  0  0  0
    6.7736    0.1676   22.8947 H   0  0  0  0  0  0  0  0  0  0  0  0
    8.9205   -0.2926   23.0905 C   0  0  0  0  0  0  0  0  0  0  0  0
    9.6533   -1.0065   22.7178 H   0  0  0  0  0  0  0  0  0  0  0  0
    8.8349   -0.2889   24.1736 H   0  0  0  0  0  0  0  0  0  0  0  0
    8.7812    1.0049   22.3369 C   0  0  2  0  0  0  0  0  0  0  0  0
    9.3835    1.0461   21.4229 H   0  0  0  0  0  0  0  0  0  0  0  0
    8.6737    2.3578   22.9844 C   0  0  0  0  0  0  0  0  0  0  0  0
    7.9239    2.6693   24.1322 C   0  0  0  0  0  0  0  0  0  0  0  0
    7.4028    1.8851   24.6817 H   0  0  0  0  0  0  0  0  0  0  0  0
    7.8555    3.9873   24.6048 C   0  0  0  0  0  0  0  0  0  0  0  0
    7.2728    4.2141   25.4954 H   0  0  0  0  0  0  0  0  0  0  0  0
    8.5391    5.0158   23.9480 C   0  0  0  0  0  0  0  0  0  0  0  0
    8.4415    6.0408   24.2933 H   0  0  0  0  0  0  0  0  0  0  0  0
    9.3261    4.7104   22.8343 C   0  0  0  0  0  0  0  0  0  0  0  0
    9.8532    5.4989   22.3082 H   0  0  0  0  0  0  0  0  0  0  0  0
    9.3985    3.3950   22.3842 C   0  0  0  0  0  0  0  0  0  0  0  0
   10.0400    3.1429   21.5463 H   0  0  0  0  0  0  0  0  0  0  0  0
    5.4362    0.7110   20.1462 C   0  0  0  0  0  0  0  0  0  0  0  0
    4.9810    0.7470   21.1385 H   0  0  0  0  0  0  0  0  0  0  0  0
    4.8261    1.3460   19.0595 C   0  0  0  0  0  0  0  0  0  0  0  0
    3.8915    1.8840   19.1699 H   0  0  0  0  0  0  0  0  0  0  0  0
  1  2  1  0
  2  3  2  0
  3  4  1  0
  4  5  1  0
  4  6  2  0
  6  7  1  0
  7  8  1  6
  7  9  1  0
  9 10  1  0
  9 11  1  0
  7 12  1  0
 12 13  1  1
 12 14  1  0
 14 15  1  0
 14 16  1  0
 14 17  1  0
 17 18  1  6
 17 19  1  0
 19 20  2  0
 20 21  1  0
 20 22  1  0
 22 23  1  0
 22 24  2  0
 24 25  1  0
 24 26  1  0
 26 27  1  0
 26 28  2  0
 28 29  1  0
  6 30  1  0
 30 31  1  0
 30 32  2  0
 32 33  1  0
 32  2  1  0
 17 12  1  0
 28 19  1  0
M  END
>  <plip>  (1) 
-0.07142857142857142

>  <filename>  (1) 
[H][c]1[n][c]([H])[c]([C@]([H])([N]([H])[H])[C@@]2([H])[C]([H])([H])[C@]2([H])[c]2[c]([H])[c]([H])[c]([H])[c]([H])[c]2[H])[c]([H])[c]1[H]

$$$$
