
     RDKit          3D

 47 49  0  0  0  0  0  0  0  0999 V2000
    8.5201    2.3787   21.2412 C   0  0  0  0  0  0  0  0  0  0  0  0
    8.9031    1.0298   21.3888 O   0  0  0  0  0  0  0  0  0  0  0  0
    7.9757    0.2340   22.0950 C   0  0  0  0  0  0  0  0  0  0  0  0
    8.6487   -0.4585   23.0983 O   0  0  0  0  0  0  0  0  0  0  0  0
    9.1700    0.3811   24.1161 C   0  0  0  0  0  0  0  0  0  0  0  0
    8.3654    0.9184   24.6439 H   0  0  0  0  0  0  0  0  0  0  0  0
    9.8832    1.1147   23.7147 H   0  0  0  0  0  0  0  0  0  0  0  0
    9.6841   -0.2713   24.8247 H   0  0  0  0  0  0  0  0  0  0  0  0
    7.3064   -0.7642   21.1033 C   0  0  0  0  0  0  0  0  0  0  0  0
    6.3919   -1.7079   21.7559 N   0  0  0  0  0  0  0  0  0  0  0  0
    5.9609   -2.8329   21.1107 C   0  0  0  0  0  0  0  0  0  0  0  0
    6.2261   -3.0677   19.9420 O   0  0  0  0  0  0  0  0  0  0  0  0
    5.1490   -3.8258   21.8882 C   0  0  0  0  0  0  0  0  0  0  0  0
    4.8199   -5.1207   21.5959 C   0  0  0  0  0  0  0  0  0  0  0  0
    3.9799   -5.5777   22.6511 C   0  0  0  0  0  0  0  0  0  0  0  0
    3.8598   -4.5339   23.5216 C   0  0  0  0  0  0  0  0  0  0  0  0
    3.0703   -4.3824   25.0766 S   0  0  0  0  0  0  0  0  0  0  0  0
    4.4541   -4.9583   26.0572 C   0  0  0  0  0  0  0  0  0  0  0  0
    4.5524   -6.3234   26.3570 C   0  0  0  0  0  0  0  0  0  0  0  0
    5.6277   -6.8123   27.1100 C   0  0  0  0  0  0  0  0  0  0  0  0
    6.5818   -5.9105   27.5917 C   0  0  0  0  0  0  0  0  0  0  0  0
    7.8970   -6.4729   28.5826 Cl  0  0  0  0  0  0  0  0  0  0  0  0
    6.5120   -4.5479   27.2846 C   0  0  0  0  0  0  0  0  0  0  0  0
    5.4556   -4.0810   26.4944 C   0  0  0  0  0  0  0  0  0  0  0  0
    5.4140   -3.0406   26.1896 H   0  0  0  0  0  0  0  0  0  0  0  0
    7.2694   -3.8741   27.6711 H   0  0  0  0  0  0  0  0  0  0  0  0
    5.7539   -7.8753   27.3046 H   0  0  0  0  0  0  0  0  0  0  0  0
    3.7900   -7.0003   25.9807 H   0  0  0  0  0  0  0  0  0  0  0  0
    4.5816   -3.4787   23.0887 O   0  0  0  0  0  0  0  0  0  0  0  0
    3.4937   -6.5393   22.7580 H   0  0  0  0  0  0  0  0  0  0  0  0
    5.1214   -5.6779   20.7133 H   0  0  0  0  0  0  0  0  0  0  0  0
    6.1244   -1.5736   22.7220 H   0  0  0  0  0  0  0  0  0  0  0  0
    6.5993   -0.0468   19.9576 C   0  0  0  0  0  0  0  0  0  0  0  0
    5.3956    0.6469   20.1413 C   0  0  0  0  0  0  0  0  0  0  0  0
    4.8394    1.3380   19.0634 C   0  0  0  0  0  0  0  0  0  0  0  0
    5.4995    1.2960   17.8282 C   0  0  0  0  0  0  0  0  0  0  0  0
    6.6369    0.6190   17.6188 N   0  0  0  0  0  0  0  0  0  0  0  0
    7.1556   -0.0370   18.6709 C   0  0  0  0  0  0  0  0  0  0  0  0
    8.0727   -0.5964   18.4726 H   0  0  0  0  0  0  0  0  0  0  0  0
    5.0923    1.8264   16.9694 H   0  0  0  0  0  0  0  0  0  0  0  0
    3.9127    1.8925   19.1663 H   0  0  0  0  0  0  0  0  0  0  0  0
    4.8888    0.6175   21.1093 H   0  0  0  0  0  0  0  0  0  0  0  0
    8.1539   -1.3213   20.6861 H   0  0  0  0  0  0  0  0  0  0  0  0
    7.1823    0.8677   22.5431 H   0  0  0  0  0  0  0  0  0  0  0  0
    9.2890    2.8526   20.6340 H   0  0  0  0  0  0  0  0  0  0  0  0
    7.5453    2.4623   20.7412 H   0  0  0  0  0  0  0  0  0  0  0  0
    8.4644    2.9096   22.2054 H   0  0  0  0  0  0  0  0  0  0  0  0
  1  2  1  0
  2  3  1  0
  3  4  1  0
  4  5  1  0
  5  6  1  0
  5  7  1  0
  5  8  1  0
  3  9  1  0
  9 10  1  0
 10 11  1  0
 11 12  2  0
 11 13  1  0
 13 14  2  0
 14 15  1  0
 15 16  2  0
 16 17  1  0
 17 18  1  0
 18 19  2  0
 19 20  1  0
 20 21  2  0
 21 22  1  0
 21 23  1  0
 23 24  2  0
 24 25  1  0
 23 26  1  0
 20 27  1  0
 19 28  1  0
 16 29  1  0
 15 30  1  0
 14 31  1  0
 10 32  1  0
  9 33  1  0
 33 34  2  0
 34 35  1  0
 35 36  2  0
 36 37  1  0
 37 38  2  0
 38 39  1  0
 36 40  1  0
 35 41  1  0
 34 42  1  0
  9 43  1  0
  3 44  1  0
  1 45  1  0
  1 46  1  0
  1 47  1  0
 29 13  1  0
 38 33  1  0
 24 18  1  0
M  END
>  <plip>  (1) 
-0.2413793103448276

>  <filename>  (1) 
[H][c]1[n][c]([H])[c]([C]([H])([N]([H])[C](=[O])[c]2[o][c]([S][c]3[c]([H])[c]([H])[c]([Cl])[c]([H])[c]3[H])[c]([H])[c]2[H])[C]([H])([O][C]([H])([H])[H])[O][C]([H])([H])[H])[c]([H])[c]1[H]

$$$$
