
     RDKit          3D

 30 31  0  0  0  0  0  0  0  0999 V2000
    6.9868    0.4063   22.6058 O   0  0  0  0  0  0  0  0  0  0  0  0
    7.6130   -0.1609   21.4279 S   0  0  0  0  0  0  0  0  0  0  0  0
    9.0401   -0.1887   21.1976 O   0  0  0  0  0  0  0  0  0  0  0  0
    6.9832   -1.6932   21.3034 N   0  0  0  0  0  0  0  0  0  0  0  0
    7.4193   -2.7514   22.1231 C   0  0  0  0  0  0  0  0  0  0  0  0
    6.5512   -3.8367   22.0457 C   0  0  0  0  0  0  0  0  0  0  0  0
    6.8916   -5.0648   22.6068 C   0  0  0  0  0  0  0  0  0  0  0  0
    6.0848   -6.2566   22.1197 C   0  0  0  0  0  0  0  0  0  0  0  0
    4.7624   -6.0291   22.2285 F   0  0  0  0  0  0  0  0  0  0  0  0
    6.3133   -6.4443   20.8041 F   0  0  0  0  0  0  0  0  0  0  0  0
    6.3603   -7.4033   22.7484 F   0  0  0  0  0  0  0  0  0  0  0  0
    8.0390   -5.1395   23.4124 C   0  0  0  0  0  0  0  0  0  0  0  0
    8.8535   -4.0089   23.5352 C   0  0  0  0  0  0  0  0  0  0  0  0
    9.9529   -4.1159   24.3110 O   0  0  0  0  0  0  0  0  0  0  0  0
   10.4401   -3.2881   24.2343 H   0  0  0  0  0  0  0  0  0  0  0  0
    8.5894   -2.8144   22.8624 C   0  0  0  0  0  0  0  0  0  0  0  0
    9.2722   -1.9785   22.9353 H   0  0  0  0  0  0  0  0  0  0  0  0
    8.3263   -6.0291   23.9600 H   0  0  0  0  0  0  0  0  0  0  0  0
    5.6629   -3.7096   21.4405 H   0  0  0  0  0  0  0  0  0  0  0  0
    6.0403   -1.4433   21.5673 H   0  0  0  0  0  0  0  0  0  0  0  0
    6.7912    0.4151   20.0260 C   0  0  0  0  0  0  0  0  0  0  0  0
    5.5878    1.1192   20.1011 C   0  0  0  0  0  0  0  0  0  0  0  0
    4.9709    1.4126   18.8923 C   0  0  0  0  0  0  0  0  0  0  0  0
    5.5665    0.9746   17.7049 C   0  0  0  0  0  0  0  0  0  0  0  0
    6.7035    0.2624   17.6692 N   0  0  0  0  0  0  0  0  0  0  0  0
    7.3054   -0.0350   18.8194 C   0  0  0  0  0  0  0  0  0  0  0  0
    8.2094   -0.6407   18.7344 H   0  0  0  0  0  0  0  0  0  0  0  0
    5.1109    1.2109   16.7449 H   0  0  0  0  0  0  0  0  0  0  0  0
    4.0583    1.9956   18.8623 H   0  0  0  0  0  0  0  0  0  0  0  0
    5.1520    1.4177   21.0572 H   0  0  0  0  0  0  0  0  0  0  0  0
  1  2  2  0
  2  3  2  0
  2  4  1  0
  4  5  1  0
  5  6  2  0
  6  7  1  0
  7  8  1  0
  8  9  1  0
  8 10  1  0
  8 11  1  0
  7 12  2  0
 12 13  1  0
 13 14  1  0
 14 15  1  0
 13 16  2  0
 16 17  1  0
 12 18  1  0
  6 19  1  0
  4 20  1  0
  2 21  1  0
 21 22  2  0
 22 23  1  0
 23 24  2  0
 24 25  1  0
 25 26  2  0
 26 27  1  0
 24 28  1  0
 23 29  1  0
 22 30  1  0
 16  5  1  0
 26 21  1  0
M  END
>  <plip>  (1) 
-0.14285714285714285

>  <filename>  (1) 
[H][O][c]1[c]([H])[c]([N]([H])[S](=[O])(=[O])[c]2[c]([H])[n][c]([H])[c]([H])[c]2[H])[c]([H])[c]([C]([F])([F])[F])[c]1[H]

$$$$
