
     RDKit          3D

 39 40  0  0  0  0  0  0  0  0999 V2000
    9.1653    5.5266   23.3157 C   0  0  0  0  0  0  0  0  0  0  0  0
    8.2652    4.4351   23.2958 O   0  0  0  0  0  0  0  0  0  0  0  0
    7.0522    4.5856   22.6782 C   0  0  0  0  0  0  0  0  0  0  0  0
    6.6608    5.7634   22.0203 C   0  0  0  0  0  0  0  0  0  0  0  0
    5.3731    5.8907   21.4939 C   0  0  0  0  0  0  0  0  0  0  0  0
    4.4763    4.8269   21.5735 C   0  0  0  0  0  0  0  0  0  0  0  0
    4.8767    3.6311   22.1757 C   0  0  0  0  0  0  0  0  0  0  0  0
    6.1463    3.4881   22.7533 C   0  0  0  0  0  0  0  0  0  0  0  0
    6.4286    2.2787   23.4760 N   0  0  0  0  0  0  0  0  0  0  0  0
    5.4621    1.8026   24.4776 C   0  0  0  0  0  0  0  0  0  0  0  0
    5.9769    1.5382   25.4060 H   0  0  0  0  0  0  0  0  0  0  0  0
    4.7375    2.5951   24.6825 H   0  0  0  0  0  0  0  0  0  0  0  0
    4.9251    0.9122   24.1218 H   0  0  0  0  0  0  0  0  0  0  0  0
    7.5877    1.5338   23.3147 C   0  0  0  0  0  0  0  0  0  0  0  0
    7.9629    0.7472   24.1660 O   0  0  0  0  0  0  0  0  0  0  0  0
    8.3632    1.7247   22.0087 C   0  0  0  0  0  0  0  0  0  0  0  0
    9.0025    0.1966   21.2640 S   0  0  0  0  0  0  0  0  0  0  0  0
    7.4360   -0.6835   20.9542 C   0  0  0  0  0  0  0  0  0  0  0  0
    6.6168   -0.0276   19.8722 C   0  0  0  0  0  0  0  0  0  0  0  0
    5.4012    0.6199   20.1156 C   0  0  0  0  0  0  0  0  0  0  0  0
    4.7803    1.3076   19.0672 C   0  0  0  0  0  0  0  0  0  0  0  0
    5.3949    1.3243   17.8129 C   0  0  0  0  0  0  0  0  0  0  0  0
    6.5511    0.6933   17.5531 N   0  0  0  0  0  0  0  0  0  0  0  0
    7.1358    0.0492   18.5662 C   0  0  0  0  0  0  0  0  0  0  0  0
    8.0881   -0.4281   18.3392 H   0  0  0  0  0  0  0  0  0  0  0  0
    4.9475    1.8710   16.9844 H   0  0  0  0  0  0  0  0  0  0  0  0
    3.8542    1.8557   19.2106 H   0  0  0  0  0  0  0  0  0  0  0  0
    4.9531    0.6075   21.1125 H   0  0  0  0  0  0  0  0  0  0  0  0
    6.8879   -0.7609   21.9003 H   0  0  0  0  0  0  0  0  0  0  0  0
    7.7366   -1.7009   20.6786 H   0  0  0  0  0  0  0  0  0  0  0  0
    7.7406    2.2506   21.2783 H   0  0  0  0  0  0  0  0  0  0  0  0
    9.2234    2.3556   22.2362 H   0  0  0  0  0  0  0  0  0  0  0  0
    4.1974    2.7843   22.2134 H   0  0  0  0  0  0  0  0  0  0  0  0
    3.4829    4.9318   21.1419 H   0  0  0  0  0  0  0  0  0  0  0  0
    5.0833    6.8144   20.9950 H   0  0  0  0  0  0  0  0  0  0  0  0
    7.3724    6.5763   21.9149 H   0  0  0  0  0  0  0  0  0  0  0  0
    8.6867    6.4306   23.7146 H   0  0  0  0  0  0  0  0  0  0  0  0
    9.5518    5.7286   22.3095 H   0  0  0  0  0  0  0  0  0  0  0  0
    9.9894    5.2428   23.9702 H   0  0  0  0  0  0  0  0  0  0  0  0
  1  2  1  0
  2  3  1  0
  3  4  2  0
  4  5  1  0
  5  6  2  0
  6  7  1  0
  7  8  2  0
  8  9  1  0
  9 10  1  0
 10 11  1  0
 10 12  1  0
 10 13  1  0
  9 14  1  0
 14 15  2  0
 14 16  1  0
 16 17  1  0
 17 18  1  0
 18 19  1  0
 19 20  2  0
 20 21  1  0
 21 22  2  0
 22 23  1  0
 23 24  2  0
 24 25  1  0
 22 26  1  0
 21 27  1  0
 20 28  1  0
 18 29  1  0
 18 30  1  0
 16 31  1  0
 16 32  1  0
  7 33  1  0
  6 34  1  0
  5 35  1  0
  4 36  1  0
  1 37  1  0
  1 38  1  0
  1 39  1  0
  8  3  1  0
 24 19  1  0
M  END
>  <plip>  (1) 
-0.03571428571428571

>  <filename>  (1) 
[H][c]1[n][c]([H])[c]([C]([H])([H])[S][C]([H])([H])[C](=[O])[N]([c]2[c]([H])[c]([H])[c]([H])[c]([H])[c]2[O][C]([H])([H])[H])[C]([H])([H])[H])[c]([H])[c]1[H]

$$$$
