
     RDKit          3D

 21 22  0  0  0  0  0  0  0  0999 V2000
    6.8923    3.3754   23.0040 H   0  0  0  0  0  0  0  0  0  0  0  0
    7.1108    2.3537   22.7734 C   0  0  0  0  0  0  0  0  0  0  0  0
    7.3933    1.1978   22.5779 C   0  0  0  0  0  0  0  0  0  0  0  0
    7.7007   -0.1720   22.2414 C   0  0  0  0  0  0  0  0  0  0  0  0
    8.3563   -0.8841   23.1847 N   0  0  0  0  0  0  0  0  0  0  0  0
    8.6840   -2.1382   22.8600 C   0  0  0  0  0  0  0  0  0  0  0  0
    9.2085   -2.7135   23.6148 H   0  0  0  0  0  0  0  0  0  0  0  0
    8.3945   -2.6980   21.6024 C   0  0  0  0  0  0  0  0  0  0  0  0
    8.6841   -3.7178   21.3657 H   0  0  0  0  0  0  0  0  0  0  0  0
    7.7756   -1.9980   20.6395 N   0  0  0  0  0  0  0  0  0  0  0  0
    7.3914   -0.7424   20.9526 C   0  0  0  0  0  0  0  0  0  0  0  0
    6.6491   -0.0159   19.8944 C   0  0  0  0  0  0  0  0  0  0  0  0
    7.1632    0.0305   18.5890 C   0  0  0  0  0  0  0  0  0  0  0  0
    8.1169   -0.4409   18.3558 H   0  0  0  0  0  0  0  0  0  0  0  0
    6.5682    0.6740   17.5820 N   0  0  0  0  0  0  0  0  0  0  0  0
    5.4038    1.2892   17.8431 C   0  0  0  0  0  0  0  0  0  0  0  0
    4.9233    1.7818   16.9998 H   0  0  0  0  0  0  0  0  0  0  0  0
    4.8101    1.3042   19.1076 C   0  0  0  0  0  0  0  0  0  0  0  0
    3.8800    1.8394   19.2548 H   0  0  0  0  0  0  0  0  0  0  0  0
    5.4440    0.6488   20.1639 C   0  0  0  0  0  0  0  0  0  0  0  0
    5.0136    0.6454   21.1675 H   0  0  0  0  0  0  0  0  0  0  0  0
  1  2  1  0
  2  3  3  0
  3  4  1  0
  4  5  2  0
  5  6  1  0
  6  7  1  0
  6  8  2  0
  8  9  1  0
  8 10  1  0
 10 11  2  0
 11 12  1  0
 12 13  2  0
 13 14  1  0
 13 15  1  0
 15 16  2  0
 16 17  1  0
 16 18  1  0
 18 19  1  0
 18 20  2  0
 20 21  1  0
 11  4  1  0
 20 12  1  0
M  END
>  <plip>  (1) 
-0.034482758620689655

>  <filename>  (1) 
[H][C]#[C][c]1[n][c]([H])[c]([H])[n][c]1-[c]1[c]([H])[n][c]([H])[c]([H])[c]1[H]

$$$$
