
     RDKit          3D

 37 39  0  0  0  0  0  0  0  0999 V2000
    8.9324    0.4092   20.3220 H   0  0  0  0  0  0  0  0  0  0  0  0
    9.3883   -0.4021   20.0343 O   0  0  0  0  0  0  0  0  0  0  0  0
    8.2830   -1.2161   20.3326 C   0  0  1  0  0  0  0  0  0  0  0  0
    7.9724   -1.7743   19.4473 H   0  0  0  0  0  0  0  0  0  0  0  0
    8.5272   -2.1537   21.4927 C   0  0  0  0  0  0  0  0  0  0  0  0
    8.1605   -3.5140   21.4853 C   0  0  0  0  0  0  0  0  0  0  0  0
    7.6953   -3.9703   20.6170 H   0  0  0  0  0  0  0  0  0  0  0  0
    8.3698   -4.3117   22.6172 C   0  0  0  0  0  0  0  0  0  0  0  0
    8.1192   -5.3698   22.6005 H   0  0  0  0  0  0  0  0  0  0  0  0
    8.8768   -3.7440   23.7834 C   0  0  0  0  0  0  0  0  0  0  0  0
    8.9825   -4.3208   24.6997 H   0  0  0  0  0  0  0  0  0  0  0  0
    9.2282   -2.3774   23.8203 C   0  0  0  0  0  0  0  0  0  0  0  0
    9.5840   -1.7166   25.0728 C   0  0  0  0  0  0  0  0  0  0  0  0
    9.0115   -2.0279   26.3386 C   0  0  0  0  0  0  0  0  0  0  0  0
    7.9364   -2.1677   26.2654 H   0  0  0  0  0  0  0  0  0  0  0  0
    9.2972   -1.0552   27.5624 C   0  0  0  0  0  0  0  0  0  0  0  0
    8.5701   -1.9864   28.1046 H   0  0  0  0  0  0  0  0  0  0  0  0
    9.3797   -1.0806   27.6076 C   0  0  0  0  0  0  0  0  0  0  0  0
    9.4343    0.0261   28.2205 H   0  0  0  0  0  0  0  0  0  0  0  0
   10.4970    0.0360   26.3852 C   0  0  0  0  0  0  0  0  0  0  0  0
   11.0430    0.9660   26.6228 H   0  0  0  0  0  0  0  0  0  0  0  0
   10.4117   -0.5060   25.1586 C   0  0  0  0  0  0  0  0  0  0  0  0
   10.9097   -0.1515   24.2580 H   0  0  0  0  0  0  0  0  0  0  0  0
    9.1125   -1.6222   22.6414 C   0  0  0  0  0  0  0  0  0  0  0  0
    9.4569   -0.5870   22.6207 H   0  0  0  0  0  0  0  0  0  0  0  0
    7.2679   -0.2072   20.6356 N   0  0  0  0  0  0  0  0  0  0  0  0
    6.6131   -0.4905   21.3525 H   0  0  0  0  0  0  0  0  0  0  0  0
    6.5821    0.3826   19.5422 C   0  0  0  0  0  0  0  0  0  0  0  0
    7.1266    0.4860   18.2278 C   0  0  0  0  0  0  0  0  0  0  0  0
    8.1083    0.0621   18.0224 H   0  0  0  0  0  0  0  0  0  0  0  0
    6.5153    1.0849   17.1981 N   0  0  0  0  0  0  0  0  0  0  0  0
    5.3155    1.6384   17.4337 C   0  0  0  0  0  0  0  0  0  0  0  0
    4.8686    2.1699   16.5992 H   0  0  0  0  0  0  0  0  0  0  0  0
    4.6703    1.5644   18.6734 C   0  0  0  0  0  0  0  0  0  0  0  0
    3.6897    2.0137   18.7885 H   0  0  0  0  0  0  0  0  0  0  0  0
    5.3067    0.9287   19.7455 C   0  0  0  0  0  0  0  0  0  0  0  0
    4.8418    0.8656   20.7299 H   0  0  0  0  0  0  0  0  0  0  0  0
  1  2  1  0
  2  3  1  0
  3  4  1  6
  3  5  1  0
  5  6  2  0
  6  7  1  0
  6  8  1  0
  8  9  1  0
  8 10  2  0
 10 11  1  0
 10 12  1  0
 12 13  1  0
 13 14  2  0
 14 15  1  0
 14 16  1  0
 16 17  1  0
 16 18  2  0
 18 19  1  0
 18 20  1  0
 20 21  1  0
 20 22  2  0
 22 23  1  0
 12 24  2  0
 24 25  1  0
  3 26  1  0
 26 27  1  0
 26 28  1  0
 28 29  2  0
 29 30  1  0
 29 31  1  0
 31 32  2  0
 32 33  1  0
 32 34  1  0
 34 35  1  0
 34 36  2  0
 36 37  1  0
 24  5  1  0
 36 28  1  0
 22 13  1  0
M  END
>  <plip>  (1) 
-0.12903225806451613

>  <filename>  (1) 
[H][O][C@@]([H])([c]1[c]([H])[c]([H])[c]([H])[c](-[c]2[c]([H])[c]([H])[c]([H])[c]([H])[c]2[H])[c]1[H])[N]([H])[c]1[c]([H])[n][c]([H])[c]([H])[c]1[H]

$$$$
