
     RDKit          3D

 29 31  0  0  0  0  0  0  0  0999 V2000
    4.9067    1.8735   16.8940 H   0  0  0  0  0  0  0  0  0  0  0  0
    5.3735    1.3535   17.7285 C   0  0  0  0  0  0  0  0  0  0  0  0
    6.5281    0.7192   17.4667 N   0  0  0  0  0  0  0  0  0  0  0  0
    7.1393    0.1016   18.4840 C   0  0  0  0  0  0  0  0  0  0  0  0
    8.0676   -0.4089   18.2234 H   0  0  0  0  0  0  0  0  0  0  0  0
    6.6492    0.0755   19.7950 C   0  0  0  0  0  0  0  0  0  0  0  0
    7.3666   -0.6402   20.8677 C   0  0  0  0  0  0  0  0  0  0  0  0
    6.8230   -0.9993   22.0107 N   0  0  0  0  0  0  0  0  0  0  0  0
    7.8031   -1.6882   22.6650 C   0  0  0  0  0  0  0  0  0  0  0  0
    7.5385   -2.2122   24.0900 C   0  0  1  0  0  0  0  0  0  0  0  0
    6.4455   -2.2243   24.1569 H   0  0  0  0  0  0  0  0  0  0  0  0
    8.0471   -3.5120   24.5625 N   0  0  0  0  0  0  0  0  0  0  0  0
    7.9484   -4.2803   23.9060 H   0  0  0  0  0  0  0  0  0  0  0  0
    9.4117   -3.3590   25.0600 C   0  0  0  0  0  0  0  0  0  0  0  0
   10.1636   -3.5658   24.2810 H   0  0  0  0  0  0  0  0  0  0  0  0
    9.5866   -4.0648   25.8832 H   0  0  0  0  0  0  0  0  0  0  0  0
    9.4946   -1.8842   25.5022 C   0  0  0  0  0  0  0  0  0  0  0  0
    9.6727   -1.7680   26.5759 H   0  0  0  0  0  0  0  0  0  0  0  0
   10.3219   -1.4039   24.9714 H   0  0  0  0  0  0  0  0  0  0  0  0
    8.1339   -1.2629   25.1606 C   0  0  0  0  0  0  0  0  0  0  0  0
    8.2119   -0.2254   24.8103 H   0  0  0  0  0  0  0  0  0  0  0  0
    7.4896   -1.2603   26.0485 H   0  0  0  0  0  0  0  0  0  0  0  0
    8.9452   -1.7421   22.0046 N   0  0  0  0  0  0  0  0  0  0  0  0
    8.6483   -1.0801   20.8519 N   0  0  0  0  0  0  0  0  0  0  0  0
    9.3669   -0.9215   20.1622 H   0  0  0  0  0  0  0  0  0  0  0  0
    5.4179    0.7179   20.0419 C   0  0  0  0  0  0  0  0  0  0  0  0
    4.9817    0.7038   21.0405 H   0  0  0  0  0  0  0  0  0  0  0  0
    4.7731    1.3670   18.9905 C   0  0  0  0  0  0  0  0  0  0  0  0
    3.8281    1.8843   19.1364 H   0  0  0  0  0  0  0  0  0  0  0  0
  1  2  1  0
  2  3  2  0
  3  4  1  0
  4  5  1  0
  4  6  2  0
  6  7  1  0
  7  8  2  0
  8  9  1  0
  9 10  1  0
 10 11  1  1
 10 12  1  0
 12 13  1  0
 12 14  1  0
 14 15  1  0
 14 16  1  0
 14 17  1  0
 17 18  1  0
 17 19  1  0
 17 20  1  0
 20 21  1  0
 20 22  1  0
  9 23  2  0
 23 24  1  0
 24 25  1  0
  6 26  1  0
 26 27  1  0
 26 28  2  0
 28 29  1  0
 28  2  1  0
 24  7  1  0
 20 10  1  0
M  END
>  <plip>  (1) 
-0.03333333333333333

>  <filename>  (1) 
[H][c]1[n][c]([H])[c](-[c]2[n][c]([C@@]3([H])[N]([H])[C]([H])([H])[C]([H])([H])[C]3([H])[H])[n][n]2[H])[c]([H])[c]1[H]

$$$$
