
     RDKit          3D

 45 46  0  0  0  0  0  0  0  0999 V2000
    9.7898    1.0671   25.9724 C   0  0  0  0  0  0  0  0  0  0  0  0
    9.5944    0.7048   24.4813 C   0  0  0  0  0  0  0  0  0  0  0  0
    8.3584    1.4627   23.9232 C   0  0  0  0  0  0  0  0  0  0  0  0
    7.6681    0.6812   22.8469 N   0  0  0  0  0  4  0  0  0  0  0  0
    7.4019    1.3429   21.5259 C   0  0  0  0  0  0  0  0  0  0  0  0
    6.9616    0.2945   20.4704 C   0  0  0  0  0  0  0  0  0  0  0  0
    8.1302   -0.6631   20.1823 C   0  0  0  0  0  0  0  0  0  0  0  0
    8.3589   -1.3089   21.0360 H   0  0  0  0  0  0  0  0  0  0  0  0
    7.8691   -1.3328   19.3590 H   0  0  0  0  0  0  0  0  0  0  0  0
    9.0435   -0.1239   19.9053 H   0  0  0  0  0  0  0  0  0  0  0  0
    5.7676   -0.5483   20.9862 C   0  0  0  0  0  0  0  0  0  0  0  0
    5.4195   -1.2193   20.1916 H   0  0  0  0  0  0  0  0  0  0  0  0
    6.0312   -1.1797   21.8436 H   0  0  0  0  0  0  0  0  0  0  0  0
    4.9092    0.0724   21.2785 H   0  0  0  0  0  0  0  0  0  0  0  0
    6.4918    1.0274   19.2037 C   0  0  0  0  0  0  0  0  0  0  0  0
    5.4235    1.9389   19.2746 C   0  0  0  0  0  0  0  0  0  0  0  0
    4.9276    2.5108   18.1051 C   0  0  0  0  0  0  0  0  0  0  0  0
    5.5224    2.1832   16.8864 C   0  0  0  0  0  0  0  0  0  0  0  0
    6.5477    1.3311   16.7853 N   0  0  0  0  0  0  0  0  0  0  0  0
    7.0078    0.7814   17.9176 C   0  0  0  0  0  0  0  0  0  0  0  0
    7.8407    0.0949   17.7839 H   0  0  0  0  0  0  0  0  0  0  0  0
    5.1572    2.6187   15.9585 H   0  0  0  0  0  0  0  0  0  0  0  0
    4.1083    3.2199   18.1279 H   0  0  0  0  0  0  0  0  0  0  0  0
    4.9707    2.2075   20.2314 H   0  0  0  0  0  0  0  0  0  0  0  0
    6.6396    2.1183   21.6521 H   0  0  0  0  0  0  0  0  0  0  0  0
    8.3108    1.8519   21.1759 H   0  0  0  0  0  0  0  0  0  0  0  0
    6.7468    0.3240   23.2028 H   0  0  0  0  0  0  0  0  0  0  0  0
    8.2778   -0.1426   22.6445 H   0  0  0  0  0  0  0  0  0  0  0  0
    8.6541    2.4522   23.5587 H   0  0  0  0  0  0  0  0  0  0  0  0
    7.6528    1.6332   24.7407 H   0  0  0  0  0  0  0  0  0  0  0  0
   10.8299    0.8710   23.6340 C   0  0  0  0  0  0  0  0  0  0  0  0
   12.0015    0.0169   23.8480 C   0  0  0  0  0  0  0  0  0  0  0  0
   13.2316    0.2664   22.3977 C   0  0  0  0  0  0  0  0  0  0  0  0
   13.1859    0.5207   22.5879 C   0  0  0  0  0  0  0  0  0  0  0  0
   14.9059    1.4105   22.6062 F   0  0  0  0  0  0  0  0  0  0  0  0
   12.3581    1.6905   21.9023 C   0  0  0  0  0  0  0  0  0  0  0  0
   11.0878    1.8006   22.5617 C   0  0  0  0  0  0  0  0  0  0  0  0
   10.4035    2.5913   22.2745 H   0  0  0  0  0  0  0  0  0  0  0  0
   12.9430    2.6009   21.8844 H   0  0  0  0  0  0  0  0  0  0  0  0
   12.8979   -0.7205   22.0348 H   0  0  0  0  0  0  0  0  0  0  0  0
   12.3999    0.1946   24.9089 H   0  0  0  0  0  0  0  0  0  0  0  0
    9.3056   -0.3629   24.4710 H   0  0  0  0  0  0  0  0  0  0  0  0
   10.5381    0.4365   26.4658 H   0  0  0  0  0  0  0  0  0  0  0  0
    8.8602    0.9108   26.5300 H   0  0  0  0  0  0  0  0  0  0  0  0
   10.0687    2.1169   26.1146 H   0  0  0  0  0  0  0  0  0  0  0  0
  1  2  1  0
  2  3  1  0
  3  4  1  0
  4  5  1  0
  5  6  1  0
  6  7  1  0
  7  8  1  0
  7  9  1  0
  7 10  1  0
  6 11  1  0
 11 12  1  0
 11 13  1  0
 11 14  1  0
  6 15  1  0
 15 16  2  0
 16 17  1  0
 17 18  2  0
 18 19  1  0
 19 20  2  0
 20 21  1  0
 18 22  1  0
 17 23  1  0
 16 24  1  0
  5 25  1  0
  5 26  1  0
  4 27  1  0
  4 28  1  0
  3 29  1  0
  3 30  1  0
  2 31  1  0
 31 32  2  0
 32 33  1  0
 33 34  2  0
 34 35  1  0
 34 36  1  0
 36 37  2  0
 37 38  1  0
 36 39  1  0
 33 40  1  0
 32 41  1  0
  2 42  1  0
  1 43  1  0
  1 44  1  0
  1 45  1  0
 20 15  1  0
 37 31  1  0
M  CHG  1   4   1
M  END
>  <plip>  (1) 
-0.13793103448275862

>  <filename>  (1) 
[H][c]1[n][c]([H])[c]([C]([C]([H])([H])[H])([C]([H])([H])[H])[C]([H])([H])[N+]([H])([H])[C]([H])([H])[C]([H])([c]2[c]([H])[c]([H])[c]([F])[c]([H])[c]2[H])[C]([H])([H])[H])[c]([H])[c]1[H]

$$$$
