
     RDKit          3D

 39 41  0  0  0  0  0  0  0  0999 V2000
    4.9663    1.7809   16.9490 H   0  0  0  0  0  0  0  0  0  0  0  0
    5.4199    1.2963   17.8123 C   0  0  0  0  0  0  0  0  0  0  0  0
    6.5970    0.6887   17.6069 N   0  0  0  0  0  0  0  0  0  0  0  0
    7.1822    0.1129   18.6717 C   0  0  0  0  0  0  0  0  0  0  0  0
    8.1167   -0.3951   18.4326 H   0  0  0  0  0  0  0  0  0  0  0  0
    6.6460    0.0765   19.9719 C   0  0  0  0  0  0  0  0  0  0  0  0
    7.4283   -0.6191   21.1019 C   0  0  0  0  0  0  0  0  0  0  0  0
    8.5278    0.1956   21.6713 N   0  0  0  0  0  0  0  0  0  0  0  0
    8.1880    1.4316   22.2898 C   0  0  0  0  0  0  0  0  0  0  0  0
    8.2855    1.5725   23.6796 C   0  0  0  0  0  0  0  0  0  0  0  0
    8.6052    0.7093   24.2576 H   0  0  0  0  0  0  0  0  0  0  0  0
    7.9568    2.7873   24.2896 C   0  0  0  0  0  0  0  0  0  0  0  0
    8.0075    2.8878   25.3693 H   0  0  0  0  0  0  0  0  0  0  0  0
    7.5531    3.8757   23.5112 C   0  0  0  0  0  0  0  0  0  0  0  0
    7.2948    4.8260   23.9669 H   0  0  0  0  0  0  0  0  0  0  0  0
    7.4949    3.7474   22.1175 C   0  0  0  0  0  0  0  0  0  0  0  0
    7.1944    4.5865   21.5018 H   0  0  0  0  0  0  0  0  0  0  0  0
    7.8278    2.5352   21.5147 C   0  0  0  0  0  0  0  0  0  0  0  0
    7.7759    2.3916   20.4431 H   0  0  0  0  0  0  0  0  0  0  0  0
    9.8562    0.1218   21.0851 C   0  0  0  0  0  0  0  0  0  0  0  0
   10.4625    0.9834   21.3786 H   0  0  0  0  0  0  0  0  0  0  0  0
   10.3930   -0.7831   21.4145 H   0  0  0  0  0  0  0  0  0  0  0  0
    9.8076    0.0928   19.9900 H   0  0  0  0  0  0  0  0  0  0  0  0
    7.9750   -1.9763   20.6286 C   0  0  0  0  0  0  0  0  0  0  0  0
    7.1680   -2.4307   20.0468 H   0  0  0  0  0  0  0  0  0  0  0  0
    8.8499   -1.8483   19.9871 H   0  0  0  0  0  0  0  0  0  0  0  0
    8.2387   -2.8466   21.8709 C   0  0  0  0  0  0  0  0  0  0  0  0
    9.3000   -2.8611   22.1420 H   0  0  0  0  0  0  0  0  0  0  0  0
    7.9455   -3.8808   21.6613 H   0  0  0  0  0  0  0  0  0  0  0  0
    7.3806   -2.2050   22.9905 C   0  0  0  0  0  0  0  0  0  0  0  0
    8.0227   -1.7466   23.7526 H   0  0  0  0  0  0  0  0  0  0  0  0
    6.7464   -2.9287   23.5119 H   0  0  0  0  0  0  0  0  0  0  0  0
    6.5511   -1.1208   22.2704 C   0  0  0  0  0  0  0  0  0  0  0  0
    6.2129   -0.3126   22.9250 H   0  0  0  0  0  0  0  0  0  0  0  0
    5.6676   -1.5838   21.8240 H   0  0  0  0  0  0  0  0  0  0  0  0
    5.3905    0.6885   20.1460 C   0  0  0  0  0  0  0  0  0  0  0  0
    4.8955    0.6774   21.1201 H   0  0  0  0  0  0  0  0  0  0  0  0
    4.7832    1.3171   19.0549 C   0  0  0  0  0  0  0  0  0  0  0  0
    3.8250    1.8137   19.1611 H   0  0  0  0  0  0  0  0  0  0  0  0
  1  2  1  0
  2  3  2  0
  3  4  1  0
  4  5  1  0
  4  6  2  0
  6  7  1  0
  7  8  1  0
  8  9  1  0
  9 10  2  0
 10 11  1  0
 10 12  1  0
 12 13  1  0
 12 14  2  0
 14 15  1  0
 14 16  1  0
 16 17  1  0
 16 18  2  0
 18 19  1  0
  8 20  1  0
 20 21  1  0
 20 22  1  0
 20 23  1  0
  7 24  1  0
 24 25  1  0
 24 26  1  0
 24 27  1  0
 27 28  1  0
 27 29  1  0
 27 30  1  0
 30 31  1  0
 30 32  1  0
 30 33  1  0
 33 34  1  0
 33 35  1  0
  6 36  1  0
 36 37  1  0
 36 38  2  0
 38 39  1  0
 38  2  1  0
 33  7  1  0
 18  9  1  0
M  END
>  <plip>  (1) 
-0.03571428571428571

>  <filename>  (1) 
[H][c]1[n][c]([H])[c]([C]2([N]([c]3[c]([H])[c]([H])[c]([H])[c]([H])[c]3[H])[C]([H])([H])[H])[C]([H])([H])[C]([H])([H])[C]([H])([H])[C]2([H])[H])[c]([H])[c]1[H]

$$$$
