
     RDKit          3D

 39 40  0  0  0  0  0  0  0  0999 V2000
    7.4517   -2.9310   22.2744 C   0  0  0  0  0  0  0  0  0  0  0  0
    6.7152   -2.0566   21.2607 C   0  0  0  0  0  0  0  0  0  0  0  0
    7.4006   -0.7211   20.9881 C   0  0  0  0  0  0  0  0  0  0  0  0
    7.4186    0.0246   22.2290 O   0  0  0  0  0  0  0  0  0  0  0  0
    8.1445    1.1586   22.2668 C   0  0  0  0  0  0  0  0  0  0  0  0
    8.8220    1.5376   21.3329 O   0  0  0  0  0  0  0  0  0  0  0  0
    8.0352    1.9178   23.6213 C   0  0  0  0  0  0  0  0  0  0  0  0
    8.7668    3.1057   23.8167 C   0  0  0  0  0  0  0  0  0  0  0  0
    8.6700    3.7724   25.0432 C   0  0  0  0  0  0  0  0  0  0  0  0
    7.8488    3.2399   26.0388 C   0  0  0  0  0  0  0  0  0  0  0  0
    7.1453    2.0509   25.7749 C   0  0  0  0  0  0  0  0  0  0  0  0
    6.2227    1.4582   26.8875 C   0  0  0  0  0  0  0  0  0  0  0  0
    6.0996    2.0150   27.9715 O   0  0  0  0  0  0  0  0  0  0  0  0
    5.5555    0.3037   26.6071 N   0  0  0  0  0  0  0  0  0  0  0  0
    4.6790   -0.3166   27.5885 C   0  0  0  0  0  0  0  0  0  0  0  0
    4.2533   -1.2250   27.1567 H   0  0  0  0  0  0  0  0  0  0  0  0
    3.8665    0.3626   27.8788 H   0  0  0  0  0  0  0  0  0  0  0  0
    5.2278   -0.5727   28.5046 H   0  0  0  0  0  0  0  0  0  0  0  0
    5.7034   -0.0959   25.6887 H   0  0  0  0  0  0  0  0  0  0  0  0
    7.2429    1.4180   24.5908 N   0  0  0  0  0  0  0  0  0  0  0  0
    7.7326    3.7151   27.0076 H   0  0  0  0  0  0  0  0  0  0  0  0
    9.2226    4.6950   25.2207 H   0  0  0  0  0  0  0  0  0  0  0  0
    9.3932    3.4858   23.0155 H   0  0  0  0  0  0  0  0  0  0  0  0
    6.6732    0.0513   19.9108 C   0  0  0  0  0  0  0  0  0  0  0  0
    5.4424    0.6751   20.1539 C   0  0  0  0  0  0  0  0  0  0  0  0
    4.8001    1.3165   19.0950 C   0  0  0  0  0  0  0  0  0  0  0  0
    5.3954    1.2898   17.8274 C   0  0  0  0  0  0  0  0  0  0  0  0
    6.5563    0.6715   17.5700 N   0  0  0  0  0  0  0  0  0  0  0  0
    7.1718    0.0816   18.6063 C   0  0  0  0  0  0  0  0  0  0  0  0
    8.1192   -0.4071   18.3706 H   0  0  0  0  0  0  0  0  0  0  0  0
    4.9241    1.7882   16.9810 H   0  0  0  0  0  0  0  0  0  0  0  0
    3.8657    1.8438   19.2408 H   0  0  0  0  0  0  0  0  0  0  0  0
    5.0082    0.6501   21.1554 H   0  0  0  0  0  0  0  0  0  0  0  0
    8.4402   -0.8947   20.6787 H   0  0  0  0  0  0  0  0  0  0  0  0
    5.6815   -1.8651   21.5803 H   0  0  0  0  0  0  0  0  0  0  0  0
    6.6363   -2.5778   20.2989 H   0  0  0  0  0  0  0  0  0  0  0  0
    6.9472   -3.8945   22.4045 H   0  0  0  0  0  0  0  0  0  0  0  0
    7.5049   -2.4329   23.2480 H   0  0  0  0  0  0  0  0  0  0  0  0
    8.4792   -3.1309   21.9444 H   0  0  0  0  0  0  0  0  0  0  0  0
  1  2  1  0
  2  3  1  0
  3  4  1  0
  4  5  1  0
  5  6  2  0
  5  7  1  0
  7  8  2  0
  8  9  1  0
  9 10  2  0
 10 11  1  0
 11 12  1  0
 12 13  2  0
 12 14  1  0
 14 15  1  0
 15 16  1  0
 15 17  1  0
 15 18  1  0
 14 19  1  0
 11 20  2  0
 10 21  1  0
  9 22  1  0
  8 23  1  0
  3 24  1  0
 24 25  2  0
 25 26  1  0
 26 27  2  0
 27 28  1  0
 28 29  2  0
 29 30  1  0
 27 31  1  0
 26 32  1  0
 25 33  1  0
  3 34  1  0
  2 35  1  0
  2 36  1  0
  1 37  1  0
  1 38  1  0
  1 39  1  0
 20  7  1  0
 29 24  1  0
M  END
>  <plip>  (1) 
-0.14285714285714285

>  <filename>  (1) 
[H][c]1[n][c]([H])[c]([C]([H])([O][C](=[O])[c]2[n][c]([C](=[O])[N]([H])[C]([H])([H])[H])[c]([H])[c]([H])[c]2[H])[C]([H])([H])[C]([H])([H])[H])[c]([H])[c]1[H]

$$$$
