
     RDKit          3D

 25 26  0  0  0  0  0  0  0  0999 V2000
    4.9283    1.8057   16.9767 H   0  0  0  0  0  0  0  0  0  0  0  0
    5.3868    1.3004   17.8244 C   0  0  0  0  0  0  0  0  0  0  0  0
    6.5476    0.6742   17.5731 N   0  0  0  0  0  0  0  0  0  0  0  0
    7.1468    0.0646   18.6026 C   0  0  0  0  0  0  0  0  0  0  0  0
    8.0917   -0.4235   18.3554 H   0  0  0  0  0  0  0  0  0  0  0  0
    6.6411    0.0331   19.9190 C   0  0  0  0  0  0  0  0  0  0  0  0
    7.3763   -0.6690   21.0423 C   0  0  2  0  0  0  0  0  0  0  0  0
    6.8489   -0.4866   21.9898 H   0  0  0  0  0  0  0  0  0  0  0  0
    8.8700   -0.2621   21.2203 C   0  0  0  0  0  0  0  0  0  0  0  0
    9.0268    0.1671   22.2189 H   0  0  0  0  0  0  0  0  0  0  0  0
    9.1741    0.5097   20.5024 H   0  0  0  0  0  0  0  0  0  0  0  0
    9.6817   -1.4725   21.0618 N   0  0  0  0  0  0  0  0  0  0  0  0
   10.0706   -1.5237   20.1251 H   0  0  0  0  0  0  0  0  0  0  0  0
    8.8179   -2.6184   21.3051 C   0  0  0  0  0  0  0  0  0  0  0  0
    9.1966   -3.5037   20.7955 H   0  0  0  0  0  0  0  0  0  0  0  0
    8.7847   -2.8563   22.3760 H   0  0  0  0  0  0  0  0  0  0  0  0
    7.4351   -2.1941   20.7956 C   0  0  1  0  0  0  0  0  0  0  0  0
    7.2631   -2.4017   19.7386 H   0  0  0  0  0  0  0  0  0  0  0  0
    6.3012   -2.9287   21.4486 N   0  0  0  0  0  4  0  0  0  0  0  0
    5.4493   -3.3866   20.7057 O   0  0  0  0  0  0  0  0  0  0  0  0
    6.2850   -3.0201   22.6647 O   0  0  0  0  0  1  0  0  0  0  0  0
    5.4141    0.6677   20.1470 C   0  0  0  0  0  0  0  0  0  0  0  0
    4.9805    0.6468   21.1490 H   0  0  0  0  0  0  0  0  0  0  0  0
    4.7821    1.3186   19.0842 C   0  0  0  0  0  0  0  0  0  0  0  0
    3.8506    1.8569   19.2254 H   0  0  0  0  0  0  0  0  0  0  0  0
  1  2  1  0
  2  3  2  0
  3  4  1  0
  4  5  1  0
  4  6  2  0
  6  7  1  0
  7  8  1  1
  7  9  1  0
  9 10  1  0
  9 11  1  0
  9 12  1  0
 12 13  1  0
 12 14  1  0
 14 15  1  0
 14 16  1  0
 14 17  1  0
 17 18  1  6
 17 19  1  0
 19 20  2  0
 19 21  1  0
  6 22  1  0
 22 23  1  0
 22 24  2  0
 24 25  1  0
 24  2  1  0
 17  7  1  0
M  CHG  2  19   1  21  -1
M  END
>  <plip>  (1) 
-0.0

>  <filename>  (1) 
[H][c]1[n][c]([H])[c]([C@]2([H])[C]([H])([H])[N]([H])[C]([H])([H])[C@@]2([H])[N+](=[O])[O-])[c]([H])[c]1[H]

$$$$
