
     RDKit          3D

 31 32  0  0  0  0  0  0  0  0999 V2000
    7.2479    0.1950   24.0709 O   0  0  0  0  0  0  0  0  0  0  0  0
    8.3251   -0.3359   23.9274 C   0  0  0  0  0  0  0  0  0  0  0  0
    9.1715   -0.8805   25.0766 C   0  0  0  0  0  0  0  0  0  0  0  0
   10.0943    0.1397   25.7987 C   0  0  0  0  0  0  0  0  0  0  0  0
   11.1678    0.7031   24.9191 C   0  0  0  0  0  0  0  0  0  0  0  0
   11.1392    1.7403   24.0174 C   0  0  0  0  0  0  0  0  0  0  0  0
   12.3704    1.7028   23.4437 N   0  0  0  0  0  0  0  0  0  0  0  0
   13.1136    0.7169   23.9511 N   0  0  0  0  0  0  0  0  0  0  0  0
   12.3953    0.1167   24.8431 N   0  0  0  0  0  0  0  0  0  0  0  0
   12.7545    2.2227   22.6684 H   0  0  0  0  0  0  0  0  0  0  0  0
   10.3661    2.4455   23.7485 H   0  0  0  0  0  0  0  0  0  0  0  0
    9.5048    0.9541   26.2346 H   0  0  0  0  0  0  0  0  0  0  0  0
   10.5907   -0.3912   26.6193 H   0  0  0  0  0  0  0  0  0  0  0  0
    8.4730   -1.3069   25.8041 H   0  0  0  0  0  0  0  0  0  0  0  0
    9.7865   -1.7091   24.7069 H   0  0  0  0  0  0  0  0  0  0  0  0
    8.9127   -0.5943   22.6908 N   0  0  0  0  0  0  0  0  0  0  0  0
    8.4254    0.0489   21.5558 O   0  0  0  0  0  0  0  0  0  0  0  0
    7.3682   -0.7485   20.9763 C   0  0  0  0  0  0  0  0  0  0  0  0
    6.6656    0.0211   19.8965 C   0  0  0  0  0  0  0  0  0  0  0  0
    5.4483    0.6749   20.1271 C   0  0  0  0  0  0  0  0  0  0  0  0
    4.8306    1.3333   19.0644 C   0  0  0  0  0  0  0  0  0  0  0  0
    5.4505    1.3166   17.8108 C   0  0  0  0  0  0  0  0  0  0  0  0
    6.6186    0.6982   17.5691 N   0  0  0  0  0  0  0  0  0  0  0  0
    7.1993    0.0746   18.6009 C   0  0  0  0  0  0  0  0  0  0  0  0
    8.1378   -0.4367   18.3860 H   0  0  0  0  0  0  0  0  0  0  0  0
    4.9915    1.8201   16.9638 H   0  0  0  0  0  0  0  0  0  0  0  0
    3.8887    1.8544   19.1953 H   0  0  0  0  0  0  0  0  0  0  0  0
    4.9939    0.6579   21.1215 H   0  0  0  0  0  0  0  0  0  0  0  0
    7.8083   -1.6723   20.5731 H   0  0  0  0  0  0  0  0  0  0  0  0
    6.6524   -1.0083   21.7675 H   0  0  0  0  0  0  0  0  0  0  0  0
    9.9247   -0.5743   22.7083 H   0  0  0  0  0  0  0  0  0  0  0  0
  1  2  2  0
  2  3  1  0
  3  4  1  0
  4  5  1  0
  5  6  2  0
  6  7  1  0
  7  8  1  0
  8  9  2  0
  7 10  1  0
  6 11  1  0
  4 12  1  0
  4 13  1  0
  3 14  1  0
  3 15  1  0
  2 16  1  0
 16 17  1  0
 17 18  1  0
 18 19  1  0
 19 20  2  0
 20 21  1  0
 21 22  2  0
 22 23  1  0
 23 24  2  0
 24 25  1  0
 22 26  1  0
 21 27  1  0
 20 28  1  0
 18 29  1  0
 18 30  1  0
 16 31  1  0
  9  5  1  0
 24 19  1  0
M  END
>  <plip>  (1) 
-0.06896551724137931

>  <filename>  (1) 
[H][c]1[n][c]([H])[c]([C]([H])([H])[O][N]([H])[C](=[O])[C]([H])([H])[C]([H])([H])[c]2[n][n][n]([H])[c]2[H])[c]([H])[c]1[H]

$$$$
