
     RDKit          3D

 27 29  0  0  0  0  0  0  0  0999 V2000
    5.0283    1.8049   17.0000 H   0  0  0  0  0  0  0  0  0  0  0  0
    5.4483    1.2720   17.8496 C   0  0  0  0  0  0  0  0  0  0  0  0
    6.5968    0.6137   17.6299 N   0  0  0  0  0  0  0  0  0  0  0  0
    7.1438   -0.0215   18.6769 C   0  0  0  0  0  0  0  0  0  0  0  0
    8.0801   -0.5470   18.4966 H   0  0  0  0  0  0  0  0  0  0  0  0
    6.5822   -0.0620   19.9740 C   0  0  0  0  0  0  0  0  0  0  0  0
    7.2266   -0.8501   21.0581 C   0  0  0  0  0  0  0  0  0  0  0  0
    6.3790   -1.9175   22.0885 S   0  0  0  0  0  0  0  0  0  0  0  0
    7.7419   -2.2844   22.9939 N   0  0  0  0  0  0  0  0  0  0  0  0
    8.7810   -1.6801   22.5685 N   0  0  0  0  0  0  0  0  0  0  0  0
    8.5427   -0.8610   21.4943 C   0  0  0  0  0  0  0  0  0  0  0  0
    9.8689    0.1259   20.8441 S   0  0  0  0  0  0  0  0  0  0  0  0
    9.5642    1.6600   21.7146 C   0  0  0  0  0  0  0  0  0  0  0  0
    8.5771    2.5458   21.2589 C   0  0  0  0  0  0  0  0  0  0  0  0
    7.9689    2.3058   20.3937 H   0  0  0  0  0  0  0  0  0  0  0  0
    8.3451    3.7427   21.9400 C   0  0  0  0  0  0  0  0  0  0  0  0
    7.6051    4.4390   21.5535 H   0  0  0  0  0  0  0  0  0  0  0  0
    9.0743    4.0517   23.0890 C   0  0  0  0  0  0  0  0  0  0  0  0
    8.8968    4.9872   23.6128 H   0  0  0  0  0  0  0  0  0  0  0  0
   10.0530    3.1644   23.5471 C   0  0  0  0  0  0  0  0  0  0  0  0
   10.6231    3.4037   24.4395 H   0  0  0  0  0  0  0  0  0  0  0  0
   10.3129    1.9746   22.8592 C   0  0  0  0  0  0  0  0  0  0  0  0
   11.1022    1.3098   23.2086 H   0  0  0  0  0  0  0  0  0  0  0  0
    5.3732    0.6353   20.1747 C   0  0  0  0  0  0  0  0  0  0  0  0
    4.9205    0.6932   21.1667 H   0  0  0  0  0  0  0  0  0  0  0  0
    4.8030    1.3005   19.0888 C   0  0  0  0  0  0  0  0  0  0  0  0
    3.8858    1.8634   19.1980 H   0  0  0  0  0  0  0  0  0  0  0  0
  1  2  1  0
  2  3  2  0
  3  4  1  0
  4  5  1  0
  4  6  2  0
  6  7  1  0
  7  8  1  0
  8  9  1  0
  9 10  2  0
 10 11  1  0
 11 12  1  0
 12 13  1  0
 13 14  2  0
 14 15  1  0
 14 16  1  0
 16 17  1  0
 16 18  2  0
 18 19  1  0
 18 20  1  0
 20 21  1  0
 20 22  2  0
 22 23  1  0
  6 24  1  0
 24 25  1  0
 24 26  2  0
 26 27  1  0
 26  2  1  0
 11  7  2  0
 22 13  1  0
M  END
>  <plip>  (1) 
-0.03571428571428571

>  <filename>  (1) 
[H][c]1[n][c]([H])[c](-[c]2[s][n][n][c]2[S][c]2[c]([H])[c]([H])[c]([H])[c]([H])[c]2[H])[c]([H])[c]1[H]

$$$$
