
     RDKit          3D

 35 37  0  0  0  0  0  0  0  0999 V2000
    5.1621    1.7447   16.9469 H   0  0  0  0  0  0  0  0  0  0  0  0
    5.5429    1.2209   17.8179 C   0  0  0  0  0  0  0  0  0  0  0  0
    6.6804    0.5335   17.6374 N   0  0  0  0  0  0  0  0  0  0  0  0
    7.1883   -0.1067   18.6999 C   0  0  0  0  0  0  0  0  0  0  0  0
    8.1161   -0.6439   18.5209 H   0  0  0  0  0  0  0  0  0  0  0  0
    6.5857   -0.1109   19.9628 C   0  0  0  0  0  0  0  0  0  0  0  0
    7.3629   -0.7270   21.0992 C   0  0  0  0  0  0  0  0  0  0  0  0
    7.9180   -2.0212   20.7890 N   0  0  0  0  0  0  0  0  0  0  0  0
    8.8460   -1.9655   21.1889 H   0  0  0  0  0  0  0  0  0  0  0  0
    7.2367   -3.2544   21.1780 C   0  0  0  0  0  0  0  0  0  0  0  0
    7.7425   -4.0786   20.6594 H   0  0  0  0  0  0  0  0  0  0  0  0
    5.7420   -3.2601   20.8165 C   0  0  0  0  0  0  0  0  0  0  0  0
    5.5634   -3.5076   19.7643 H   0  0  0  0  0  0  0  0  0  0  0  0
    5.3961   -2.2398   20.9800 H   0  0  0  0  0  0  0  0  0  0  0  0
    5.0534   -4.1775   21.8395 C   0  0  0  0  0  0  0  0  0  0  0  0
    5.0522   -5.2267   21.5245 H   0  0  0  0  0  0  0  0  0  0  0  0
    4.0076   -3.8922   21.9948 H   0  0  0  0  0  0  0  0  0  0  0  0
    5.8694   -3.9962   23.1318 C   0  0  0  0  0  0  0  0  0  0  0  0
    5.8612   -4.9004   23.7488 H   0  0  0  0  0  0  0  0  0  0  0  0
    5.4051   -3.2095   23.7349 H   0  0  0  0  0  0  0  0  0  0  0  0
    7.2988   -3.5877   22.6943 C   0  0  0  0  0  0  0  0  0  0  0  0
    7.6632   -2.7316   23.2640 H   0  0  0  0  0  0  0  0  0  0  0  0
    8.0162   -4.3930   22.8728 H   0  0  0  0  0  0  0  0  0  0  0  0
    8.4846    0.1055   21.3404 O   0  0  0  0  0  0  0  0  0  0  0  0
    8.6616    0.2285   22.7435 C   0  0  0  0  0  0  0  0  0  0  0  0
    9.3737   -0.5255   23.1114 H   0  0  0  0  0  0  0  0  0  0  0  0
    9.0649    1.2193   22.9676 H   0  0  0  0  0  0  0  0  0  0  0  0
    7.2481    0.0191   23.2991 C   0  0  0  0  0  0  0  0  0  0  0  0
    7.2178   -0.5557   24.2322 H   0  0  0  0  0  0  0  0  0  0  0  0
    6.7074    0.9632   23.4387 H   0  0  0  0  0  0  0  0  0  0  0  0
    6.5941   -0.7334   22.2848 O   0  0  0  0  0  0  0  0  0  0  0  0
    5.3922    0.6077   20.1323 C   0  0  0  0  0  0  0  0  0  0  0  0
    4.9057    0.6330   21.1076 H   0  0  0  0  0  0  0  0  0  0  0  0
    4.8579    1.2842   19.0387 C   0  0  0  0  0  0  0  0  0  0  0  0
    3.9450    1.8683   19.1235 H   0  0  0  0  0  0  0  0  0  0  0  0
  1  2  1  0
  2  3  2  0
  3  4  1  0
  4  5  1  0
  4  6  2  0
  6  7  1  0
  7  8  1  0
  8  9  1  0
  8 10  1  0
 10 11  1  0
 10 12  1  0
 12 13  1  0
 12 14  1  0
 12 15  1  0
 15 16  1  0
 15 17  1  0
 15 18  1  0
 18 19  1  0
 18 20  1  0
 18 21  1  0
 21 22  1  0
 21 23  1  0
  7 24  1  0
 24 25  1  0
 25 26  1  0
 25 27  1  0
 25 28  1  0
 28 29  1  0
 28 30  1  0
 28 31  1  0
  6 32  1  0
 32 33  1  0
 32 34  2  0
 34 35  1  0
 34  2  1  0
 31  7  1  0
 21 10  1  0
M  END
>  <plip>  (1) 
-0.06451612903225806

>  <filename>  (1) 
[H][c]1[n][c]([H])[c]([C]2([N]([H])[C]3([H])[C]([H])([H])[C]([H])([H])[C]([H])([H])[C]3([H])[H])[O][C]([H])([H])[C]([H])([H])[O]2)[c]([H])[c]1[H]

$$$$
