
     RDKit          3D

 23 25  0  0  0  0  0  0  0  0999 V2000
    4.9516    1.7708   17.0049 H   0  0  0  0  0  0  0  0  0  0  0  0
    5.4206    1.2757   17.8548 C   0  0  0  0  0  0  0  0  0  0  0  0
    6.5804    0.6505   17.6173 N   0  0  0  0  0  0  0  0  0  0  0  0
    7.1849    0.0381   18.6434 C   0  0  0  0  0  0  0  0  0  0  0  0
    8.1284   -0.4339   18.3889 H   0  0  0  0  0  0  0  0  0  0  0  0
    6.6571   -0.0020   19.9477 C   0  0  0  0  0  0  0  0  0  0  0  0
    7.3775   -0.7132   21.0225 C   0  0  0  0  0  0  0  0  0  0  0  0
    8.5164   -1.3231   20.7927 N   0  0  0  0  0  0  0  0  0  0  0  0
    9.0354   -2.0161   22.2283 S   0  0  0  0  0  0  0  0  0  0  0  0
    7.6456   -1.4246   23.0629 C   0  0  0  0  0  0  0  0  0  0  0  0
    7.3981   -1.6492   24.4197 N   0  0  0  0  0  0  0  0  0  0  0  0
    8.2535   -2.3621   25.1971 N   0  0  0  0  0  0  0  0  0  0  0  0
    7.7018   -2.3608   26.3898 C   0  0  0  0  0  0  0  0  0  0  0  0
    8.1845   -2.8686   27.2161 H   0  0  0  0  0  0  0  0  0  0  0  0
    6.4702   -1.6440   26.4077 C   0  0  0  0  0  0  0  0  0  0  0  0
    5.8160   -1.4894   27.2531 H   0  0  0  0  0  0  0  0  0  0  0  0
    6.3061   -1.2010   25.1273 C   0  0  0  0  0  0  0  0  0  0  0  0
    5.5329   -0.6176   24.6406 H   0  0  0  0  0  0  0  0  0  0  0  0
    6.8479   -0.7454   22.2861 N   0  0  0  0  0  0  0  0  0  0  0  0
    5.4346    0.6482   20.1822 C   0  0  0  0  0  0  0  0  0  0  0  0
    4.9976    0.6378   21.1840 H   0  0  0  0  0  0  0  0  0  0  0  0
    4.8156    1.2989   19.1169 C   0  0  0  0  0  0  0  0  0  0  0  0
    3.8858    1.8340   19.2534 H   0  0  0  0  0  0  0  0  0  0  0  0
  1  2  1  0
  2  3  2  0
  3  4  1  0
  4  5  1  0
  4  6  2  0
  6  7  1  0
  7  8  2  0
  8  9  1  0
  9 10  1  0
 10 11  1  0
 11 12  1  0
 12 13  2  0
 13 14  1  0
 13 15  1  0
 15 16  1  0
 15 17  2  0
 17 18  1  0
 10 19  2  0
  6 20  1  0
 20 21  1  0
 20 22  2  0
 22 23  1  0
 22  2  1  0
 19  7  1  0
 17 11  1  0
M  END
>  <plip>  (1) 
-0.03571428571428571

>  <filename>  (1) 
[H][c]1[n][c]([H])[c](-[c]2[n][s][c](-[n]3[n][c]([H])[c]([H])[c]3[H])[n]2)[c]([H])[c]1[H]

$$$$
