
     RDKit          3D

 29 30  0  0  0  0  0  0  0  0999 V2000
    5.0406    1.8121   16.7173 H   0  0  0  0  0  0  0  0  0  0  0  0
    5.3747    1.3641   17.6515 C   0  0  0  0  0  0  0  0  0  0  0  0
    6.5517    0.7194   17.6025 N   0  0  0  0  0  0  0  0  0  0  0  0
    7.0074    0.1842   18.7327 C   0  0  0  0  0  0  0  0  0  0  0  0
    7.9701   -0.3199   18.7001 H   0  0  0  0  0  0  0  0  0  0  0  0
    6.3269    0.2419   19.9661 C   0  0  0  0  0  0  0  0  0  0  0  0
    6.9606   -0.3515   21.0893 N   0  0  0  0  0  0  0  0  0  0  0  0
    8.0432   -1.1325   20.8636 N   0  0  0  0  0  0  0  0  0  0  0  0
    8.5270   -1.4462   22.0474 C   0  0  0  0  0  0  0  0  0  0  0  0
    9.7727   -2.2580   22.1494 C   0  0  0  0  0  0  0  0  0  0  0  0
    9.8200   -2.7438   23.1290 H   0  0  0  0  0  0  0  0  0  0  0  0
    9.7254   -3.0223   21.3618 H   0  0  0  0  0  0  0  0  0  0  0  0
   11.0419   -1.4222   21.9630 C   0  0  0  0  0  0  0  0  0  0  0  0
   11.0048   -0.9304   20.9784 H   0  0  0  0  0  0  0  0  0  0  0  0
   11.0971   -0.6149   22.7060 H   0  0  0  0  0  0  0  0  0  0  0  0
   12.1969   -2.2793   22.1340 N   0  0  0  0  0  0  0  0  0  0  0  0
   11.9695   -3.2207   21.8332 H   0  0  0  0  0  0  0  0  0  0  0  0
   13.4178   -1.8700   21.4526 C   0  0  0  0  0  0  0  0  0  0  0  0
   14.2188   -2.5568   21.7509 H   0  0  0  0  0  0  0  0  0  0  0  0
   13.7135   -0.8617   21.7710 H   0  0  0  0  0  0  0  0  0  0  0  0
   13.3372   -1.8734   20.3482 H   0  0  0  0  0  0  0  0  0  0  0  0
    7.7509   -0.8719   23.0746 C   0  0  0  0  0  0  0  0  0  0  0  0
    7.9373   -0.9652   24.1334 H   0  0  0  0  0  0  0  0  0  0  0  0
    6.7646   -0.1632   22.4266 C   0  0  0  0  0  0  0  0  0  0  0  0
    5.9537    0.4451   22.8068 H   0  0  0  0  0  0  0  0  0  0  0  0
    5.0898    0.9009   20.0119 C   0  0  0  0  0  0  0  0  0  0  0  0
    4.5090    0.9779   20.9311 H   0  0  0  0  0  0  0  0  0  0  0  0
    4.6173    1.4724   18.8214 C   0  0  0  0  0  0  0  0  0  0  0  0
    3.6813    2.0178   18.7934 H   0  0  0  0  0  0  0  0  0  0  0  0
  1  2  1  0
  2  3  2  0
  3  4  1  0
  4  5  1  0
  4  6  2  0
  6  7  1  0
  7  8  1  0
  8  9  2  0
  9 10  1  0
 10 11  1  0
 10 12  1  0
 10 13  1  0
 13 14  1  0
 13 15  1  0
 13 16  1  0
 16 17  1  0
 16 18  1  0
 18 19  1  0
 18 20  1  0
 18 21  1  0
  9 22  1  0
 22 23  1  0
 22 24  2  0
 24 25  1  0
  6 26  1  0
 26 27  1  0
 26 28  2  0
 28 29  1  0
 28  2  1  0
 24  7  1  0
M  END
>  <plip>  (1) 
-0.0

>  <filename>  (1) 
[H][c]1[n][c]([H])[c](-[n]2[n][c]([C]([H])([H])[C]([H])([H])[N]([H])[C]([H])([H])[H])[c]([H])[c]2[H])[c]([H])[c]1[H]

$$$$
