
     RDKit          3D

 34 36  0  0  0  0  0  0  0  0999 V2000
    9.0511   -2.4068   23.9248 H   0  0  0  0  0  0  0  0  0  0  0  0
    8.5981   -1.8960   23.0893 C   0  0  0  0  0  0  0  0  0  0  0  0
    8.8502   -2.3552   21.8498 N   0  0  0  0  0  0  0  0  0  0  0  0
    8.2749   -1.6647   20.8525 C   0  0  0  0  0  0  0  0  0  0  0  0
    8.5388   -1.9385   19.8444 H   0  0  0  0  0  0  0  0  0  0  0  0
    7.3815   -0.5859   21.0631 C   0  0  0  0  0  0  0  0  0  0  0  0
    6.6395    0.0838   19.9585 C   0  0  0  0  0  0  0  0  0  0  0  0
    7.1647    0.0846   18.6574 C   0  0  0  0  0  0  0  0  0  0  0  0
    8.1227   -0.3971   18.4526 H   0  0  0  0  0  0  0  0  0  0  0  0
    6.5723    0.6631   17.6129 N   0  0  0  0  0  0  0  0  0  0  0  0
    5.4035    1.2836   17.8403 C   0  0  0  0  0  0  0  0  0  0  0  0
    4.9656    1.7828   16.9825 H   0  0  0  0  0  0  0  0  0  0  0  0
    4.7748    1.3252   19.0902 C   0  0  0  0  0  0  0  0  0  0  0  0
    3.8267    1.8464   19.1966 H   0  0  0  0  0  0  0  0  0  0  0  0
    5.4059    0.7238   20.1778 C   0  0  0  0  0  0  0  0  0  0  0  0
    4.9825    0.7455   21.1866 H   0  0  0  0  0  0  0  0  0  0  0  0
    7.1623   -0.1243   22.3069 N   0  0  0  0  0  0  0  0  0  0  0  0
    7.7979   -0.7558   23.3201 C   0  0  0  0  0  0  0  0  0  0  0  0
    7.6831   -0.2706   24.7548 C   0  0  0  0  0  0  0  0  0  0  0  0
    7.9820   -1.0058   25.6818 O   0  0  0  0  0  0  0  0  0  0  0  0
    7.1739    1.1185   24.9899 C   0  0  0  0  0  0  0  0  0  0  0  0
    7.4613    2.1823   24.1191 C   0  0  0  0  0  0  0  0  0  0  0  0
    8.0268    2.0052   23.2071 H   0  0  0  0  0  0  0  0  0  0  0  0
    6.9479    3.4510   24.3734 C   0  0  0  0  0  0  0  0  0  0  0  0
    7.1742    4.2593   23.6824 H   0  0  0  0  0  0  0  0  0  0  0  0
    6.1114    3.6898   25.4752 C   0  0  0  0  0  0  0  0  0  0  0  0
    5.5541    5.0688   25.7355 C   0  0  0  0  0  0  0  0  0  0  0  0
    5.4094    5.6264   24.8033 H   0  0  0  0  0  0  0  0  0  0  0  0
    6.2234    5.6644   26.3693 H   0  0  0  0  0  0  0  0  0  0  0  0
    4.5829    5.0214   26.2391 H   0  0  0  0  0  0  0  0  0  0  0  0
    5.8053    2.6090   26.3218 C   0  0  0  0  0  0  0  0  0  0  0  0
    5.1237    2.7597   27.1546 H   0  0  0  0  0  0  0  0  0  0  0  0
    6.3439    1.3447   26.0970 C   0  0  0  0  0  0  0  0  0  0  0  0
    6.1119    0.5078   26.7514 H   0  0  0  0  0  0  0  0  0  0  0  0
  1  2  1  0
  2  3  2  0
  3  4  1  0
  4  5  1  0
  4  6  2  0
  6  7  1  0
  7  8  2  0
  8  9  1  0
  8 10  1  0
 10 11  2  0
 11 12  1  0
 11 13  1  0
 13 14  1  0
 13 15  2  0
 15 16  1  0
  6 17  1  0
 17 18  2  0
 18 19  1  0
 19 20  2  0
 19 21  1  0
 21 22  2  0
 22 23  1  0
 22 24  1  0
 24 25  1  0
 24 26  2  0
 26 27  1  0
 27 28  1  0
 27 29  1  0
 27 30  1  0
 26 31  1  0
 31 32  1  0
 31 33  2  0
 33 34  1  0
 18  2  1  0
 33 21  1  0
 15  7  1  0
M  END
>  <plip>  (1) 
-0.0

>  <filename>  (1) 
[H][c]1[n][c]([H])[c](-[c]2[c]([H])[n][c]([H])[c]([H])[c]2[H])[n][c]1[C](=[O])[c]1[c]([H])[c]([H])[c]([C]([H])([H])[H])[c]([H])[c]1[H]

$$$$
