
     RDKit          3D

 32 34  0  0  0  0  0  0  0  0999 V2000
    7.3348    5.6048   21.5096 H   0  0  0  0  0  0  0  0  0  0  0  0
    7.9415    4.8687   21.3878 O   0  0  0  0  0  0  0  0  0  0  0  0
    7.5649    3.8581   22.2119 C   0  0  0  0  0  0  0  0  0  0  0  0
    6.8763    4.1342   23.3865 C   0  0  0  0  0  0  0  0  0  0  0  0
    6.6471    5.1479   23.7044 H   0  0  0  0  0  0  0  0  0  0  0  0
    6.5105    3.0710   24.2031 C   0  0  0  0  0  0  0  0  0  0  0  0
    5.8429    3.3759   25.3423 O   0  0  0  0  0  0  0  0  0  0  0  0
    5.6754    2.5462   25.8033 H   0  0  0  0  0  0  0  0  0  0  0  0
    6.8218    1.7551   23.8662 C   0  0  0  0  0  0  0  0  0  0  0  0
    6.5505    0.9293   24.5227 H   0  0  0  0  0  0  0  0  0  0  0  0
    7.4778    1.4678   22.6526 C   0  0  0  0  0  0  0  0  0  0  0  0
    7.7207    0.0157   22.2933 C   0  0  0  0  0  0  0  0  0  0  0  0
    8.3508   -0.6957   23.2507 N   0  0  0  0  0  0  0  0  0  0  0  0
    8.5928   -1.9896   23.0535 C   0  0  0  0  0  0  0  0  0  0  0  0
    9.1414   -2.4928   23.8506 H   0  0  0  0  0  0  0  0  0  0  0  0
    8.1545   -2.6824   21.9207 C   0  0  0  0  0  0  0  0  0  0  0  0
    8.3197   -3.7503   21.8434 H   0  0  0  0  0  0  0  0  0  0  0  0
    7.4912   -1.9670   20.9269 C   0  0  0  0  0  0  0  0  0  0  0  0
    7.0835   -2.4633   20.0448 H   0  0  0  0  0  0  0  0  0  0  0  0
    7.2942   -0.5818   21.0711 C   0  0  0  0  0  0  0  0  0  0  0  0
    6.6110    0.1392   19.9373 C   0  0  0  0  0  0  0  0  0  0  0  0
    7.1262    0.0977   18.6234 C   0  0  0  0  0  0  0  0  0  0  0  0
    8.0605   -0.4313   18.4210 H   0  0  0  0  0  0  0  0  0  0  0  0
    6.5602    0.6894   17.5657 N   0  0  0  0  0  0  0  0  0  0  0  0
    5.4005    1.3361   17.7767 C   0  0  0  0  0  0  0  0  0  0  0  0
    4.9517    1.8016   16.9021 H   0  0  0  0  0  0  0  0  0  0  0  0
    4.7783    1.4136   19.0257 C   0  0  0  0  0  0  0  0  0  0  0  0
    3.8322    1.9386   19.1213 H   0  0  0  0  0  0  0  0  0  0  0  0
    5.4018    0.8235   20.1280 C   0  0  0  0  0  0  0  0  0  0  0  0
    4.9758    0.8843   21.1318 H   0  0  0  0  0  0  0  0  0  0  0  0
    7.8851    2.5447   21.8440 C   0  0  0  0  0  0  0  0  0  0  0  0
    8.4721    2.4023   20.9425 H   0  0  0  0  0  0  0  0  0  0  0  0
  1  2  1  0
  2  3  1  0
  3  4  2  0
  4  5  1  0
  4  6  1  0
  6  7  1  0
  7  8  1  0
  6  9  2  0
  9 10  1  0
  9 11  1  0
 11 12  1  0
 12 13  2  0
 13 14  1  0
 14 15  1  0
 14 16  2  0
 16 17  1  0
 16 18  1  0
 18 19  1  0
 18 20  2  0
 20 21  1  0
 21 22  2  0
 22 23  1  0
 22 24  1  0
 24 25  2  0
 25 26  1  0
 25 27  1  0
 27 28  1  0
 27 29  2  0
 29 30  1  0
 11 31  2  0
 31 32  1  0
 31  3  1  0
 20 12  1  0
 29 21  1  0
M  END
>  <plip>  (1) 
-0.10714285714285714

>  <filename>  (1) 
[H][O][c]1[c]([H])[c]([O][H])[c]([H])[c](-[c]2[n][c]([H])[c]([H])[c]([H])[c]2-[c]2[c]([H])[n][c]([H])[c]([H])[c]2[H])[c]1[H]

$$$$
