
     RDKit          3D

 33 35  0  0  0  0  0  0  0  0999 V2000
    6.5406   -2.0941   21.3365 C   0  0  0  0  0  0  0  0  0  0  0  0
    6.5220   -0.5651   21.3769 C   0  0  0  0  0  0  0  0  0  0  0  0
    7.8600   -0.0579   21.6806 N   0  0  0  0  0  0  0  0  0  0  0  0
    8.0883    1.2743   21.8566 C   0  0  0  0  0  0  0  0  0  0  0  0
    7.2342    2.1282   21.6570 O   0  0  0  0  0  0  0  0  0  0  0  0
    9.4753    1.6856   22.2765 C   0  0  0  0  0  0  0  0  0  0  0  0
    9.9807    2.9410   22.4133 C   0  0  0  0  0  0  0  0  0  0  0  0
   11.3925    2.7986   22.6271 C   0  0  0  0  0  0  0  0  0  0  0  0
   12.5129    3.6401   22.7196 C   0  0  0  0  0  0  0  0  0  0  0  0
   13.7500    3.0190   22.8528 C   0  0  0  0  0  0  0  0  0  0  0  0
   13.8260    1.6122   22.9273 C   0  0  0  0  0  0  0  0  0  0  0  0
   12.7785    0.7864   22.8427 N   0  0  0  0  0  0  0  0  0  0  0  0
   11.6260    1.4078   22.6697 C   0  0  0  0  0  0  0  0  0  0  0  0
   10.4621    0.7382   22.4671 O   0  0  0  0  0  0  0  0  0  0  0  0
   14.7948    1.1294   23.0479 H   0  0  0  0  0  0  0  0  0  0  0  0
   14.6640    3.5955   22.8527 H   0  0  0  0  0  0  0  0  0  0  0  0
   12.4224    4.7258   22.6711 H   0  0  0  0  0  0  0  0  0  0  0  0
    9.4074    3.8627   22.3903 H   0  0  0  0  0  0  0  0  0  0  0  0
    8.5685   -0.6912   22.0176 H   0  0  0  0  0  0  0  0  0  0  0  0
    6.0310    0.0320   20.0690 C   0  0  0  0  0  0  0  0  0  0  0  0
    4.8451    0.7698   19.9651 C   0  0  0  0  0  0  0  0  0  0  0  0
    4.5445    1.4020   18.7542 C   0  0  0  0  0  0  0  0  0  0  0  0
    5.4161    1.2262   17.6749 C   0  0  0  0  0  0  0  0  0  0  0  0
    6.5248    0.4737   17.7328 N   0  0  0  0  0  0  0  0  0  0  0  0
    6.8160   -0.0910   18.9142 C   0  0  0  0  0  0  0  0  0  0  0  0
    7.7344   -0.6809   18.9389 H   0  0  0  0  0  0  0  0  0  0  0  0
    5.2152    1.7079   16.7188 H   0  0  0  0  0  0  0  0  0  0  0  0
    3.6780    2.0469   18.6466 H   0  0  0  0  0  0  0  0  0  0  0  0
    4.1797    0.8609   20.8270 H   0  0  0  0  0  0  0  0  0  0  0  0
    5.8286   -0.2236   22.1609 H   0  0  0  0  0  0  0  0  0  0  0  0
    6.8422   -2.4703   20.3528 H   0  0  0  0  0  0  0  0  0  0  0  0
    5.5447   -2.4932   21.5516 H   0  0  0  0  0  0  0  0  0  0  0  0
    7.2333   -2.5000   22.0811 H   0  0  0  0  0  0  0  0  0  0  0  0
  1  2  1  0
  2  3  1  0
  3  4  1  0
  4  5  2  0
  4  6  1  0
  6  7  2  0
  7  8  1  0
  8  9  2  0
  9 10  1  0
 10 11  2  0
 11 12  1  0
 12 13  2  0
 13 14  1  0
 11 15  1  0
 10 16  1  0
  9 17  1  0
  7 18  1  0
  3 19  1  0
  2 20  1  0
 20 21  2  0
 21 22  1  0
 22 23  2  0
 23 24  1  0
 24 25  2  0
 25 26  1  0
 23 27  1  0
 22 28  1  0
 21 29  1  0
  2 30  1  0
  1 31  1  0
  1 32  1  0
  1 33  1  0
 14  6  1  0
 25 20  1  0
 13  8  1  0
M  END
>  <plip>  (1) 
-0.07142857142857142

>  <filename>  (1) 
[H][c]1[n][c]([H])[c]([C]([H])([N]([H])[C](=[O])[c]2[o][c]3[n][c]([H])[c]([H])[c]([H])[c]3[c]2[H])[C]([H])([H])[H])[c]([H])[c]1[H]

$$$$
