
     RDKit          3D

 26 27  0  0  0  0  0  0  0  0999 V2000
   11.7024    3.1307   23.1498 H   0  0  0  0  0  0  0  0  0  0  0  0
   10.8336    3.0885   23.5710 O   0  0  0  0  0  0  0  0  0  0  0  0
   10.0816    2.1735   22.8953 C   0  0  0  0  0  0  0  0  0  0  0  0
    8.7754    1.9939   23.3499 C   0  0  0  0  0  0  0  0  0  0  0  0
    8.4499    2.5921   24.1899 H   0  0  0  0  0  0  0  0  0  0  0  0
    7.9262    1.0682   22.7478 C   0  0  0  0  0  0  0  0  0  0  0  0
    6.9089    0.9626   23.1190 H   0  0  0  0  0  0  0  0  0  0  0  0
    8.3643    0.2825   21.6815 C   0  0  0  0  0  0  0  0  0  0  0  0
    7.4141   -0.6929   21.0036 C   0  0  0  0  0  0  0  0  0  0  0  0
    6.7031   -1.1132   21.7302 H   0  0  0  0  0  0  0  0  0  0  0  0
    7.9731   -1.5476   20.6004 H   0  0  0  0  0  0  0  0  0  0  0  0
    6.6408   -0.0161   19.8911 C   0  0  0  0  0  0  0  0  0  0  0  0
    7.1610    0.0614   18.5897 C   0  0  0  0  0  0  0  0  0  0  0  0
    8.1136   -0.4225   18.3653 H   0  0  0  0  0  0  0  0  0  0  0  0
    6.5618    0.6868   17.5687 N   0  0  0  0  0  0  0  0  0  0  0  0
    5.3966    1.2979   17.8332 C   0  0  0  0  0  0  0  0  0  0  0  0
    4.9139    1.7868   16.9907 H   0  0  0  0  0  0  0  0  0  0  0  0
    4.8011    1.3152   19.0991 C   0  0  0  0  0  0  0  0  0  0  0  0
    3.8700    1.8479   19.2534 H   0  0  0  0  0  0  0  0  0  0  0  0
    5.4342    0.6458   20.1464 C   0  0  0  0  0  0  0  0  0  0  0  0
    5.0064    0.6351   21.1531 H   0  0  0  0  0  0  0  0  0  0  0  0
    9.6708    0.4828   21.1972 C   0  0  0  0  0  0  0  0  0  0  0  0
   10.0022   -0.1126   20.3463 H   0  0  0  0  0  0  0  0  0  0  0  0
   10.5361    1.4085   21.7877 C   0  0  0  0  0  0  0  0  0  0  0  0
   11.8268    1.6110   21.3571 O   0  0  0  0  0  0  0  0  0  0  0  0
   12.0030    1.0246   20.6124 H   0  0  0  0  0  0  0  0  0  0  0  0
  1  2  1  0
  2  3  1  0
  3  4  2  0
  4  5  1  0
  4  6  1  0
  6  7  1  0
  6  8  2  0
  8  9  1  0
  9 10  1  0
  9 11  1  0
  9 12  1  0
 12 13  2  0
 13 14  1  0
 13 15  1  0
 15 16  2  0
 16 17  1  0
 16 18  1  0
 18 19  1  0
 18 20  2  0
 20 21  1  0
  8 22  1  0
 22 23  1  0
 22 24  2  0
 24 25  1  0
 25 26  1  0
 24  3  1  0
 20 12  1  0
M  END
>  <plip>  (1) 
-0.07142857142857142

>  <filename>  (1) 
[H][O][c]1[c]([H])[c]([H])[c]([C]([H])([H])[c]2[c]([H])[n][c]([H])[c]([H])[c]2[H])[c]([H])[c]1[O][H]

$$$$
