
     RDKit          3D

 31 33  0  0  0  0  0  0  0  0999 V2000
    7.5402    0.6409   22.8606 O   0  0  0  0  0  0  0  0  0  0  0  0
    8.1201    0.3565   21.8350 C   0  0  0  0  0  0  0  0  0  0  0  0
    9.2571    0.9815   21.3819 N   0  0  0  0  0  0  0  0  0  0  0  0
    9.8006    2.1720   21.8968 C   0  0  0  0  0  0  0  0  0  0  0  0
    9.0211    3.0867   22.6378 C   0  0  0  0  0  0  0  0  0  0  0  0
    9.5778    4.2742   23.1060 C   0  0  0  0  0  0  0  0  0  0  0  0
   10.9191    4.5459   22.8057 C   0  0  0  0  0  0  0  0  0  0  0  0
   11.8827    5.9487   23.1646 S   0  0  0  0  0  0  0  0  0  0  0  0
   13.1227    5.3033   22.1088 C   0  0  0  0  0  0  0  0  0  0  0  0
   14.5387    6.2606   21.7219 S   0  0  0  0  0  0  0  0  0  0  0  0
   15.0042    5.2985   20.9159 H   0  0  0  0  0  0  0  0  0  0  0  0
   12.9249    4.1326   21.6175 N   0  0  0  0  0  0  0  0  0  0  0  0
   11.6798    3.6636   22.0020 C   0  0  0  0  0  0  0  0  0  0  0  0
   11.1247    2.4505   21.5797 C   0  0  0  0  0  0  0  0  0  0  0  0
   11.7213    1.7794   20.9728 H   0  0  0  0  0  0  0  0  0  0  0  0
    8.9502    4.9776   23.6546 H   0  0  0  0  0  0  0  0  0  0  0  0
    7.9814    2.8682   22.8251 H   0  0  0  0  0  0  0  0  0  0  0  0
    9.8715    0.4514   20.7838 H   0  0  0  0  0  0  0  0  0  0  0  0
    7.5607   -0.7206   20.8200 C   0  0  0  0  0  0  0  0  0  0  0  0
    6.8056   -1.6192   21.4978 F   0  0  0  0  0  0  0  0  0  0  0  0
    8.6207   -1.4215   20.2819 F   0  0  0  0  0  0  0  0  0  0  0  0
    6.7434   -0.0867   19.7177 C   0  0  0  0  0  0  0  0  0  0  0  0
    5.5878    0.6292   20.0580 C   0  0  0  0  0  0  0  0  0  0  0  0
    4.9176    1.3103   19.0465 C   0  0  0  0  0  0  0  0  0  0  0  0
    5.4266    1.2516   17.7459 C   0  0  0  0  0  0  0  0  0  0  0  0
    6.5198    0.5507   17.4047 N   0  0  0  0  0  0  0  0  0  0  0  0
    7.1624   -0.1008   18.3803 C   0  0  0  0  0  0  0  0  0  0  0  0
    8.0606   -0.6424   18.0896 H   0  0  0  0  0  0  0  0  0  0  0  0
    4.9349    1.8126   16.9547 H   0  0  0  0  0  0  0  0  0  0  0  0
    4.0426    1.9142   19.2613 H   0  0  0  0  0  0  0  0  0  0  0  0
    5.2370    0.6593   21.0906 H   0  0  0  0  0  0  0  0  0  0  0  0
  1  2  2  0
  2  3  1  0
  3  4  1  0
  4  5  2  0
  5  6  1  0
  6  7  2  0
  7  8  1  0
  8  9  1  0
  9 10  1  0
 10 11  1  0
  9 12  2  0
 12 13  1  0
 13 14  2  0
 14 15  1  0
  6 16  1  0
  5 17  1  0
  3 18  1  0
  2 19  1  0
 19 20  1  0
 19 21  1  0
 19 22  1  0
 22 23  2  0
 23 24  1  0
 24 25  2  0
 25 26  1  0
 26 27  2  0
 27 28  1  0
 25 29  1  0
 24 30  1  0
 23 31  1  0
 14  4  1  0
 27 22  1  0
 13  7  1  0
M  END
>  <plip>  (1) 
-0.13333333333333333

>  <filename>  (1) 
[H][S][c]1[n][c]2[c]([H])[c]([N]([H])[C](=[O])[C]([F])([F])[c]3[c]([H])[n][c]([H])[c]([H])[c]3[H])[c]([H])[c]([H])[c]2[s]1

$$$$
