
     RDKit          3D

 34 36  0  0  0  0  0  0  0  0999 V2000
    4.9121    1.8022   16.9762 H   0  0  0  0  0  0  0  0  0  0  0  0
    5.3863    1.3070   17.8183 C   0  0  0  0  0  0  0  0  0  0  0  0
    6.5501    0.6900   17.5502 N   0  0  0  0  0  0  0  0  0  0  0  0
    7.1551    0.0672   18.5699 C   0  0  0  0  0  0  0  0  0  0  0  0
    8.1112   -0.3968   18.3346 H   0  0  0  0  0  0  0  0  0  0  0  0
    6.6527    0.0085   19.8856 C   0  0  0  0  0  0  0  0  0  0  0  0
    7.3910   -0.6661   20.9668 C   0  0  0  0  0  0  0  0  0  0  0  0
    7.7459   -0.2174   22.2241 C   0  0  0  0  0  0  0  0  0  0  0  0
    7.5516    1.1686   22.7543 C   0  0  0  0  0  0  0  0  0  0  0  0
    6.5112    1.4966   22.6502 H   0  0  0  0  0  0  0  0  0  0  0  0
    7.7499    1.1858   23.8281 H   0  0  0  0  0  0  0  0  0  0  0  0
    8.4606    2.1885   22.0439 C   0  0  0  0  0  0  0  0  0  0  0  0
    8.2800    2.1214   20.9649 H   0  0  0  0  0  0  0  0  0  0  0  0
    9.5059    1.9017   22.1982 H   0  0  0  0  0  0  0  0  0  0  0  0
    8.2311    3.5929   22.5410 C   0  0  0  0  0  0  0  0  0  0  0  0
    7.2375    4.3981   21.9728 C   0  0  0  0  0  0  0  0  0  0  0  0
    6.6348    4.0082   21.1573 H   0  0  0  0  0  0  0  0  0  0  0  0
    6.9769    5.6770   22.4576 C   0  0  0  0  0  0  0  0  0  0  0  0
    6.2178    6.3040   22.0010 H   0  0  0  0  0  0  0  0  0  0  0  0
    7.7019    6.1672   23.5487 C   0  0  0  0  0  0  0  0  0  0  0  0
    7.3554    7.7644   24.1190 Cl  0  0  0  0  0  0  0  0  0  0  0  0
    8.6832    5.3597   24.1518 C   0  0  0  0  0  0  0  0  0  0  0  0
    9.6051    5.9056   25.5141 Cl  0  0  0  0  0  0  0  0  0  0  0  0
    8.9393    4.0814   23.6453 C   0  0  0  0  0  0  0  0  0  0  0  0
    9.6930    3.4739   24.1410 H   0  0  0  0  0  0  0  0  0  0  0  0
    8.4996   -1.2783   22.7770 C   0  0  0  0  0  0  0  0  0  0  0  0
    8.9945   -1.3009   23.7413 H   0  0  0  0  0  0  0  0  0  0  0  0
    8.6081   -2.3074   21.9471 N   0  0  0  0  0  0  0  0  0  0  0  0
    7.9353   -1.9029   20.8551 N   0  0  0  0  0  0  0  0  0  0  0  0
    7.8355   -2.5214   20.0632 H   0  0  0  0  0  0  0  0  0  0  0  0
    5.4376    0.6612   20.1403 C   0  0  0  0  0  0  0  0  0  0  0  0
    5.0166    0.6340   21.1503 H   0  0  0  0  0  0  0  0  0  0  0  0
    4.7974    1.3208   19.0879 C   0  0  0  0  0  0  0  0  0  0  0  0
    3.8667    1.8470   19.2453 H   0  0  0  0  0  0  0  0  0  0  0  0
  1  2  1  0
  2  3  2  0
  3  4  1  0
  4  5  1  0
  4  6  2  0
  6  7  1  0
  7  8  2  0
  8  9  1  0
  9 10  1  0
  9 11  1  0
  9 12  1  0
 12 13  1  0
 12 14  1  0
 12 15  1  0
 15 16  2  0
 16 17  1  0
 16 18  1  0
 18 19  1  0
 18 20  2  0
 20 21  1  0
 20 22  1  0
 22 23  1  0
 22 24  2  0
 24 25  1  0
  8 26  1  0
 26 27  1  0
 26 28  2  0
 28 29  1  0
 29 30  1  0
  6 31  1  0
 31 32  1  0
 31 33  2  0
 33 34  1  0
 33  2  1  0
 29  7  1  0
 24 15  1  0
M  END
>  <plip>  (1) 
-0.034482758620689655

>  <filename>  (1) 
[H][c]1[n][c]([H])[c](-[c]2[c]([C]([H])([H])[C]([H])([H])[c]3[c]([H])[c]([H])[c]([Cl])[c]([Cl])[c]3[H])[c]([H])[n][n]2[H])[c]([H])[c]1[H]

$$$$
