
     RDKit          3D

 36 38  0  0  0  0  0  0  0  0999 V2000
    5.0210    1.7988   17.0348 H   0  0  0  0  0  0  0  0  0  0  0  0
    5.4343    1.2693   17.8899 C   0  0  0  0  0  0  0  0  0  0  0  0
    6.5799    0.6095   17.6666 N   0  0  0  0  0  0  0  0  0  0  0  0
    7.1245   -0.0260   18.7049 C   0  0  0  0  0  0  0  0  0  0  0  0
    8.0472   -0.5621   18.4926 H   0  0  0  0  0  0  0  0  0  0  0  0
    6.5801   -0.0512   19.9994 C   0  0  0  0  0  0  0  0  0  0  0  0
    7.3693   -0.7031   21.0547 C   0  0  0  0  0  0  0  0  0  0  0  0
    6.6175   -1.1727   22.0986 O   0  0  0  0  0  0  0  0  0  0  0  0
    7.2145   -1.9605   23.0271 C   0  0  0  0  0  0  0  0  0  0  0  0
    6.2764   -2.5239   23.8420 N   0  0  0  0  0  0  0  0  0  0  0  0
    5.6193   -1.8276   24.1584 H   0  0  0  0  0  0  0  0  0  0  0  0
    6.5553   -3.5653   24.7309 C   0  0  0  0  0  0  0  0  0  0  0  0
    7.2528   -4.6776   24.2440 C   0  0  0  0  0  0  0  0  0  0  0  0
    7.5456   -4.6654   23.2005 H   0  0  0  0  0  0  0  0  0  0  0  0
    7.6043   -5.7307   25.0817 C   0  0  0  0  0  0  0  0  0  0  0  0
    8.2187   -6.5419   24.6995 H   0  0  0  0  0  0  0  0  0  0  0  0
    7.1843   -5.7103   26.4166 C   0  0  0  0  0  0  0  0  0  0  0  0
    7.4306   -6.5410   27.0706 H   0  0  0  0  0  0  0  0  0  0  0  0
    6.4568   -4.6275   26.9051 C   0  0  0  0  0  0  0  0  0  0  0  0
    6.1665   -4.6116   27.9574 H   0  0  0  0  0  0  0  0  0  0  0  0
    6.1383   -3.5254   26.0730 C   0  0  0  0  0  0  0  0  0  0  0  0
    5.4563   -2.3114   26.6094 C   0  0  0  0  0  0  0  0  0  0  0  0
    5.4763   -1.1908   26.1239 O   0  0  0  0  0  0  0  0  0  0  0  0
    4.7557   -2.5038   27.7717 N   0  0  0  0  0  0  0  0  0  0  0  0
    4.1940   -1.6820   27.9436 H   0  0  0  0  0  0  0  0  0  0  0  0
    4.2765   -3.3862   27.8033 H   0  0  0  0  0  0  0  0  0  0  0  0
    8.5506   -2.0801   23.1388 C   0  0  0  0  0  0  0  0  0  0  0  0
    9.0113   -2.6307   23.9418 H   0  0  0  0  0  0  0  0  0  0  0  0
    9.4129   -1.4840   22.1544 C   0  0  0  0  0  0  0  0  0  0  0  0
   10.6348   -1.5405   22.2058 O   0  0  0  0  0  0  0  0  0  0  0  0
    8.7138   -0.8174   21.0593 C   0  0  0  0  0  0  0  0  0  0  0  0
    9.3446   -0.3803   20.3042 H   0  0  0  0  0  0  0  0  0  0  0  0
    5.3489    0.6044   20.2067 C   0  0  0  0  0  0  0  0  0  0  0  0
    4.8622    0.5908   21.1834 H   0  0  0  0  0  0  0  0  0  0  0  0
    4.7800    1.2826   19.1288 C   0  0  0  0  0  0  0  0  0  0  0  0
    3.8537    1.8401   19.2297 H   0  0  0  0  0  0  0  0  0  0  0  0
  1  2  1  0
  2  3  2  0
  3  4  1  0
  4  5  1  0
  4  6  2  0
  6  7  1  0
  7  8  1  0
  8  9  1  0
  9 10  1  0
 10 11  1  0
 10 12  1  0
 12 13  2  0
 13 14  1  0
 13 15  1  0
 15 16  1  0
 15 17  2  0
 17 18  1  0
 17 19  1  0
 19 20  1  0
 19 21  2  0
 21 22  1  0
 22 23  2  0
 22 24  1  0
 24 25  1  0
 24 26  1  0
  9 27  2  0
 27 28  1  0
 27 29  1  0
 29 30  2  0
 29 31  1  0
 31 32  1  0
  6 33  1  0
 33 34  1  0
 33 35  2  0
 35 36  1  0
 35  2  1  0
 31  7  2  0
 21 12  1  0
M  END
>  <plip>  (1) 
-0.07142857142857142

>  <filename>  (1) 
[H][c]1[n][c]([H])[c](-[c]2[o][c]([N]([H])[c]3[c]([H])[c]([H])[c]([H])[c]([H])[c]3[C](=[O])[N]([H])[H])[c]([H])[c](=[O])[c]2[H])[c]([H])[c]1[H]

$$$$
