
     RDKit          3D

 36 38  0  0  0  0  0  0  0  0999 V2000
    9.0639    1.1851   21.4066 C   0  0  0  0  0  0  0  0  0  0  0  0
    8.0021    0.2620   22.0160 C   0  0  0  0  0  0  0  0  0  0  0  0
    7.3904   -0.7289   21.0145 C   0  0  0  0  0  0  0  0  0  0  0  0
    6.5859   -1.7098   21.7381 N   0  0  0  0  0  0  0  0  0  0  0  0
    6.0512   -2.7843   21.0889 C   0  0  0  0  0  0  0  0  0  0  0  0
    6.2701   -2.9869   19.9058 O   0  0  0  0  0  0  0  0  0  0  0  0
    5.2055   -3.7743   21.8868 C   0  0  0  0  0  0  0  0  0  0  0  0
    4.6101   -3.5305   23.0639 N   0  0  0  0  0  0  0  0  0  0  0  0
    3.8371   -4.5963   23.2858 N   0  0  0  0  0  0  0  0  0  0  0  0
    3.0738   -4.6664   24.3954 N   0  0  0  0  0  0  0  0  0  0  0  0
    2.3199   -5.7333   24.4875 C   0  0  0  0  0  0  0  0  0  0  0  0
    2.2281   -6.7562   23.4744 C   0  0  0  0  0  0  0  0  0  0  0  0
    3.0097   -6.6461   22.3523 C   0  0  0  0  0  0  0  0  0  0  0  0
    3.9173   -5.5429   22.2697 C   0  0  0  0  0  0  0  0  0  0  0  0
    4.8747   -5.0485   21.3859 C   0  0  0  0  0  0  0  0  0  0  0  0
    5.2580   -5.4920   20.4740 H   0  0  0  0  0  0  0  0  0  0  0  0
    2.9494   -7.3383   21.5213 H   0  0  0  0  0  0  0  0  0  0  0  0
    1.5287   -7.5772   23.6048 H   0  0  0  0  0  0  0  0  0  0  0  0
    1.7457   -5.8259   25.4035 H   0  0  0  0  0  0  0  0  0  0  0  0
    6.1390   -1.4538   22.6090 H   0  0  0  0  0  0  0  0  0  0  0  0
    6.6202   -0.0306   19.8993 C   0  0  0  0  0  0  0  0  0  0  0  0
    5.4120    0.6430   20.1326 C   0  0  0  0  0  0  0  0  0  0  0  0
    4.7940    1.3131   19.0757 C   0  0  0  0  0  0  0  0  0  0  0  0
    5.4075    1.2996   17.8186 C   0  0  0  0  0  0  0  0  0  0  0  0
    6.5640    0.6677   17.5702 N   0  0  0  0  0  0  0  0  0  0  0  0
    7.1396    0.0262   18.5978 C   0  0  0  0  0  0  0  0  0  0  0  0
    8.0916   -0.4552   18.3629 H   0  0  0  0  0  0  0  0  0  0  0  0
    4.9521    1.8187   16.9763 H   0  0  0  0  0  0  0  0  0  0  0  0
    3.8668    1.8592   19.2198 H   0  0  0  0  0  0  0  0  0  0  0  0
    4.9695    0.6512   21.1299 H   0  0  0  0  0  0  0  0  0  0  0  0
    8.2053   -1.2859   20.5335 H   0  0  0  0  0  0  0  0  0  0  0  0
    8.4260   -0.3199   22.8436 H   0  0  0  0  0  0  0  0  0  0  0  0
    7.1853    0.8640   22.4399 H   0  0  0  0  0  0  0  0  0  0  0  0
    9.8851    0.6138   20.9563 H   0  0  0  0  0  0  0  0  0  0  0  0
    8.6281    1.8156   20.6229 H   0  0  0  0  0  0  0  0  0  0  0  0
    9.5026    1.8490   22.1589 H   0  0  0  0  0  0  0  0  0  0  0  0
  1  2  1  0
  2  3  1  0
  3  4  1  0
  4  5  1  0
  5  6  2  0
  5  7  1  0
  7  8  2  0
  8  9  1  0
  9 10  1  0
 10 11  2  0
 11 12  1  0
 12 13  2  0
 13 14  1  0
 14 15  2  0
 15 16  1  0
 13 17  1  0
 12 18  1  0
 11 19  1  0
  4 20  1  0
  3 21  1  0
 21 22  2  0
 22 23  1  0
 23 24  2  0
 24 25  1  0
 25 26  2  0
 26 27  1  0
 24 28  1  0
 23 29  1  0
 22 30  1  0
  3 31  1  0
  2 32  1  0
  2 33  1  0
  1 34  1  0
  1 35  1  0
  1 36  1  0
 15  7  1  0
 26 21  1  0
 14  9  1  0
M  END
>  <plip>  (1) 
-0.10714285714285714

>  <filename>  (1) 
[H][c]1[n][c]([H])[c]([C]([H])([N]([H])[C](=[O])[c]2[n][n]3[n][c]([H])[c]([H])[c]([H])[c]3[c]2[H])[C]([H])([H])[C]([H])([H])[H])[c]([H])[c]1[H]

$$$$
