
     RDKit          3D

 52 54  0  0  0  0  0  0  0  0999 V2000
    5.3792    0.8607   26.7179 C   0  0  0  0  0  0  0  0  0  0  0  0
    6.1606    1.2698   25.4843 C   0  0  0  0  0  0  0  0  0  0  0  0
    5.8098    2.6908   24.9804 C   0  0  0  0  0  0  0  0  0  0  0  0
    4.4062    2.8674   24.4471 C   0  0  0  0  0  0  0  0  0  0  0  0
    4.1462    2.8395   23.0685 C   0  0  0  0  0  0  0  0  0  0  0  0
    2.8469    2.9782   22.5736 C   0  0  0  0  0  0  0  0  0  0  0  0
    1.7918    3.1436   23.4725 C   0  0  0  0  0  0  0  0  0  0  0  0
    0.1696    3.3137   22.8716 Cl  0  0  0  0  0  0  0  0  0  0  0  0
    2.0176    3.1802   24.8496 C   0  0  0  0  0  0  0  0  0  0  0  0
    3.3241    3.0427   25.3239 C   0  0  0  0  0  0  0  0  0  0  0  0
    3.5084    3.0860   26.3959 H   0  0  0  0  0  0  0  0  0  0  0  0
    1.1865    3.3267   25.5325 H   0  0  0  0  0  0  0  0  0  0  0  0
    2.6462    2.9763   21.5059 H   0  0  0  0  0  0  0  0  0  0  0  0
    4.9739    2.7310   22.3705 H   0  0  0  0  0  0  0  0  0  0  0  0
    5.9761    3.3772   25.8197 H   0  0  0  0  0  0  0  0  0  0  0  0
    6.5401    2.9665   24.2131 H   0  0  0  0  0  0  0  0  0  0  0  0
    5.9632    0.2338   24.4311 N   0  0  0  0  0  4  0  0  0  0  0  0
    6.8848    0.3160   23.2928 C   0  0  0  0  0  0  0  0  0  0  0  0
    6.7706   -0.8784   22.3631 C   0  0  2  0  0  0  0  0  0  0  0  0
    7.3628   -2.1849   22.9069 C   0  0  0  0  0  0  0  0  0  0  0  0
    7.6244   -3.0219   21.6573 C   0  0  0  0  0  0  0  0  0  0  0  0
    8.0314   -1.9940   20.6036 N   0  0  0  0  0  4  0  0  0  0  0  0
    9.5140   -1.9694   20.4345 C   0  0  0  0  0  0  0  0  0  0  0  0
   10.0199   -1.7475   21.3797 H   0  0  0  0  0  0  0  0  0  0  0  0
    9.9083   -2.9304   20.0920 H   0  0  0  0  0  0  0  0  0  0  0  0
    9.8084   -1.1904   19.7219 H   0  0  0  0  0  0  0  0  0  0  0  0
    7.4882   -0.6184   21.0324 C   0  0  1  0  0  0  0  0  0  0  0  0
    6.6483    0.0010   19.9336 C   0  0  0  0  0  0  0  0  0  0  0  0
    5.4293    0.6584   20.1620 C   0  0  0  0  0  0  0  0  0  0  0  0
    4.8062    1.3123   19.0990 C   0  0  0  0  0  0  0  0  0  0  0  0
    5.4057    1.2918   17.8367 C   0  0  0  0  0  0  0  0  0  0  0  0
    6.5656    0.6687   17.5914 N   0  0  0  0  0  0  0  0  0  0  0  0
    7.1545    0.0422   18.6191 C   0  0  0  0  0  0  0  0  0  0  0  0
    8.1038   -0.4305   18.3729 H   0  0  0  0  0  0  0  0  0  0  0  0
    4.9263    1.7855   16.9925 H   0  0  0  0  0  0  0  0  0  0  0  0
    3.8726    1.8427   19.2376 H   0  0  0  0  0  0  0  0  0  0  0  0
    4.9698    0.6498   21.1547 H   0  0  0  0  0  0  0  0  0  0  0  0
    8.3677    0.0110   21.1941 H   0  0  0  0  0  0  0  0  0  0  0  0
    7.5550   -2.1858   19.6973 H   0  0  0  0  0  0  0  0  0  0  0  0
    8.4245   -3.7575   21.7827 H   0  0  0  0  0  0  0  0  0  0  0  0
    6.7217   -3.5381   21.3185 H   0  0  0  0  0  0  0  0  0  0  0  0
    8.3048   -1.9809   23.4348 H   0  0  0  0  0  0  0  0  0  0  0  0
    6.6932   -2.7058   23.5977 H   0  0  0  0  0  0  0  0  0  0  0  0
    5.7461   -1.0750   22.0609 H   0  0  0  0  0  0  0  0  0  0  0  0
    6.7412    1.2547   22.7399 H   0  0  0  0  0  0  0  0  0  0  0  0
    7.9239    0.3556   23.6545 H   0  0  0  0  0  0  0  0  0  0  0  0
    6.0273   -0.7178   24.8619 H   0  0  0  0  0  0  0  0  0  0  0  0
    4.9692    0.2974   24.0920 H   0  0  0  0  0  0  0  0  0  0  0  0
    7.2302    1.2843   25.7383 H   0  0  0  0  0  0  0  0  0  0  0  0
    5.7781   -0.0590   27.1570 H   0  0  0  0  0  0  0  0  0  0  0  0
    4.3152    0.7200   26.5024 H   0  0  0  0  0  0  0  0  0  0  0  0
    5.4591    1.6390   27.4843 H   0  0  0  0  0  0  0  0  0  0  0  0
  1  2  1  0
  2  3  1  0
  3  4  1  0
  4  5  2  0
  5  6  1  0
  6  7  2  0
  7  8  1  0
  7  9  1  0
  9 10  2  0
 10 11  1  0
  9 12  1  0
  6 13  1  0
  5 14  1  0
  3 15  1  0
  3 16  1  0
  2 17  1  0
 17 18  1  0
 18 19  1  0
 19 20  1  0
 20 21  1  0
 21 22  1  0
 22 23  1  0
 23 24  1  0
 23 25  1  0
 23 26  1  0
 22 27  1  0
 27 28  1  0
 28 29  2  0
 29 30  1  0
 30 31  2  0
 31 32  1  0
 32 33  2  0
 33 34  1  0
 31 35  1  0
 30 36  1  0
 29 37  1  0
 27 38  1  1
 22 39  1  0
 21 40  1  0
 21 41  1  0
 20 42  1  0
 20 43  1  0
 19 44  1  6
 18 45  1  0
 18 46  1  0
 17 47  1  0
 17 48  1  0
  2 49  1  0
  1 50  1  0
  1 51  1  0
  1 52  1  0
 10  4  1  0
 27 19  1  0
 33 28  1  0
M  CHG  2  17   1  22   1
M  END
>  <plip>  (1) 
-0.10344827586206896

>  <filename>  (1) 
[H][c]1[n][c]([H])[c]([C@@]2([H])[C@]([H])([C]([H])([H])[N+]([H])([H])[C]([H])([C]([H])([H])[H])[C]([H])([H])[c]3[c]([H])[c]([H])[c]([Cl])[c]([H])[c]3[H])[C]([H])([H])[C]([H])([H])[N+]2([H])[C]([H])([H])[H])[c]([H])[c]1[H]

$$$$
