
     RDKit          3D

 30 31  0  0  0  0  0  0  0  0999 V2000
    8.4463   -1.6330   23.4472 C   0  0  0  0  0  0  0  0  0  0  0  0
    8.5360   -0.2120   23.1058 N   0  0  0  0  0  0  0  0  0  0  0  0
    9.2392    0.6713   24.0641 C   0  0  0  0  0  0  0  0  0  0  0  0
   10.7324    0.8007   23.8417 C   0  0  0  0  0  0  0  0  0  0  0  0
   11.6753    0.3191   24.6104 N   0  0  0  0  0  0  0  0  0  0  0  0
   12.8843    0.6126   24.0252 N   0  0  0  0  0  0  0  0  0  0  0  0
   12.6359    1.2778   22.9295 C   0  0  0  0  0  0  0  0  0  0  0  0
   11.2965    1.4370   22.7760 N   0  0  0  0  0  0  0  0  0  0  0  0
   10.7745    1.8925   22.0396 H   0  0  0  0  0  0  0  0  0  0  0  0
   13.3828    1.6202   22.2274 H   0  0  0  0  0  0  0  0  0  0  0  0
    9.0857    0.2815   25.0781 H   0  0  0  0  0  0  0  0  0  0  0  0
    8.7807    1.6677   24.0173 H   0  0  0  0  0  0  0  0  0  0  0  0
    8.2821    0.2632   21.8295 C   0  0  0  0  0  0  0  0  0  0  0  0
    8.7817    1.3119   21.4312 O   0  0  0  0  0  0  0  0  0  0  0  0
    7.4060   -0.6419   20.9335 C   0  0  0  0  0  0  0  0  0  0  0  0
    6.6503    0.0224   19.7928 C   0  0  0  0  0  0  0  0  0  0  0  0
    5.4530    0.7148   20.0206 C   0  0  0  0  0  0  0  0  0  0  0  0
    4.8203    1.3504   18.9464 C   0  0  0  0  0  0  0  0  0  0  0  0
    5.4112    1.2756   17.6829 C   0  0  0  0  0  0  0  0  0  0  0  0
    6.5469    0.6094   17.4323 N   0  0  0  0  0  0  0  0  0  0  0  0
    7.1380    0.0056   18.4724 C   0  0  0  0  0  0  0  0  0  0  0  0
    8.0742   -0.5087   18.2525 H   0  0  0  0  0  0  0  0  0  0  0  0
    4.9498    1.7690   16.8297 H   0  0  0  0  0  0  0  0  0  0  0  0
    3.9026    1.9130   19.0751 H   0  0  0  0  0  0  0  0  0  0  0  0
    5.0366    0.7834   21.0270 H   0  0  0  0  0  0  0  0  0  0  0  0
    8.0922   -1.3981   20.5263 H   0  0  0  0  0  0  0  0  0  0  0  0
    6.7076   -1.1697   21.5922 H   0  0  0  0  0  0  0  0  0  0  0  0
    7.4227   -1.9517   23.6823 H   0  0  0  0  0  0  0  0  0  0  0  0
    9.0672   -1.8427   24.3232 H   0  0  0  0  0  0  0  0  0  0  0  0
    8.8182   -2.2660   22.6340 H   0  0  0  0  0  0  0  0  0  0  0  0
  1  2  1  0
  2  3  1  0
  3  4  1  0
  4  5  2  0
  5  6  1  0
  6  7  2  0
  7  8  1  0
  8  9  1  0
  7 10  1  0
  3 11  1  0
  3 12  1  0
  2 13  1  0
 13 14  2  0
 13 15  1  0
 15 16  1  0
 16 17  2  0
 17 18  1  0
 18 19  2  0
 19 20  1  0
 20 21  2  0
 21 22  1  0
 19 23  1  0
 18 24  1  0
 17 25  1  0
 15 26  1  0
 15 27  1  0
  1 28  1  0
  1 29  1  0
  1 30  1  0
  8  4  1  0
 21 16  1  0
M  END
>  <plip>  (1) 
-0.10714285714285714

>  <filename>  (1) 
[H][c]1[n][c]([H])[c]([C]([H])([H])[C](=[O])[N]([C]([H])([H])[H])[C]([H])([H])[c]2[n][n][c]([H])[n]2[H])[c]([H])[c]1[H]

$$$$
