
     RDKit          3D

 45 46  0  0  0  0  0  0  0  0999 V2000
   14.0473    5.9706   21.7499 C   0  0  0  0  0  0  0  0  0  0  0  0
   13.9123    4.8988   22.8219 C   0  0  0  0  0  0  0  0  0  0  0  0
   12.1746    4.5184   23.2472 S   0  0  0  0  0  0  0  0  0  0  0  0
   12.1195    2.7259   22.8597 C   0  0  0  0  0  0  0  0  0  0  0  0
   12.9821    1.9278   23.8293 C   0  0  0  0  0  0  0  0  0  0  0  0
   13.0737    0.5036   23.4256 C   0  0  0  0  0  0  0  0  0  0  0  0
   13.4208    0.3439   23.4197 C   0  0  0  0  0  0  0  0  0  0  0  0
   13.0502   -0.1995   24.4507 H   0  0  0  0  0  0  0  0  0  0  0  0
   14.2260   -0.7066   23.1629 H   0  0  0  0  0  0  0  0  0  0  0  0
   14.7066    0.3420   23.6043 H   0  0  0  0  0  0  0  0  0  0  0  0
   11.0659   -0.3341   22.8478 N   0  0  0  0  0  4  0  0  0  0  0  0
   10.6054   -1.4707   22.0572 C   0  0  0  0  0  0  0  0  0  0  0  0
    9.1093   -1.4996   21.9074 C   0  0  0  0  0  0  0  0  0  0  0  0
    8.2965   -2.1938   22.8167 C   0  0  0  0  0  0  0  0  0  0  0  0
    6.9639   -2.2838   22.7024 N   0  0  0  0  0  0  0  0  0  0  0  0
    6.3797   -1.6334   21.6871 C   0  0  0  0  0  0  0  0  0  0  0  0
    7.0788   -0.8547   20.7421 C   0  0  0  0  0  0  0  0  0  0  0  0
    6.3999   -0.0920   19.6487 C   0  0  0  0  0  0  0  0  0  0  0  0
    5.2268    0.6424   19.8712 C   0  0  0  0  0  0  0  0  0  0  0  0
    4.7048    1.4153   18.8309 C   0  0  0  0  0  0  0  0  0  0  0  0
    5.3536    1.4069   17.5911 C   0  0  0  0  0  0  0  0  0  0  0  0
    6.4514    0.6781   17.3378 N   0  0  0  0  0  0  0  0  0  0  0  0
    6.9489   -0.0440   18.3473 C   0  0  0  0  0  0  0  0  0  0  0  0
    7.8278   -0.6436   18.1115 H   0  0  0  0  0  0  0  0  0  0  0  0
    4.9770    2.0076   16.7649 H   0  0  0  0  0  0  0  0  0  0  0  0
    3.8258    2.0334   18.9693 H   0  0  0  0  0  0  0  0  0  0  0  0
    4.7523    0.6356   20.8553 H   0  0  0  0  0  0  0  0  0  0  0  0
    8.4718   -0.8170   20.8646 C   0  0  0  0  0  0  0  0  0  0  0  0
    9.0524   -0.2393   20.1426 H   0  0  0  0  0  0  0  0  0  0  0  0
    5.3057   -1.7688   21.5847 H   0  0  0  0  0  0  0  0  0  0  0  0
    8.7374   -2.7313   23.6543 H   0  0  0  0  0  0  0  0  0  0  0  0
   10.9663   -2.4092   22.4978 H   0  0  0  0  0  0  0  0  0  0  0  0
   11.0623   -1.4380   21.0560 H   0  0  0  0  0  0  0  0  0  0  0  0
   10.7048    0.5310   22.4552 H   0  0  0  0  0  0  0  0  0  0  0  0
   10.6436   -0.3608   23.7763 H   0  0  0  0  0  0  0  0  0  0  0  0
   13.3780    0.5678   22.2134 H   0  0  0  0  0  0  0  0  0  0  0  0
   13.8636    2.5926   24.0351 H   0  0  0  0  0  0  0  0  0  0  0  0
   12.4155    2.0231   24.7795 H   0  0  0  0  0  0  0  0  0  0  0  0
   11.0695    2.4350   22.9757 H   0  0  0  0  0  0  0  0  0  0  0  0
   12.3444    2.6370   21.7853 H   0  0  0  0  0  0  0  0  0  0  0  0
   14.4251    5.2110   23.7365 H   0  0  0  0  0  0  0  0  0  0  0  0
   14.3974    3.9804   22.4693 H   0  0  0  0  0  0  0  0  0  0  0  0
   15.0985    6.0688   21.4607 H   0  0  0  0  0  0  0  0  0  0  0  0
   13.7028    6.9438   22.1093 H   0  0  0  0  0  0  0  0  0  0  0  0
   13.4674    5.6996   20.8627 H   0  0  0  0  0  0  0  0  0  0  0  0
  1  2  1  0
  2  3  1  0
  3  4  1  0
  4  5  1  0
  5  6  1  0
  6  7  1  0
  7  8  1  0
  7  9  1  0
  7 10  1  0
  6 11  1  0
 11 12  1  0
 12 13  1  0
 13 14  2  0
 14 15  1  0
 15 16  2  0
 16 17  1  0
 17 18  1  0
 18 19  2  0
 19 20  1  0
 20 21  2  0
 21 22  1  0
 22 23  2  0
 23 24  1  0
 21 25  1  0
 20 26  1  0
 19 27  1  0
 17 28  2  0
 28 29  1  0
 16 30  1  0
 14 31  1  0
 12 32  1  0
 12 33  1  0
 11 34  1  0
 11 35  1  0
  6 36  1  0
  5 37  1  0
  5 38  1  0
  4 39  1  0
  4 40  1  0
  2 41  1  0
  2 42  1  0
  1 43  1  0
  1 44  1  0
  1 45  1  0
 28 13  1  0
 23 18  1  0
M  CHG  1  11   1
M  END
>  <plip>  (1) 
-0.1

>  <filename>  (1) 
[H][c]1[n][c]([H])[c](-[c]2[c]([H])[n][c]([H])[c]([C]([H])([H])[N+]([H])([H])[C]([H])([C]([H])([H])[H])[C]([H])([H])[C]([H])([H])[S][C]([H])([H])[C]([H])([H])[H])[c]2[H])[c]([H])[c]1[H]

$$$$
