
     RDKit          3D

 30 32  0  0  0  0  0  0  0  0999 V2000
    5.2526    1.6646   17.2207 H   0  0  0  0  0  0  0  0  0  0  0  0
    5.5689    1.1352   18.1171 C   0  0  0  0  0  0  0  0  0  0  0  0
    6.6909    0.4153   17.9864 N   0  0  0  0  0  0  0  0  0  0  0  0
    7.1246   -0.2420   19.0512 C   0  0  0  0  0  0  0  0  0  0  0  0
    8.0209   -0.8394   18.8921 H   0  0  0  0  0  0  0  0  0  0  0  0
    6.4723   -0.1831   20.2799 C   0  0  0  0  0  0  0  0  0  0  0  0
    7.5229   -0.8290   21.4810 S   0  0  0  0  0  0  0  0  0  0  0  0
    8.0603   -2.0647   20.9554 O   0  0  0  0  0  0  0  0  0  0  0  0
    8.4045    0.2119   21.9598 O   0  0  0  0  0  0  0  0  0  0  0  0
    6.4615   -1.1951   22.6419 O   0  0  0  0  0  0  0  0  0  0  0  0
    6.9139   -1.9454   23.7431 C   0  0  0  0  0  0  0  0  0  0  0  0
    5.9148   -2.2723   24.6978 C   0  0  0  0  0  0  0  0  0  0  0  0
    4.8829   -2.0068   24.5182 H   0  0  0  0  0  0  0  0  0  0  0  0
    6.2446   -2.9506   25.8517 C   0  0  0  0  0  0  0  0  0  0  0  0
    5.5160   -3.1774   26.6223 H   0  0  0  0  0  0  0  0  0  0  0  0
    7.5822   -3.3961   26.0748 C   0  0  0  0  0  0  0  0  0  0  0  0
    7.8647   -4.1120   27.2095 N   0  0  0  0  0  0  0  0  0  0  0  0
    9.0877   -4.5811   27.3373 C   0  0  0  0  0  0  0  0  0  0  0  0
    9.2834   -5.1728   28.2336 H   0  0  0  0  0  0  0  0  0  0  0  0
   10.1290   -4.3783   26.3849 C   0  0  0  0  0  0  0  0  0  0  0  0
   11.1039   -4.8074   26.5817 H   0  0  0  0  0  0  0  0  0  0  0  0
    9.8638   -3.6394   25.2541 C   0  0  0  0  0  0  0  0  0  0  0  0
   10.6162   -3.4648   24.4838 H   0  0  0  0  0  0  0  0  0  0  0  0
    8.5604   -3.1051   25.0718 C   0  0  0  0  0  0  0  0  0  0  0  0
    8.2185   -2.3439   23.9165 C   0  0  0  0  0  0  0  0  0  0  0  0
    8.9921   -2.1157   23.1924 H   0  0  0  0  0  0  0  0  0  0  0  0
    5.2713    0.5231   20.4347 C   0  0  0  0  0  0  0  0  0  0  0  0
    4.6901    0.5631   21.3591 H   0  0  0  0  0  0  0  0  0  0  0  0
    4.8273    1.2044   19.3000 C   0  0  0  0  0  0  0  0  0  0  0  0
    3.9313    1.8156   19.3095 H   0  0  0  0  0  0  0  0  0  0  0  0
  1  2  1  0
  2  3  2  0
  3  4  1  0
  4  5  1  0
  4  6  2  0
  6  7  1  0
  7  8  2  0
  7  9  2  0
  7 10  1  0
 10 11  1  0
 11 12  2  0
 12 13  1  0
 12 14  1  0
 14 15  1  0
 14 16  2  0
 16 17  1  0
 17 18  2  0
 18 19  1  0
 18 20  1  0
 20 21  1  0
 20 22  2  0
 22 23  1  0
 22 24  1  0
 24 25  2  0
 25 26  1  0
  6 27  1  0
 27 28  1  0
 27 29  2  0
 29 30  1  0
 29  2  1  0
 25 11  1  0
 24 16  1  0
M  END
>  <plip>  (1) 
-0.0

>  <filename>  (1) 
[H][c]1[n][c]([H])[c]([S](=[O])(=[O])[O][c]2[c]([H])[c]([H])[c]3[n][c]([H])[c]([H])[c]([H])[c]3[c]2[H])[c]([H])[c]1[H]

$$$$
