
     RDKit          3D

 34 37  0  0  0  0  0  0  0  0999 V2000
    9.2198   -2.9390   22.1770 H   0  0  0  0  0  0  0  0  0  0  0  0
    8.6177   -2.0666   21.9464 C   0  0  0  0  0  0  0  0  0  0  0  0
    8.1349   -1.8038   20.7055 N   0  0  0  0  0  0  0  0  0  0  0  0
    7.4644   -0.6855   20.8868 C   0  0  0  0  0  0  0  0  0  0  0  0
    6.6799    0.0058   19.8661 C   0  0  0  0  0  0  0  0  0  0  0  0
    7.1699   -0.0305   18.5539 C   0  0  0  0  0  0  0  0  0  0  0  0
    8.0654   -0.6060   18.3271 H   0  0  0  0  0  0  0  0  0  0  0  0
    6.5962    0.6179   17.5370 N   0  0  0  0  0  0  0  0  0  0  0  0
    5.4660    1.2947   17.7917 C   0  0  0  0  0  0  0  0  0  0  0  0
    5.0267    1.8242   16.9493 H   0  0  0  0  0  0  0  0  0  0  0  0
    4.8506    1.3263   19.0472 C   0  0  0  0  0  0  0  0  0  0  0  0
    3.9194    1.8626   19.1801 H   0  0  0  0  0  0  0  0  0  0  0  0
    5.4695    0.6732   20.1103 C   0  0  0  0  0  0  0  0  0  0  0  0
    5.0156    0.6646   21.1021 H   0  0  0  0  0  0  0  0  0  0  0  0
    7.5985   -0.2672   22.1753 N   0  0  0  0  0  0  0  0  0  0  0  0
    7.1367    0.9737   22.7449 C   0  0  1  0  0  0  0  0  0  0  0  0
    7.2124    1.8060   22.0519 H   0  0  0  0  0  0  0  0  0  0  0  0
    5.9618    0.9646   23.6723 C   0  0  0  0  0  0  0  0  0  0  0  0
    5.5788   -0.0040   23.9666 H   0  0  0  0  0  0  0  0  0  0  0  0
    5.2208    1.7497   23.5431 H   0  0  0  0  0  0  0  0  0  0  0  0
    7.3324    1.3204   24.1946 C   0  0  2  0  0  0  0  0  0  0  0  0
    7.7968    0.5422   24.7974 H   0  0  0  0  0  0  0  0  0  0  0  0
    7.6764    2.7212   24.5820 C   0  0  0  0  0  0  0  0  0  0  0  0
    7.1198    3.8251   23.9083 C   0  0  0  0  0  0  0  0  0  0  0  0
    6.4450    3.6872   23.0664 H   0  0  0  0  0  0  0  0  0  0  0  0
    7.3954    5.1298   24.3234 C   0  0  0  0  0  0  0  0  0  0  0  0
    6.9141    5.9650   23.8219 H   0  0  0  0  0  0  0  0  0  0  0  0
    8.2665    5.3664   25.3931 C   0  0  0  0  0  0  0  0  0  0  0  0
    8.4837    6.3852   25.7017 H   0  0  0  0  0  0  0  0  0  0  0  0
    8.8509    4.2755   26.0450 C   0  0  0  0  0  0  0  0  0  0  0  0
    9.5327    4.4283   26.8752 H   0  0  0  0  0  0  0  0  0  0  0  0
    8.5536    2.9671   25.6524 C   0  0  0  0  0  0  0  0  0  0  0  0
    8.9981    2.1398   26.2031 H   0  0  0  0  0  0  0  0  0  0  0  0
    8.3202   -1.1793   22.8710 N   0  0  0  0  0  0  0  0  0  0  0  0
  1  2  1  0
  2  3  1  0
  3  4  2  0
  4  5  1  0
  5  6  2  0
  6  7  1  0
  6  8  1  0
  8  9  2  0
  9 10  1  0
  9 11  1  0
 11 12  1  0
 11 13  2  0
 13 14  1  0
  4 15  1  0
 15 16  1  0
 16 17  1  6
 16 18  1  0
 18 19  1  0
 18 20  1  0
 18 21  1  0
 21 22  1  1
 21 23  1  0
 23 24  2  0
 24 25  1  0
 24 26  1  0
 26 27  1  0
 26 28  2  0
 28 29  1  0
 28 30  1  0
 30 31  1  0
 30 32  2  0
 32 33  1  0
 15 34  1  0
 34  2  2  0
 13  5  1  0
 21 16  1  0
 32 23  1  0
M  END
>  <plip>  (1) 
-0.06896551724137931

>  <filename>  (1) 
[H][c]1[n][c](-[c]2[c]([H])[n][c]([H])[c]([H])[c]2[H])[n]([C@@]2([H])[C]([H])([H])[C@]2([H])[c]2[c]([H])[c]([H])[c]([H])[c]([H])[c]2[H])[n]1

$$$$
