
     RDKit          3D

 40 42  0  0  0  0  0  0  0  0999 V2000
   10.5201    1.4382   21.7439 C   0  0  0  0  0  0  0  0  0  0  0  0
    9.2131    0.8200   22.0158 N   0  0  0  0  0  0  0  0  0  0  0  0
    8.9219   -0.3288   21.3036 C   0  0  0  0  0  0  0  0  0  0  0  0
    9.8165   -1.0104   20.8259 O   0  0  0  0  0  0  0  0  0  0  0  0
    7.4530   -0.7410   21.0799 C   0  0  0  0  0  0  0  0  0  0  0  0
    6.7204   -0.0122   19.9496 C   0  0  0  0  0  0  0  0  0  0  0  0
    5.4685    0.5848   20.1451 C   0  0  0  0  0  0  0  0  0  0  0  0
    4.8491    1.2523   19.0820 C   0  0  0  0  0  0  0  0  0  0  0  0
    5.4835    1.2717   17.8384 C   0  0  0  0  0  0  0  0  0  0  0  0
    6.6630    0.6763   17.6089 N   0  0  0  0  0  0  0  0  0  0  0  0
    7.2540    0.0642   18.6449 C   0  0  0  0  0  0  0  0  0  0  0  0
    8.2128   -0.4057   18.4313 H   0  0  0  0  0  0  0  0  0  0  0  0
    5.0214    1.7735   16.9902 H   0  0  0  0  0  0  0  0  0  0  0  0
    3.8979    1.7564   19.2050 H   0  0  0  0  0  0  0  0  0  0  0  0
    4.9896    0.5488   21.1257 H   0  0  0  0  0  0  0  0  0  0  0  0
    7.5232   -1.8069   20.8499 H   0  0  0  0  0  0  0  0  0  0  0  0
    6.8809   -0.6584   22.0113 H   0  0  0  0  0  0  0  0  0  0  0  0
    8.1809    1.6528   22.6649 C   0  0  0  0  0  0  0  0  0  0  0  0
    7.5829    2.7115   21.6994 C   0  0  0  0  0  0  0  0  0  0  0  0
    8.0263    4.0482   22.2341 C   0  0  0  0  0  0  0  0  0  0  0  0
    7.8251    5.3130   21.6733 C   0  0  0  0  0  0  0  0  0  0  0  0
    8.2404    6.4499   22.3796 C   0  0  0  0  0  0  0  0  0  0  0  0
    8.8833    6.3012   23.6243 C   0  0  0  0  0  0  0  0  0  0  0  0
    9.2767    7.5837   24.4402 C   0  0  0  0  0  0  0  0  0  0  0  0
    8.5565    8.6071   24.3205 O   0  0  0  0  0  0  0  0  0  0  0  0
   10.2862    7.5571   25.1868 O   0  0  0  0  0  1  0  0  0  0  0  0
    9.1257    5.0252   24.1681 C   0  0  0  0  0  0  0  0  0  0  0  0
    8.6656    3.9041   23.4727 C   0  0  0  0  0  0  0  0  0  0  0  0
    8.7312    2.4516   23.8851 C   0  0  0  0  0  0  0  0  0  0  0  0
    8.1265    2.2675   24.7798 H   0  0  0  0  0  0  0  0  0  0  0  0
    9.7429    2.1338   24.1548 H   0  0  0  0  0  0  0  0  0  0  0  0
    9.6733    4.8853   25.1011 H   0  0  0  0  0  0  0  0  0  0  0  0
    8.0253    7.4328   21.9577 H   0  0  0  0  0  0  0  0  0  0  0  0
    7.3351    5.4302   20.7068 H   0  0  0  0  0  0  0  0  0  0  0  0
    7.9193    2.5267   20.6766 H   0  0  0  0  0  0  0  0  0  0  0  0
    6.4897    2.6508   21.6661 H   0  0  0  0  0  0  0  0  0  0  0  0
    7.4054    0.9766   23.0305 H   0  0  0  0  0  0  0  0  0  0  0  0
   10.5913    2.4185   22.2248 H   0  0  0  0  0  0  0  0  0  0  0  0
   10.6688    1.5791   20.6675 H   0  0  0  0  0  0  0  0  0  0  0  0
   11.3236    0.7890   22.1064 H   0  0  0  0  0  0  0  0  0  0  0  0
  1  2  1  0
  2  3  1  0
  3  4  2  0
  3  5  1  0
  5  6  1  0
  6  7  2  0
  7  8  1  0
  8  9  2  0
  9 10  1  0
 10 11  2  0
 11 12  1  0
  9 13  1  0
  8 14  1  0
  7 15  1  0
  5 16  1  0
  5 17  1  0
  2 18  1  0
 18 19  1  0
 19 20  1  0
 20 21  2  0
 21 22  1  0
 22 23  2  0
 23 24  1  0
 24 25  2  0
 24 26  1  0
 23 27  1  0
 27 28  2  0
 28 29  1  0
 29 30  1  0
 29 31  1  0
 27 32  1  0
 22 33  1  0
 21 34  1  0
 19 35  1  0
 19 36  1  0
 18 37  1  0
  1 38  1  0
  1 39  1  0
  1 40  1  0
 11  6  1  0
 29 18  1  0
 28 20  1  0
M  CHG  1  26  -1
M  END
>  <plip>  (1) 
-0.03571428571428571

>  <filename>  (1) 
[H][c]1[n][c]([H])[c]([C]([H])([H])[C](=[O])[N]([C]([H])([H])[H])[C]2([H])[C]([H])([H])[c]3[c]([H])[c]([H])[c]([C](=[O])[O-])[c]([H])[c]3[C]2([H])[H])[c]([H])[c]1[H]

$$$$
