
     RDKit          3D

 27 29  0  0  0  0  0  0  0  0999 V2000
    9.4642   -0.2393   20.1835 O   0  0  0  0  0  0  0  0  0  0  0  0
    8.6715   -0.9111   20.8220 C   0  0  0  0  0  0  0  0  0  0  0  0
    7.3106   -0.7644   20.6767 N   0  0  0  0  0  0  0  0  0  0  0  0
    6.6373   -0.0050   19.6894 C   0  0  0  0  0  0  0  0  0  0  0  0
    5.4310    0.6131   20.0272 C   0  0  0  0  0  0  0  0  0  0  0  0
    4.7477    1.3347   19.0408 C   0  0  0  0  0  0  0  0  0  0  0  0
    5.2888    1.4116   17.7528 C   0  0  0  0  0  0  0  0  0  0  0  0
    6.4442    0.8214   17.4076 N   0  0  0  0  0  0  0  0  0  0  0  0
    7.1028    0.1432   18.3569 C   0  0  0  0  0  0  0  0  0  0  0  0
    8.0442   -0.3169   18.0750 H   0  0  0  0  0  0  0  0  0  0  0  0
    4.7831    1.9627   16.9631 H   0  0  0  0  0  0  0  0  0  0  0  0
    3.8128    1.8362   19.2588 H   0  0  0  0  0  0  0  0  0  0  0  0
    5.0585    0.5518   21.0503 H   0  0  0  0  0  0  0  0  0  0  0  0
    6.7488   -1.0713   21.4550 H   0  0  0  0  0  0  0  0  0  0  0  0
    9.1196   -1.9555   21.8071 C   0  0  0  0  0  0  0  0  0  0  0  0
   10.5221   -2.1001   21.9410 C   0  0  0  0  0  0  0  0  0  0  0  0
   11.0600   -2.9629   22.8687 C   0  0  0  0  0  0  0  0  0  0  0  0
   10.2067   -3.7129   23.6960 C   0  0  0  0  0  0  0  0  0  0  0  0
   10.6279   -4.5681   24.7018 N   0  0  0  0  0  0  0  0  0  0  0  0
    9.6037   -5.1156   25.2585 C   0  0  0  0  0  0  0  0  0  0  0  0
    8.0280   -4.6942   24.6380 S   0  0  0  0  0  0  0  0  0  0  0  0
    8.8112   -3.6414   23.5054 C   0  0  0  0  0  0  0  0  0  0  0  0
    8.2603   -2.7774   22.5580 C   0  0  0  0  0  0  0  0  0  0  0  0
    7.1838   -2.8112   22.4107 H   0  0  0  0  0  0  0  0  0  0  0  0
    9.6661   -5.7913   26.1038 H   0  0  0  0  0  0  0  0  0  0  0  0
   12.1259   -3.1158   22.9532 H   0  0  0  0  0  0  0  0  0  0  0  0
   11.1743   -1.4888   21.3167 H   0  0  0  0  0  0  0  0  0  0  0  0
  1  2  2  0
  2  3  1  0
  3  4  1  0
  4  5  2  0
  5  6  1  0
  6  7  2  0
  7  8  1  0
  8  9  2  0
  9 10  1  0
  7 11  1  0
  6 12  1  0
  5 13  1  0
  3 14  1  0
  2 15  1  0
 15 16  2  0
 16 17  1  0
 17 18  2  0
 18 19  1  0
 19 20  2  0
 20 21  1  0
 21 22  1  0
 22 23  2  0
 23 24  1  0
 20 25  1  0
 17 26  1  0
 16 27  1  0
  9  4  1  0
 23 15  1  0
 22 18  1  0
M  END
>  <plip>  (1) 
-0.10714285714285714

>  <filename>  (1) 
[H][c]1[n][c]2[c]([H])[c]([H])[c]([C](=[O])[N]([H])[c]3[c]([H])[n][c]([H])[c]([H])[c]3[H])[c]([H])[c]2[s]1

$$$$
