
     RDKit          3D

 39 40  0  0  0  0  0  0  0  0999 V2000
    7.1562    2.3192   26.1191 C   0  0  0  0  0  0  0  0  0  0  0  0
    7.8866    2.6876   24.9660 O   0  0  0  0  0  0  0  0  0  0  0  0
    7.4106    3.6280   24.1061 C   0  0  0  0  0  0  0  0  0  0  0  0
    6.1791    4.2923   24.2653 C   0  0  0  0  0  0  0  0  0  0  0  0
    5.7541    5.2365   23.3223 C   0  0  0  0  0  0  0  0  0  0  0  0
    6.5559    5.5302   22.2207 C   0  0  0  0  0  0  0  0  0  0  0  0
    7.7831    4.8773   22.0676 C   0  0  0  0  0  0  0  0  0  0  0  0
    8.2295    3.9149   22.9749 C   0  0  0  0  0  0  0  0  0  0  0  0
    9.4861    3.2567   22.7093 N   0  0  0  0  0  0  0  0  0  0  0  0
   10.7442    4.0226   22.7563 C   0  0  0  0  0  0  0  0  0  0  0  0
   11.2573    4.0246   21.7856 H   0  0  0  0  0  0  0  0  0  0  0  0
   11.4408    3.5612   23.4674 H   0  0  0  0  0  0  0  0  0  0  0  0
   10.5083    5.0428   23.0638 H   0  0  0  0  0  0  0  0  0  0  0  0
    9.6077    1.8851   22.5076 C   0  0  0  0  0  0  0  0  0  0  0  0
   10.7000    1.3516   22.5820 O   0  0  0  0  0  0  0  0  0  0  0  0
    8.3173    1.0806   22.2513 C   0  0  0  0  0  0  0  0  0  0  0  0
    8.5526    0.0252   21.3369 O   0  0  0  0  0  0  0  0  0  0  0  0
    7.3985   -0.7190   20.9854 C   0  0  0  0  0  0  0  0  0  0  0  0
    6.6174   -0.0244   19.8991 C   0  0  0  0  0  0  0  0  0  0  0  0
    5.4111    0.6415   20.1435 C   0  0  0  0  0  0  0  0  0  0  0  0
    4.7870    1.3155   19.0893 C   0  0  0  0  0  0  0  0  0  0  0  0
    5.3960    1.3008   17.8310 C   0  0  0  0  0  0  0  0  0  0  0  0
    6.5640    0.6862   17.5825 N   0  0  0  0  0  0  0  0  0  0  0  0
    7.1577    0.0607   18.6063 C   0  0  0  0  0  0  0  0  0  0  0  0
    8.1191   -0.4029   18.3860 H   0  0  0  0  0  0  0  0  0  0  0  0
    4.9327    1.7989   16.9792 H   0  0  0  0  0  0  0  0  0  0  0  0
    3.8593    1.8587   19.2285 H   0  0  0  0  0  0  0  0  0  0  0  0
    4.9815    0.6461   21.1485 H   0  0  0  0  0  0  0  0  0  0  0  0
    6.7581   -0.9101   21.8619 H   0  0  0  0  0  0  0  0  0  0  0  0
    7.7792   -1.6892   20.6451 H   0  0  0  0  0  0  0  0  0  0  0  0
    7.9885    0.6941   23.2282 H   0  0  0  0  0  0  0  0  0  0  0  0
    7.5237    1.7550   21.8947 H   0  0  0  0  0  0  0  0  0  0  0  0
    8.4299    5.0976   21.2276 H   0  0  0  0  0  0  0  0  0  0  0  0
    6.2426    6.2604   21.4772 H   0  0  0  0  0  0  0  0  0  0  0  0
    4.7952    5.7387   23.4462 H   0  0  0  0  0  0  0  0  0  0  0  0
    5.5559    4.0573   25.1231 H   0  0  0  0  0  0  0  0  0  0  0  0
    6.9785    3.1706   26.7920 H   0  0  0  0  0  0  0  0  0  0  0  0
    6.1918    1.8632   25.8555 H   0  0  0  0  0  0  0  0  0  0  0  0
    7.7901    1.5864   26.6208 H   0  0  0  0  0  0  0  0  0  0  0  0
  1  2  1  0
  2  3  1  0
  3  4  2  0
  4  5  1  0
  5  6  2  0
  6  7  1  0
  7  8  2  0
  8  9  1  0
  9 10  1  0
 10 11  1  0
 10 12  1  0
 10 13  1  0
  9 14  1  0
 14 15  2  0
 14 16  1  0
 16 17  1  0
 17 18  1  0
 18 19  1  0
 19 20  2  0
 20 21  1  0
 21 22  2  0
 22 23  1  0
 23 24  2  0
 24 25  1  0
 22 26  1  0
 21 27  1  0
 20 28  1  0
 18 29  1  0
 18 30  1  0
 16 31  1  0
 16 32  1  0
  7 33  1  0
  6 34  1  0
  5 35  1  0
  4 36  1  0
  1 37  1  0
  1 38  1  0
  1 39  1  0
  8  3  1  0
 24 19  1  0
M  END
>  <plip>  (1) 
-0.07142857142857142

>  <filename>  (1) 
[H][c]1[n][c]([H])[c]([C]([H])([H])[O][C]([H])([H])[C](=[O])[N]([c]2[c]([H])[c]([H])[c]([H])[c]([H])[c]2[O][C]([H])([H])[H])[C]([H])([H])[H])[c]([H])[c]1[H]

$$$$
