
     RDKit          3D

 43 44  0  0  0  0  0  0  0  0999 V2000
    6.9875    4.3106   25.1286 C   0  0  0  0  0  0  0  0  0  0  0  0
    8.2829    3.6822   25.5634 C   0  0  0  0  0  0  0  0  0  0  0  0
    9.0520    4.2321   26.3153 O   0  0  0  0  0  0  0  0  0  0  0  0
    8.4735    2.4313   25.0734 O   0  0  0  0  0  0  0  0  0  0  0  0
    9.6292    1.7378   25.6041 C   0  0  0  0  0  0  0  0  0  0  0  0
    9.6960    0.3215   25.0589 C   0  0  0  0  0  0  0  0  0  0  0  0
   11.0182   -0.3222   25.7559 N   0  0  0  0  0  4  0  0  0  0  0  0
   11.2254   -1.2958   25.4761 H   0  0  0  0  0  0  0  0  0  0  0  0
   10.9303   -0.3029   26.7955 H   0  0  0  0  0  0  0  0  0  0  0  0
   11.8645    0.2371   25.5324 H   0  0  0  0  0  0  0  0  0  0  0  0
    9.5080    0.3668   23.4943 C   0  0  0  0  0  0  0  0  0  0  0  0
   10.2246    1.0575   22.7934 O   0  0  0  0  0  0  0  0  0  0  0  0
    8.4288   -0.3379   22.9854 N   0  0  0  0  0  0  0  0  0  0  0  0
    7.7624   -1.4753   23.6218 C   0  0  0  0  0  0  0  0  0  0  0  0
    7.4157   -2.5563   22.5901 C   0  0  0  0  0  0  0  0  0  0  0  0
    6.6076   -2.0044   21.4039 C   0  0  0  0  0  0  0  0  0  0  0  0
    7.3342   -0.7892   20.7832 C   0  0  0  0  0  0  0  0  0  0  0  0
    6.5685   -0.0845   19.6681 C   0  0  0  0  0  0  0  0  0  0  0  0
    5.3678    0.5988   19.9198 C   0  0  0  0  0  0  0  0  0  0  0  0
    4.7663    1.3367   18.8951 C   0  0  0  0  0  0  0  0  0  0  0  0
    5.3872    1.3626   17.6423 C   0  0  0  0  0  0  0  0  0  0  0  0
    6.5230    0.7063   17.3669 N   0  0  0  0  0  0  0  0  0  0  0  0
    7.0898    0.0141   18.3664 C   0  0  0  0  0  0  0  0  0  0  0  0
    8.0285   -0.4841   18.1212 H   0  0  0  0  0  0  0  0  0  0  0  0
    4.9525    1.9389   16.8263 H   0  0  0  0  0  0  0  0  0  0  0  0
    3.8610    1.9116   19.0659 H   0  0  0  0  0  0  0  0  0  0  0  0
    4.9192    0.5844   20.9156 H   0  0  0  0  0  0  0  0  0  0  0  0
    7.6772    0.2488   21.8726 C   0  0  0  0  0  0  0  0  0  0  0  0
    8.2647    1.0628   21.4358 H   0  0  0  0  0  0  0  0  0  0  0  0
    6.7336    0.6889   22.2478 H   0  0  0  0  0  0  0  0  0  0  0  0
    8.2855   -1.1653   20.3763 H   0  0  0  0  0  0  0  0  0  0  0  0
    6.4780   -2.7837   20.6413 H   0  0  0  0  0  0  0  0  0  0  0  0
    5.5966   -1.7148   21.7247 H   0  0  0  0  0  0  0  0  0  0  0  0
    6.8679   -3.3552   23.1032 H   0  0  0  0  0  0  0  0  0  0  0  0
    8.3505   -2.9951   22.2180 H   0  0  0  0  0  0  0  0  0  0  0  0
    6.8347   -1.1430   24.1249 H   0  0  0  0  0  0  0  0  0  0  0  0
    8.4296   -1.9078   24.3716 H   0  0  0  0  0  0  0  0  0  0  0  0
    8.8274   -0.2063   25.4488 H   0  0  0  0  0  0  0  0  0  0  0  0
    9.5043    1.6722   26.6865 H   0  0  0  0  0  0  0  0  0  0  0  0
   10.5506    2.2745   25.3582 H   0  0  0  0  0  0  0  0  0  0  0  0
    7.1777    5.3696   24.9361 H   0  0  0  0  0  0  0  0  0  0  0  0
    6.5490    3.8285   24.2533 H   0  0  0  0  0  0  0  0  0  0  0  0
    6.2970    4.2553   25.9790 H   0  0  0  0  0  0  0  0  0  0  0  0
  1  2  1  0
  2  3  2  0
  2  4  1  0
  4  5  1  0
  5  6  1  0
  6  7  1  0
  7  8  1  0
  7  9  1  0
  7 10  1  0
  6 11  1  0
 11 12  2  0
 11 13  1  0
 13 14  1  0
 14 15  1  0
 15 16  1  0
 16 17  1  0
 17 18  1  0
 18 19  2  0
 19 20  1  0
 20 21  2  0
 21 22  1  0
 22 23  2  0
 23 24  1  0
 21 25  1  0
 20 26  1  0
 19 27  1  0
 17 28  1  0
 28 29  1  0
 28 30  1  0
 17 31  1  0
 16 32  1  0
 16 33  1  0
 15 34  1  0
 15 35  1  0
 14 36  1  0
 14 37  1  0
  6 38  1  0
  5 39  1  0
  5 40  1  0
  1 41  1  0
  1 42  1  0
  1 43  1  0
 28 13  1  0
 23 18  1  0
M  CHG  1   7   1
M  END
>  <plip>  (1) 
-0.10714285714285714

>  <filename>  (1) 
[H][c]1[n][c]([H])[c]([C]2([H])[C]([H])([H])[N]([C](=[O])[C]([H])([C]([H])([H])[O][C](=[O])[C]([H])([H])[H])[N+]([H])([H])[H])[C]([H])([H])[C]([H])([H])[C]2([H])[H])[c]([H])[c]1[H]

$$$$
