
     RDKit          3D

 37 38  0  0  0  0  0  0  0  0999 V2000
    8.5386    2.0160   25.6793 O   0  0  0  0  0  0  0  0  0  0  0  0
    7.4547    1.9113   25.1443 C   0  0  0  0  0  0  0  0  0  0  0  0
    7.0636    0.6408   24.4139 C   0  0  0  0  0  0  0  0  0  0  0  0
    7.4152    0.6205   22.9152 C   0  0  0  0  0  0  0  0  0  0  0  0
    7.0706   -0.7013   22.2150 C   0  0  0  0  0  0  0  0  0  0  0  0
    7.4303   -0.6835   20.8314 O   0  0  0  0  0  0  0  0  0  0  0  0
    6.6714   -0.0048   19.9276 C   0  0  0  0  0  0  0  0  0  0  0  0
    5.4501    0.6378   20.1792 C   0  0  0  0  0  0  0  0  0  0  0  0
    4.8145    1.2958   19.1129 C   0  0  0  0  0  0  0  0  0  0  0  0
    5.4117    1.2863   17.8510 C   0  0  0  0  0  0  0  0  0  0  0  0
    6.5776    0.6616   17.5926 N   0  0  0  0  0  0  0  0  0  0  0  0
    7.1812    0.0395   18.6088 C   0  0  0  0  0  0  0  0  0  0  0  0
    8.1305   -0.4561   18.4095 H   0  0  0  0  0  0  0  0  0  0  0  0
    4.9384    1.7925   17.0136 H   0  0  0  0  0  0  0  0  0  0  0  0
    3.8776    1.8284   19.2649 H   0  0  0  0  0  0  0  0  0  0  0  0
    5.0179    0.6389   21.1784 H   0  0  0  0  0  0  0  0  0  0  0  0
    7.6599   -1.5271   22.6243 H   0  0  0  0  0  0  0  0  0  0  0  0
    6.0141   -0.9807   22.3152 H   0  0  0  0  0  0  0  0  0  0  0  0
    6.9054    1.4347   22.3844 H   0  0  0  0  0  0  0  0  0  0  0  0
    8.4900    0.7949   22.7788 H   0  0  0  0  0  0  0  0  0  0  0  0
    5.9943    0.4814   24.5744 H   0  0  0  0  0  0  0  0  0  0  0  0
    7.6091   -0.1462   24.9463 H   0  0  0  0  0  0  0  0  0  0  0  0
    6.5164    2.9073   25.1938 N   0  0  0  0  0  0  0  0  0  0  0  0
    6.7170    4.0884   25.8879 C   0  0  0  0  0  0  0  0  0  0  0  0
    6.1631    5.1400   25.2955 N   0  0  0  0  0  0  0  0  0  0  0  0
    6.2744    6.3323   25.9256 C   0  0  0  0  0  0  0  0  0  0  0  0
    5.6887    7.6402   25.3173 C   0  0  0  0  0  0  0  0  0  0  0  0
    6.6543    8.5799   25.1967 F   0  0  0  0  0  0  0  0  0  0  0  0
    5.1186    7.5088   24.1216 F   0  0  0  0  0  0  0  0  0  0  0  0
    4.7589    8.1690   26.1453 F   0  0  0  0  0  0  0  0  0  0  0  0
    6.8984    6.4637   27.1761 C   0  0  0  0  0  0  0  0  0  0  0  0
    7.4412    5.3282   27.7846 C   0  0  0  0  0  0  0  0  0  0  0  0
    7.3652    4.1103   27.1243 C   0  0  0  0  0  0  0  0  0  0  0  0
    7.7649    3.1843   27.5085 H   0  0  0  0  0  0  0  0  0  0  0  0
    7.9110    5.3971   28.7631 H   0  0  0  0  0  0  0  0  0  0  0  0
    6.9483    7.4353   27.6531 H   0  0  0  0  0  0  0  0  0  0  0  0
    5.8612    3.0494   24.4491 H   0  0  0  0  0  0  0  0  0  0  0  0
  1  2  2  0
  2  3  1  0
  3  4  1  0
  4  5  1  0
  5  6  1  0
  6  7  1  0
  7  8  2  0
  8  9  1  0
  9 10  2  0
 10 11  1  0
 11 12  2  0
 12 13  1  0
 10 14  1  0
  9 15  1  0
  8 16  1  0
  5 17  1  0
  5 18  1  0
  4 19  1  0
  4 20  1  0
  3 21  1  0
  3 22  1  0
  2 23  1  0
 23 24  1  0
 24 25  2  0
 25 26  1  0
 26 27  1  0
 27 28  1  0
 27 29  1  0
 27 30  1  0
 26 31  2  0
 31 32  1  0
 32 33  2  0
 33 34  1  0
 32 35  1  0
 31 36  1  0
 23 37  1  0
 12  7  1  0
 33 24  1  0
M  END
>  <plip>  (1) 
-0.0

>  <filename>  (1) 
[H][c]1[n][c]([H])[c]([O][C]([H])([H])[C]([H])([H])[C]([H])([H])[C](=[O])[N]([H])[c]2[n][c]([C]([F])([F])[F])[c]([H])[c]([H])[c]2[H])[c]([H])[c]1[H]

$$$$
