
     RDKit          3D

 37 39  0  0  0  0  0  0  0  0999 V2000
    8.6155   -0.9900   27.0917 C   0  0  0  0  0  0  0  0  0  0  0  0
    7.5789   -2.0158   26.5973 C   0  0  0  0  0  0  0  0  0  0  0  0
    7.1786   -1.8707   25.1208 C   0  0  0  0  0  0  0  0  0  0  0  0
    6.0142   -1.7406   24.7941 O   0  0  0  0  0  0  0  0  0  0  0  0
    8.1963   -1.8930   24.2047 N   0  0  0  0  0  0  0  0  0  0  0  0
    8.0192   -1.5492   22.8807 C   0  0  0  0  0  0  0  0  0  0  0  0
    8.9202   -1.9008   22.0059 N   0  0  0  0  0  0  0  0  0  0  0  0
    8.4701   -1.3584   20.7993 O   0  0  0  0  0  0  0  0  0  0  0  0
    7.3238   -0.6905   21.0200 C   0  0  0  0  0  0  0  0  0  0  0  0
    6.6623   -0.0128   19.9037 C   0  0  0  0  0  0  0  0  0  0  0  0
    5.4484    0.6471   20.1299 C   0  0  0  0  0  0  0  0  0  0  0  0
    4.8360    1.2982   19.0630 C   0  0  0  0  0  0  0  0  0  0  0  0
    5.4639    1.2735   17.8121 C   0  0  0  0  0  0  0  0  0  0  0  0
    6.6231    0.6402   17.5772 N   0  0  0  0  0  0  0  0  0  0  0  0
    7.2085    0.0143   18.6060 C   0  0  0  0  0  0  0  0  0  0  0  0
    8.1514   -0.4825   18.3871 H   0  0  0  0  0  0  0  0  0  0  0  0
    5.0154    1.7862   16.9616 H   0  0  0  0  0  0  0  0  0  0  0  0
    3.9015    1.8284   19.1920 H   0  0  0  0  0  0  0  0  0  0  0  0
    5.0021    0.6562   21.1261 H   0  0  0  0  0  0  0  0  0  0  0  0
    6.9761   -0.7834   22.3279 C   0  0  0  0  0  0  0  0  0  0  0  0
    6.1362   -0.4303   22.8938 H   0  0  0  0  0  0  0  0  0  0  0  0
    9.0173   -2.4432   24.3893 H   0  0  0  0  0  0  0  0  0  0  0  0
    7.9273   -3.4665   26.8660 C   0  0  0  0  0  0  0  0  0  0  0  0
    9.2269   -3.9660   26.7194 C   0  0  0  0  0  0  0  0  0  0  0  0
    9.4795   -5.3300   26.8973 C   0  0  0  0  0  0  0  0  0  0  0  0
    8.4259   -6.1940   27.1975 C   0  0  0  0  0  0  0  0  0  0  0  0
    7.1314   -5.7094   27.3812 C   0  0  0  0  0  0  0  0  0  0  0  0
    6.8880   -4.3448   27.2121 C   0  0  0  0  0  0  0  0  0  0  0  0
    5.8812   -3.9557   27.3571 H   0  0  0  0  0  0  0  0  0  0  0  0
    6.3263   -6.3867   27.6640 H   0  0  0  0  0  0  0  0  0  0  0  0
    8.6247   -7.2482   27.2864 H   0  0  0  0  0  0  0  0  0  0  0  0
   10.4915   -5.7172   26.8136 H   0  0  0  0  0  0  0  0  0  0  0  0
   10.0471   -3.2962   26.4798 H   0  0  0  0  0  0  0  0  0  0  0  0
    6.6486   -1.7960   27.1243 H   0  0  0  0  0  0  0  0  0  0  0  0
    9.5278   -1.0024   26.4909 H   0  0  0  0  0  0  0  0  0  0  0  0
    8.8853   -1.2011   28.1309 H   0  0  0  0  0  0  0  0  0  0  0  0
    8.1980    0.0215   27.0373 H   0  0  0  0  0  0  0  0  0  0  0  0
  1  2  1  0
  2  3  1  0
  3  4  2  0
  3  5  1  0
  5  6  1  0
  6  7  2  0
  7  8  1  0
  8  9  1  0
  9 10  1  0
 10 11  2  0
 11 12  1  0
 12 13  2  0
 13 14  1  0
 14 15  2  0
 15 16  1  0
 13 17  1  0
 12 18  1  0
 11 19  1  0
  9 20  2  0
 20 21  1  0
  5 22  1  0
  2 23  1  0
 23 24  2  0
 24 25  1  0
 25 26  2  0
 26 27  1  0
 27 28  2  0
 28 29  1  0
 27 30  1  0
 26 31  1  0
 25 32  1  0
 24 33  1  0
  2 34  1  0
  1 35  1  0
  1 36  1  0
  1 37  1  0
 20  6  1  0
 28 23  1  0
 15 10  1  0
M  END
>  <plip>  (1) 
-0.07142857142857142

>  <filename>  (1) 
[H][c]1[n][c]([H])[c](-[c]2[o][n][c]([N]([H])[C](=[O])[C]([H])([c]3[c]([H])[c]([H])[c]([H])[c]([H])[c]3[H])[C]([H])([H])[H])[c]2[H])[c]([H])[c]1[H]

$$$$
