
     RDKit          3D

 39 41  0  0  0  0  0  0  0  0999 V2000
    7.0941    0.9265   22.5210 H   0  0  0  0  0  0  0  0  0  0  0  0
    7.4610   -0.0706   22.2899 C   0  0  0  0  0  0  0  0  0  0  0  0
    7.3145   -0.5840   21.0668 C   0  0  0  0  0  0  0  0  0  0  0  0
    6.6241    0.1067   19.9578 C   0  0  0  0  0  0  0  0  0  0  0  0
    7.1539    0.0807   18.6546 C   0  0  0  0  0  0  0  0  0  0  0  0
    8.0850   -0.4570   18.4653 H   0  0  0  0  0  0  0  0  0  0  0  0
    6.5913    0.6699   17.5950 N   0  0  0  0  0  0  0  0  0  0  0  0
    5.4253    1.3050   17.7978 C   0  0  0  0  0  0  0  0  0  0  0  0
    4.9800    1.7664   16.9200 H   0  0  0  0  0  0  0  0  0  0  0  0
    4.7892    1.3693   19.0445 C   0  0  0  0  0  0  0  0  0  0  0  0
    3.8400    1.8844   19.1396 H   0  0  0  0  0  0  0  0  0  0  0  0
    5.4045    0.7735   20.1448 C   0  0  0  0  0  0  0  0  0  0  0  0
    4.9615    0.7975   21.1418 H   0  0  0  0  0  0  0  0  0  0  0  0
    7.8752   -1.9442   20.7148 C   0  0  0  0  0  0  0  0  0  0  0  0
    7.1404   -2.4662   20.0975 H   0  0  0  0  0  0  0  0  0  0  0  0
    8.8034   -1.7982   20.1479 H   0  0  0  0  0  0  0  0  0  0  0  0
    8.1788   -2.7760   21.9387 C   0  0  0  0  0  0  0  0  0  0  0  0
    7.2333   -3.1643   22.3650 H   0  0  0  0  0  0  0  0  0  0  0  0
    8.7823   -3.6517   21.6681 H   0  0  0  0  0  0  0  0  0  0  0  0
    8.9072   -1.9506   22.8935 N   0  0  0  0  0  0  0  0  0  0  0  0
    9.6078   -2.7152   23.8818 C   0  0  0  0  0  0  0  0  0  0  0  0
   10.4143   -3.2924   23.4006 H   0  0  0  0  0  0  0  0  0  0  0  0
   10.0860   -2.0513   24.6249 H   0  0  0  0  0  0  0  0  0  0  0  0
    8.6395   -3.6046   24.4730 N   0  0  0  0  0  0  0  0  0  0  0  0
    7.7341   -3.1660   24.3938 H   0  0  0  0  0  0  0  0  0  0  0  0
    8.8167   -4.2093   25.7018 C   0  0  0  0  0  0  0  0  0  0  0  0
    7.6810   -4.7313   26.3424 C   0  0  0  0  0  0  0  0  0  0  0  0
    6.7086   -4.6360   25.8679 H   0  0  0  0  0  0  0  0  0  0  0  0
    7.8261   -5.3927   27.5599 C   0  0  0  0  0  0  0  0  0  0  0  0
    6.9650   -5.8262   28.0644 H   0  0  0  0  0  0  0  0  0  0  0  0
    9.0980   -5.5323   28.1230 C   0  0  0  0  0  0  0  0  0  0  0  0
    9.2006   -6.1184   29.0230 H   0  0  0  0  0  0  0  0  0  0  0  0
   10.2253   -4.9886   27.5085 C   0  0  0  0  0  0  0  0  0  0  0  0
   11.2081   -5.0840   27.9721 H   0  0  0  0  0  0  0  0  0  0  0  0
   10.0866   -4.3426   26.2809 C   0  0  0  0  0  0  0  0  0  0  0  0
   10.9356   -3.9274   25.7543 H   0  0  0  0  0  0  0  0  0  0  0  0
    8.1024   -0.8483   23.4159 C   0  0  0  0  0  0  0  0  0  0  0  0
    8.7428   -0.1682   23.9937 H   0  0  0  0  0  0  0  0  0  0  0  0
    7.3016   -1.1930   24.1118 H   0  0  0  0  0  0  0  0  0  0  0  0
  1  2  1  0
  2  3  2  0
  3  4  1  0
  4  5  2  0
  5  6  1  0
  5  7  1  0
  7  8  2  0
  8  9  1  0
  8 10  1  0
 10 11  1  0
 10 12  2  0
 12 13  1  0
  3 14  1  0
 14 15  1  0
 14 16  1  0
 14 17  1  0
 17 18  1  0
 17 19  1  0
 17 20  1  0
 20 21  1  0
 21 22  1  0
 21 23  1  0
 21 24  1  0
 24 25  1  0
 24 26  1  0
 26 27  2  0
 27 28  1  0
 27 29  1  0
 29 30  1  0
 29 31  2  0
 31 32  1  0
 31 33  1  0
 33 34  1  0
 33 35  2  0
 35 36  1  0
 20 37  1  0
 37 38  1  0
 37 39  1  0
 37  2  1  0
 12  4  1  0
 35 26  1  0
M  END
>  <plip>  (1) 
-0.03571428571428571

>  <filename>  (1) 
[H][C]1=[C]([c]2[c]([H])[n][c]([H])[c]([H])[c]2[H])[C]([H])([H])[C]([H])([H])[N]([C]([H])([H])[N]([H])[c]2[c]([H])[c]([H])[c]([H])[c]([H])[c]2[H])[C]1([H])[H]

$$$$
