
     RDKit          3D

 32 33  0  0  0  0  0  0  0  0999 V2000
    8.9203    0.3471   21.2332 H   0  0  0  0  0  0  0  0  0  0  0  0
    8.7139   -0.5933   21.0906 O   0  0  0  0  0  0  0  0  0  0  0  0
    7.3045   -0.6366   21.1831 N   0  0  0  0  0  0  0  0  0  0  0  0
    6.6883   -1.7557   21.8499 C   0  0  0  0  0  0  0  0  0  0  0  0
    5.6798   -2.2629   21.4404 O   0  0  0  0  0  0  0  0  0  0  0  0
    7.3707   -2.1202   22.9915 N   0  0  0  0  0  0  0  0  0  0  0  0
    8.2733   -1.7284   23.1684 H   0  0  0  0  0  0  0  0  0  0  0  0
    6.7586   -2.8587   23.9810 C   0  0  0  0  0  0  0  0  0  0  0  0
    5.5932   -3.1812   23.9473 O   0  0  0  0  0  0  0  0  0  0  0  0
    7.5883   -3.2073   25.0149 N   0  0  0  0  0  0  0  0  0  0  0  0
    9.0146   -2.9500   25.1938 C   0  0  0  0  0  0  0  0  0  0  0  0
    9.2050   -1.8896   25.4204 H   0  0  0  0  0  0  0  0  0  0  0  0
    9.5943   -3.2360   24.3069 H   0  0  0  0  0  0  0  0  0  0  0  0
    9.4169   -3.8386   26.3848 C   0  0  0  0  0  0  0  0  0  0  0  0
    9.9535   -4.7292   26.0459 H   0  0  0  0  0  0  0  0  0  0  0  0
   10.0711   -3.3105   27.0706 H   0  0  0  0  0  0  0  0  0  0  0  0
    8.1152   -4.1942   27.1014 C   0  0  0  0  0  0  0  0  0  0  0  0
    7.9197   -3.4817   27.9024 H   0  0  0  0  0  0  0  0  0  0  0  0
    8.1329   -5.1914   27.5481 H   0  0  0  0  0  0  0  0  0  0  0  0
    7.0239   -4.0757   26.0529 C   0  0  0  0  0  0  0  0  0  0  0  0
    6.7395   -5.0436   25.6219 H   0  0  0  0  0  0  0  0  0  0  0  0
    6.1170   -3.6185   26.4602 H   0  0  0  0  0  0  0  0  0  0  0  0
    6.6746   -0.0192   20.0641 C   0  0  0  0  0  0  0  0  0  0  0  0
    7.2660    0.0067   18.7858 C   0  0  0  0  0  0  0  0  0  0  0  0
    8.2189   -0.4946   18.6251 H   0  0  0  0  0  0  0  0  0  0  0  0
    6.7002    0.6075   17.7324 N   0  0  0  0  0  0  0  0  0  0  0  0
    5.5210    1.2262   17.9194 C   0  0  0  0  0  0  0  0  0  0  0  0
    5.0843    1.7150   17.0482 H   0  0  0  0  0  0  0  0  0  0  0  0
    4.8594    1.2526   19.1522 C   0  0  0  0  0  0  0  0  0  0  0  0
    3.9193    1.7817   19.2482 H   0  0  0  0  0  0  0  0  0  0  0  0
    5.4333    0.6015   20.2449 C   0  0  0  0  0  0  0  0  0  0  0  0
    4.9603    0.5667   21.2255 H   0  0  0  0  0  0  0  0  0  0  0  0
  1  2  1  0
  2  3  1  0
  3  4  1  0
  4  5  2  0
  4  6  1  0
  6  7  1  0
  6  8  1  0
  8  9  2  0
  8 10  1  0
 10 11  1  0
 11 12  1  0
 11 13  1  0
 11 14  1  0
 14 15  1  0
 14 16  1  0
 14 17  1  0
 17 18  1  0
 17 19  1  0
 17 20  1  0
 20 21  1  0
 20 22  1  0
  3 23  1  0
 23 24  2  0
 24 25  1  0
 24 26  1  0
 26 27  2  0
 27 28  1  0
 27 29  1  0
 29 30  1  0
 29 31  2  0
 31 32  1  0
 20 10  1  0
 31 23  1  0
M  END
>  <plip>  (1) 
-0.03571428571428571

>  <filename>  (1) 
[H][O][N]([C](=[O])[N]([H])[C](=[O])[N]1[C]([H])([H])[C]([H])([H])[C]([H])([H])[C]1([H])[H])[c]1[c]([H])[n][c]([H])[c]([H])[c]1[H]

$$$$
