
     RDKit          3D

 38 40  0  0  0  0  0  0  0  0999 V2000
    4.9718    1.8582   16.9129 H   0  0  0  0  0  0  0  0  0  0  0  0
    5.4150    1.3362   17.7576 C   0  0  0  0  0  0  0  0  0  0  0  0
    6.5805    0.7131   17.5193 N   0  0  0  0  0  0  0  0  0  0  0  0
    7.1510    0.0785   18.5495 C   0  0  0  0  0  0  0  0  0  0  0  0
    8.0977   -0.4208   18.3384 H   0  0  0  0  0  0  0  0  0  0  0  0
    6.6027    0.0156   19.8454 C   0  0  0  0  0  0  0  0  0  0  0  0
    7.3231   -0.6756   20.9890 C   0  0  2  0  0  0  0  0  0  0  0  0
    8.1592   -1.2404   20.5549 H   0  0  0  0  0  0  0  0  0  0  0  0
    6.4675   -1.7180   21.7244 C   0  0  0  0  0  0  0  0  0  0  0  0
    5.8243   -2.6322   21.2572 O   0  0  0  0  0  0  0  0  0  0  0  0
    6.5955   -1.4855   23.0643 N   0  0  0  0  0  0  0  0  0  0  0  0
    5.8659   -1.9397   23.5935 H   0  0  0  0  0  0  0  0  0  0  0  0
    7.0636   -0.1430   23.3787 C   0  0  0  0  0  0  0  0  0  0  0  0
    7.7057   -0.1744   24.2690 H   0  0  0  0  0  0  0  0  0  0  0  0
    6.2337    0.5589   23.5865 H   0  0  0  0  0  0  0  0  0  0  0  0
    7.8390    0.2924   22.1043 C   0  0  1  0  0  0  0  0  0  0  0  0
    7.5795    1.3279   21.8645 H   0  0  0  0  0  0  0  0  0  0  0  0
    9.3492    0.2313   22.2664 C   0  0  0  0  0  0  0  0  0  0  0  0
    9.9472   -1.0045   22.5507 C   0  0  0  0  0  0  0  0  0  0  0  0
    9.3331   -1.8916   22.6940 H   0  0  0  0  0  0  0  0  0  0  0  0
   11.3314   -1.1140   22.6593 C   0  0  0  0  0  0  0  0  0  0  0  0
   11.7743   -2.0930   22.8087 H   0  0  0  0  0  0  0  0  0  0  0  0
   12.1413    0.0187   22.5795 C   0  0  0  0  0  0  0  0  0  0  0  0
   13.2219   -0.0641   22.6883 H   0  0  0  0  0  0  0  0  0  0  0  0
   11.5438    1.2730   22.3682 C   0  0  0  0  0  0  0  0  0  0  0  0
   12.6108    2.7154   22.3069 S   0  0  0  0  0  0  0  0  0  0  0  0
   12.4517    3.3772   21.0185 O   0  0  0  0  0  0  0  0  0  0  0  0
   13.9082    2.3095   22.8289 O   0  0  0  0  0  0  0  0  0  0  0  0
   11.9753    3.8914   23.4454 C   0  0  0  0  0  0  0  0  0  0  0  0
   12.6953    4.7057   23.3679 H   0  0  0  0  0  0  0  0  0  0  0  0
   11.9258    3.4682   24.4447 H   0  0  0  0  0  0  0  0  0  0  0  0
   11.0088    4.2047   23.0608 H   0  0  0  0  0  0  0  0  0  0  0  0
   10.1598    1.3739   22.1541 C   0  0  0  0  0  0  0  0  0  0  0  0
    9.6849    2.3176   21.8818 H   0  0  0  0  0  0  0  0  0  0  0  0
    5.3804    0.6589   20.0645 C   0  0  0  0  0  0  0  0  0  0  0  0
    4.9142    0.6313   21.0534 H   0  0  0  0  0  0  0  0  0  0  0  0
    4.7782    1.3353   19.0029 C   0  0  0  0  0  0  0  0  0  0  0  0
    3.8428    1.8664   19.1310 H   0  0  0  0  0  0  0  0  0  0  0  0
  1  2  1  0
  2  3  2  0
  3  4  1  0
  4  5  1  0
  4  6  2  0
  6  7  1  0
  7  8  1  6
  7  9  1  0
  9 10  2  0
  9 11  1  0
 11 12  1  0
 11 13  1  0
 13 14  1  0
 13 15  1  0
 13 16  1  0
 16 17  1  6
 16 18  1  0
 18 19  2  0
 19 20  1  0
 19 21  1  0
 21 22  1  0
 21 23  2  0
 23 24  1  0
 23 25  1  0
 25 26  1  0
 26 27  2  0
 26 28  2  0
 26 29  1  0
 29 30  1  0
 29 31  1  0
 29 32  1  0
 25 33  2  0
 33 34  1  0
  6 35  1  0
 35 36  1  0
 35 37  2  0
 37 38  1  0
 37  2  1  0
 16  7  1  0
 33 18  1  0
M  END
>  <plip>  (1) 
-0.10714285714285714

>  <filename>  (1) 
[H][c]1[n][c]([H])[c]([C@]2([H])[C](=[O])[N]([H])[C]([H])([H])[C@@]2([H])[c]2[c]([H])[c]([H])[c]([H])[c]([S](=[O])(=[O])[C]([H])([H])[H])[c]2[H])[c]([H])[c]1[H]

$$$$
