
     RDKit          3D

 38 40  0  0  0  0  0  0  0  0999 V2000
    4.3854    3.1232   23.1556 C   0  0  0  0  0  0  0  0  0  0  0  0
    5.0523    1.9737   23.8646 C   0  0  0  0  0  0  0  0  0  0  0  0
    4.3828    1.1449   24.7793 C   0  0  0  0  0  0  0  0  0  0  0  0
    5.0138    0.0447   25.3912 C   0  0  0  0  0  0  0  0  0  0  0  0
    6.3470   -0.2705   25.1171 C   0  0  0  0  0  0  0  0  0  0  0  0
    7.0018    0.5652   24.2292 C   0  0  0  0  0  0  0  0  0  0  0  0
    6.4097    1.6734   23.6217 C   0  0  0  0  0  0  0  0  0  0  0  0
    7.3709    2.3005   22.8202 N   0  0  0  0  0  0  0  0  0  0  0  0
    8.4312    1.5765   22.9763 C   0  0  0  0  0  0  0  0  0  0  0  0
    9.7547    1.7772   22.3270 C   0  0  0  0  0  0  0  0  0  0  0  0
    9.7354    1.2805   20.8777 C   0  0  0  0  0  0  0  0  0  0  0  0
    9.7051   -0.1719   20.7423 N   0  0  0  0  0  0  0  0  0  0  0  0
    8.6917   -1.0007   21.0970 C   0  0  0  0  0  0  0  0  0  0  0  0
    9.0218   -2.4968   21.7270 S   0  0  0  0  0  0  0  0  0  0  0  0
    7.3972   -0.6022   20.9578 N   0  0  0  0  0  0  0  0  0  0  0  0
    6.7391    0.0701   19.8985 C   0  0  0  0  0  0  0  0  0  0  0  0
    5.5202    0.6913   20.1901 C   0  0  0  0  0  0  0  0  0  0  0  0
    4.8304    1.3206   19.1465 C   0  0  0  0  0  0  0  0  0  0  0  0
    5.3891    1.3183   17.8635 C   0  0  0  0  0  0  0  0  0  0  0  0
    6.5490    0.7131   17.5621 N   0  0  0  0  0  0  0  0  0  0  0  0
    7.2032    0.1056   18.5627 C   0  0  0  0  0  0  0  0  0  0  0  0
    8.1308   -0.4042   18.3073 H   0  0  0  0  0  0  0  0  0  0  0  0
    4.8785    1.8080   17.0374 H   0  0  0  0  0  0  0  0  0  0  0  0
    3.8710    1.8042   19.3069 H   0  0  0  0  0  0  0  0  0  0  0  0
    5.1748    0.6958   21.2262 H   0  0  0  0  0  0  0  0  0  0  0  0
    6.8119   -1.2072   21.5194 H   0  0  0  0  0  0  0  0  0  0  0  0
   10.5665   -0.6730   20.9193 H   0  0  0  0  0  0  0  0  0  0  0  0
   10.6378    1.6505   20.3820 H   0  0  0  0  0  0  0  0  0  0  0  0
    8.8695    1.7058   20.3565 H   0  0  0  0  0  0  0  0  0  0  0  0
    9.9549    2.8520   22.3103 H   0  0  0  0  0  0  0  0  0  0  0  0
   10.5337    1.2805   22.9123 H   0  0  0  0  0  0  0  0  0  0  0  0
    8.2981    0.4961   23.7924 O   0  0  0  0  0  0  0  0  0  0  0  0
    6.8648   -1.1118   25.5602 H   0  0  0  0  0  0  0  0  0  0  0  0
    4.4606   -0.5718   26.0937 H   0  0  0  0  0  0  0  0  0  0  0  0
    3.3527    1.3663   25.0421 H   0  0  0  0  0  0  0  0  0  0  0  0
    4.0689    2.8603   22.1361 H   0  0  0  0  0  0  0  0  0  0  0  0
    3.4977    3.4699   23.6935 H   0  0  0  0  0  0  0  0  0  0  0  0
    5.0826    3.9613   23.0542 H   0  0  0  0  0  0  0  0  0  0  0  0
  1  2  1  0
  2  3  2  0
  3  4  1  0
  4  5  2  0
  5  6  1  0
  6  7  2  0
  7  8  1  0
  8  9  2  0
  9 10  1  0
 10 11  1  0
 11 12  1  0
 12 13  1  0
 13 14  2  0
 13 15  1  0
 15 16  1  0
 16 17  2  0
 17 18  1  0
 18 19  2  0
 19 20  1  0
 20 21  2  0
 21 22  1  0
 19 23  1  0
 18 24  1  0
 17 25  1  0
 15 26  1  0
 12 27  1  0
 11 28  1  0
 11 29  1  0
 10 30  1  0
 10 31  1  0
  9 32  1  0
  5 33  1  0
  4 34  1  0
  3 35  1  0
  1 36  1  0
  1 37  1  0
  1 38  1  0
  7  2  1  0
 21 16  1  0
 32  6  1  0
M  END
>  <plip>  (1) 
-0.10344827586206896

>  <filename>  (1) 
[H][c]1[n][c]([H])[c]([N]([H])[C](=[S])[N]([H])[C]([H])([H])[C]([H])([H])[c]2[n][c]3[c]([C]([H])([H])[H])[c]([H])[c]([H])[c]([H])[c]3[o]2)[c]([H])[c]1[H]

$$$$
