
     RDKit          3D

 32 33  0  0  0  0  0  0  0  0999 V2000
    5.0225    1.8139   16.9427 H   0  0  0  0  0  0  0  0  0  0  0  0
    5.4458    1.3279   17.8163 C   0  0  0  0  0  0  0  0  0  0  0  0
    6.5923    0.6577   17.6248 N   0  0  0  0  0  0  0  0  0  0  0  0
    7.1401    0.0593   18.6955 C   0  0  0  0  0  0  0  0  0  0  0  0
    8.0671   -0.4893   18.5240 H   0  0  0  0  0  0  0  0  0  0  0  0
    6.5953    0.1014   19.9999 C   0  0  0  0  0  0  0  0  0  0  0  0
    7.1831   -0.5756   21.1032 N   0  0  0  0  0  0  0  0  0  0  0  0
    6.4287   -0.8487   21.7349 H   0  0  0  0  0  0  0  0  0  0  0  0
    8.2236    0.1295   21.9447 C   0  0  0  0  0  0  0  0  0  0  0  0
    8.8457   -0.9093   22.8820 C   0  0  0  0  0  0  0  0  0  0  0  0
    8.9203   -0.8563   24.1996 N   0  0  0  0  0  0  0  0  0  0  0  0
    9.5055   -2.0321   24.5802 C   0  0  0  0  0  0  0  0  0  0  0  0
    9.6372   -2.2715   25.6274 H   0  0  0  0  0  0  0  0  0  0  0  0
    9.8200   -2.7890   23.4874 C   0  0  0  0  0  0  0  0  0  0  0  0
   10.3438   -3.7307   23.3834 H   0  0  0  0  0  0  0  0  0  0  0  0
    9.3884   -2.0746   22.3930 N   0  0  0  0  0  0  0  0  0  0  0  0
    9.4295   -2.5393   21.0100 C   0  0  0  0  0  0  0  0  0  0  0  0
    8.8087   -1.9214   20.3673 H   0  0  0  0  0  0  0  0  0  0  0  0
   10.4460   -2.5299   20.6140 H   0  0  0  0  0  0  0  0  0  0  0  0
    9.0229   -3.5517   20.9467 H   0  0  0  0  0  0  0  0  0  0  0  0
    7.4988    1.2205   22.7445 C   0  0  0  0  0  0  0  0  0  0  0  0
    8.1836    1.7585   23.4066 H   0  0  0  0  0  0  0  0  0  0  0  0
    6.7109    0.7769   23.3614 H   0  0  0  0  0  0  0  0  0  0  0  0
    7.0375    1.9319   22.0532 H   0  0  0  0  0  0  0  0  0  0  0  0
    9.3279    0.7716   21.0756 C   0  0  0  0  0  0  0  0  0  0  0  0
    8.9107    1.5962   20.4927 H   0  0  0  0  0  0  0  0  0  0  0  0
    9.7890    0.0637   20.3796 H   0  0  0  0  0  0  0  0  0  0  0  0
   10.1208    1.1777   21.7139 H   0  0  0  0  0  0  0  0  0  0  0  0
    5.3805    0.7822   20.1643 C   0  0  0  0  0  0  0  0  0  0  0  0
    4.9356    0.8169   21.1625 H   0  0  0  0  0  0  0  0  0  0  0  0
    4.8003    1.4083   19.0565 C   0  0  0  0  0  0  0  0  0  0  0  0
    3.8724    1.9601   19.1444 H   0  0  0  0  0  0  0  0  0  0  0  0
  1  2  1  0
  2  3  2  0
  3  4  1  0
  4  5  1  0
  4  6  2  0
  6  7  1  0
  7  8  1  0
  7  9  1  0
  9 10  1  0
 10 11  2  0
 11 12  1  0
 12 13  1  0
 12 14  2  0
 14 15  1  0
 14 16  1  0
 16 17  1  0
 17 18  1  0
 17 19  1  0
 17 20  1  0
  9 21  1  0
 21 22  1  0
 21 23  1  0
 21 24  1  0
  9 25  1  0
 25 26  1  0
 25 27  1  0
 25 28  1  0
  6 29  1  0
 29 30  1  0
 29 31  2  0
 31 32  1  0
 31  2  1  0
 16 10  1  0
M  END
>  <plip>  (1) 
-0.10714285714285714

>  <filename>  (1) 
[H][c]1[n][c]([H])[c]([N]([H])[C]([c]2[n][c]([H])[c]([H])[n]2[C]([H])([H])[H])([C]([H])([H])[H])[C]([H])([H])[H])[c]([H])[c]1[H]

$$$$
