
     RDKit          3D

 26 26  0  0  0  0  0  0  0  0999 V2000
   10.0828    4.3629   22.6330 H   0  0  0  0  0  0  0  0  0  0  0  0
    9.8884    3.4270   22.7244 O   0  0  0  0  0  0  0  0  0  0  0  0
   10.9097    2.7848   23.4821 C   0  0  0  0  0  0  0  0  0  0  0  0
   11.8872    3.2603   23.3062 H   0  0  0  0  0  0  0  0  0  0  0  0
   10.6767    2.8792   24.5538 H   0  0  0  0  0  0  0  0  0  0  0  0
   10.9421    1.3238   23.0544 C   0  0  0  0  0  0  0  0  0  0  0  0
   11.8409    0.8318   23.4491 H   0  0  0  0  0  0  0  0  0  0  0  0
   11.0241    1.2998   21.9606 H   0  0  0  0  0  0  0  0  0  0  0  0
    9.7040    0.5262   23.4800 C   0  0  0  0  0  0  0  0  0  0  0  0
    9.6480    0.4790   24.5816 H   0  0  0  0  0  0  0  0  0  0  0  0
    9.7885   -0.5120   23.1250 H   0  0  0  0  0  0  0  0  0  0  0  0
    8.4732    1.0967   22.9806 N   0  0  0  0  0  0  0  0  0  0  0  0
    8.5112    2.0377   22.6104 H   0  0  0  0  0  0  0  0  0  0  0  0
    7.1162    0.1752   22.6767 S   0  0  0  0  0  0  0  0  0  0  0  0
    7.3796   -0.6045   21.0442 C   0  0  0  0  0  0  0  0  0  0  0  0
    8.4035   -1.8562   20.8376 S   0  0  0  0  0  0  0  0  0  0  0  0
    6.6222    0.0064   19.9210 C   0  0  0  0  0  0  0  0  0  0  0  0
    7.1517   -0.0075   18.6108 C   0  0  0  0  0  0  0  0  0  0  0  0
    8.0778   -0.5381   18.4019 H   0  0  0  0  0  0  0  0  0  0  0  0
    6.5816    0.6107   17.5717 N   0  0  0  0  0  0  0  0  0  0  0  0
    5.4329    1.2696   17.7978 C   0  0  0  0  0  0  0  0  0  0  0  0
    5.0159    1.8226   16.9566 H   0  0  0  0  0  0  0  0  0  0  0  0
    4.7948    1.2923   19.0409 C   0  0  0  0  0  0  0  0  0  0  0  0
    3.8772    1.8520   19.1682 H   0  0  0  0  0  0  0  0  0  0  0  0
    5.3865    0.6456   20.1218 C   0  0  0  0  0  0  0  0  0  0  0  0
    4.9152    0.6444   21.1070 H   0  0  0  0  0  0  0  0  0  0  0  0
  1  2  1  0
  2  3  1  0
  3  4  1  0
  3  5  1  0
  3  6  1  0
  6  7  1  0
  6  8  1  0
  6  9  1  0
  9 10  1  0
  9 11  1  0
  9 12  1  0
 12 13  1  0
 12 14  1  0
 14 15  1  0
 15 16  2  0
 15 17  1  0
 17 18  2  0
 18 19  1  0
 18 20  1  0
 20 21  2  0
 21 22  1  0
 21 23  1  0
 23 24  1  0
 23 25  2  0
 25 26  1  0
 25 17  1  0
M  END
>  <plip>  (1) 
-0.03571428571428571

>  <filename>  (1) 
[H][O][C]([H])([H])[C]([H])([H])[C]([H])([H])[N]([H])[S][C](=[S])[c]1[c]([H])[n][c]([H])[c]([H])[c]1[H]

$$$$
