
     RDKit          3D

 35 36  0  0  0  0  0  0  0  0999 V2000
    4.9667    1.7537   16.9500 H   0  0  0  0  0  0  0  0  0  0  0  0
    5.4370    1.2606   17.7976 C   0  0  0  0  0  0  0  0  0  0  0  0
    6.5848    0.6100   17.5426 N   0  0  0  0  0  0  0  0  0  0  0  0
    7.1898    0.0009   18.5643 C   0  0  0  0  0  0  0  0  0  0  0  0
    8.1147   -0.5266   18.3465 H   0  0  0  0  0  0  0  0  0  0  0  0
    6.7078    0.0276   19.8892 C   0  0  0  0  0  0  0  0  0  0  0  0
    7.4282   -0.5906   20.9345 N   0  0  0  0  0  0  0  0  0  0  0  0
    7.5467   -0.1999   22.2800 C   0  0  0  0  0  0  0  0  0  0  0  0
    7.0318    0.7854   22.7784 O   0  0  0  0  0  0  0  0  0  0  0  0
    8.3705   -1.2381   22.8704 C   0  0  0  0  0  0  0  0  0  0  0  0
    8.4798   -1.3273   24.3208 C   0  0  0  0  0  0  0  0  0  0  0  0
    8.3172   -2.3957   24.8942 O   0  0  0  0  0  0  0  0  0  0  0  0
    8.7218   -0.1518   25.0031 N   0  0  0  0  0  0  0  0  0  0  0  0
    9.6055    0.8937   24.4857 C   0  0  0  0  0  0  0  0  0  0  0  0
    9.2179    1.2237   23.5167 H   0  0  0  0  0  0  0  0  0  0  0  0
    9.5347    1.7509   25.1705 H   0  0  0  0  0  0  0  0  0  0  0  0
   11.0687    0.4585   24.3501 C   0  0  0  0  0  0  0  0  0  0  0  0
   11.4672    0.0710   25.2949 H   0  0  0  0  0  0  0  0  0  0  0  0
   11.6952    1.3108   24.0660 H   0  0  0  0  0  0  0  0  0  0  0  0
   11.1843   -0.3159   23.5840 H   0  0  0  0  0  0  0  0  0  0  0  0
    8.3010   -0.0770   26.4000 C   0  0  0  0  0  0  0  0  0  0  0  0
    8.0527    0.9750   26.6033 H   0  0  0  0  0  0  0  0  0  0  0  0
    7.3722   -0.6485   26.5147 H   0  0  0  0  0  0  0  0  0  0  0  0
    9.3528   -0.6014   27.3691 C   0  0  0  0  0  0  0  0  0  0  0  0
   10.3416   -0.1820   27.1569 H   0  0  0  0  0  0  0  0  0  0  0  0
    9.1081   -0.3327   28.4010 H   0  0  0  0  0  0  0  0  0  0  0  0
    9.4167   -1.6913   27.3106 H   0  0  0  0  0  0  0  0  0  0  0  0
    8.6670   -2.1483   21.9140 C   0  0  0  0  0  0  0  0  0  0  0  0
    9.1970   -3.0934   21.9826 H   0  0  0  0  0  0  0  0  0  0  0  0
    8.2222   -1.7151   20.6785 N   0  0  0  0  0  0  0  0  0  0  0  0
    7.7569   -2.3797   20.0628 H   0  0  0  0  0  0  0  0  0  0  0  0
    5.5025    0.6987   20.1451 C   0  0  0  0  0  0  0  0  0  0  0  0
    5.1046    0.7413   21.1561 H   0  0  0  0  0  0  0  0  0  0  0  0
    4.8554    1.3114   19.0682 C   0  0  0  0  0  0  0  0  0  0  0  0
    3.9131    1.8303   19.2028 H   0  0  0  0  0  0  0  0  0  0  0  0
  1  2  1  0
  2  3  2  0
  3  4  1  0
  4  5  1  0
  4  6  2  0
  6  7  1  0
  7  8  1  0
  8  9  2  0
  8 10  1  0
 10 11  1  0
 11 12  2  0
 11 13  1  0
 13 14  1  0
 14 15  1  0
 14 16  1  0
 14 17  1  0
 17 18  1  0
 17 19  1  0
 17 20  1  0
 13 21  1  0
 21 22  1  0
 21 23  1  0
 21 24  1  0
 24 25  1  0
 24 26  1  0
 24 27  1  0
 10 28  2  0
 28 29  1  0
 28 30  1  0
 30 31  1  0
  6 32  1  0
 32 33  1  0
 32 34  2  0
 34 35  1  0
 34  2  1  0
 30  7  1  0
M  END
>  <plip>  (1) 
-0.06666666666666667

>  <filename>  (1) 
[H][c]1[n][c]([H])[c](-[n]2[c](=[O])[c]([C](=[O])[N]([C]([H])([H])[C]([H])([H])[H])[C]([H])([H])[C]([H])([H])[H])[c]([H])[n]2[H])[c]([H])[c]1[H]

$$$$
