
     RDKit          3D

 46 48  0  0  0  0  0  0  0  0999 V2000
    5.3281   -3.2858   22.9751 C   0  0  0  0  0  0  0  0  0  0  0  0
    6.1960   -2.1847   22.6767 O   0  0  0  0  0  0  0  0  0  0  0  0
    6.7104   -2.1369   21.4448 C   0  0  0  0  0  0  0  0  0  0  0  0
    6.6833   -3.0417   20.6454 O   0  0  0  0  0  0  0  0  0  0  0  0
    7.3838   -0.7784   21.0644 C   0  0  0  0  0  0  0  0  0  0  0  0
    7.5919    0.1779   22.1273 O   0  0  0  0  0  0  0  0  0  0  0  0
    8.4086   -0.1676   23.1522 C   0  0  0  0  0  0  0  0  0  0  0  0
    8.9892   -1.2227   23.2015 O   0  0  0  0  0  0  0  0  0  0  0  0
    8.5471    0.9285   24.1876 C   0  0  0  0  0  0  0  0  0  0  0  0
    7.2437    1.4669   24.8367 C   0  0  0  0  0  0  0  0  0  0  0  0
    6.5403    0.3587   25.6545 C   0  0  0  0  0  0  0  0  0  0  0  0
    5.1655    0.8030   26.1555 C   0  0  0  0  0  0  0  0  0  0  0  0
    4.2559    1.1317   24.9652 C   0  0  0  0  0  0  0  0  0  0  0  0
    4.9035    2.0294   23.9141 C   0  0  0  0  0  0  0  0  0  0  0  0
    4.0988    2.6964   22.9671 C   0  0  0  0  0  0  0  0  0  0  0  0
    4.6579    3.5706   22.0353 C   0  0  0  0  0  0  0  0  0  0  0  0
    6.0382    3.8051   22.0499 C   0  0  0  0  0  0  0  0  0  0  0  0
    6.8463    3.1328   22.9614 C   0  0  0  0  0  0  0  0  0  0  0  0
    6.3056    2.2003   23.8696 C   0  0  0  0  0  0  0  0  0  0  0  0
    7.9113    3.3566   22.9749 H   0  0  0  0  0  0  0  0  0  0  0  0
    6.4790    4.5095   21.3504 H   0  0  0  0  0  0  0  0  0  0  0  0
    4.0343    4.0723   21.2961 H   0  0  0  0  0  0  0  0  0  0  0  0
    3.0216    2.5472   22.9591 H   0  0  0  0  0  0  0  0  0  0  0  0
    3.3206    1.5825   25.3186 H   0  0  0  0  0  0  0  0  0  0  0  0
    3.9699    0.1913   24.4819 H   0  0  0  0  0  0  0  0  0  0  0  0
    5.2618    1.6791   26.8141 H   0  0  0  0  0  0  0  0  0  0  0  0
    4.7155   -0.0011   26.7527 H   0  0  0  0  0  0  0  0  0  0  0  0
    7.1840    0.0787   26.4996 H   0  0  0  0  0  0  0  0  0  0  0  0
    6.4091   -0.5409   25.0345 H   0  0  0  0  0  0  0  0  0  0  0  0
    7.5756    2.2416   25.5518 H   0  0  0  0  0  0  0  0  0  0  0  0
    9.2008    0.5312   24.9672 H   0  0  0  0  0  0  0  0  0  0  0  0
    9.0937    1.7486   23.7091 H   0  0  0  0  0  0  0  0  0  0  0  0
    6.6459   -0.0315   19.9707 C   0  0  0  0  0  0  0  0  0  0  0  0
    5.4362    0.6339   20.1955 C   0  0  0  0  0  0  0  0  0  0  0  0
    4.8235    1.2910   19.1287 C   0  0  0  0  0  0  0  0  0  0  0  0
    5.4433    1.2846   17.8738 C   0  0  0  0  0  0  0  0  0  0  0  0
    6.6105    0.6671   17.6436 N   0  0  0  0  0  0  0  0  0  0  0  0
    7.1869    0.0428   18.6781 C   0  0  0  0  0  0  0  0  0  0  0  0
    8.1392   -0.4422   18.4635 H   0  0  0  0  0  0  0  0  0  0  0  0
    4.9793    1.7925   17.0270 H   0  0  0  0  0  0  0  0  0  0  0  0
    3.8952    1.8375   19.2614 H   0  0  0  0  0  0  0  0  0  0  0  0
    4.9987    0.6734   21.1966 H   0  0  0  0  0  0  0  0  0  0  0  0
    8.3511   -1.0901   20.6517 H   0  0  0  0  0  0  0  0  0  0  0  0
    4.6126   -3.4234   22.1545 H   0  0  0  0  0  0  0  0  0  0  0  0
    4.8151   -3.0039   23.8973 H   0  0  0  0  0  0  0  0  0  0  0  0
    5.9063   -4.2036   23.1321 H   0  0  0  0  0  0  0  0  0  0  0  0
  1  2  1  0
  2  3  1  0
  3  4  2  0
  3  5  1  0
  5  6  1  0
  6  7  1  0
  7  8  2  0
  7  9  1  0
  9 10  1  0
 10 11  1  0
 11 12  1  0
 12 13  1  0
 13 14  1  0
 14 15  2  0
 15 16  1  0
 16 17  2  0
 17 18  1  0
 18 19  2  0
 18 20  1  0
 17 21  1  0
 16 22  1  0
 15 23  1  0
 13 24  1  0
 13 25  1  0
 12 26  1  0
 12 27  1  0
 11 28  1  0
 11 29  1  0
 10 30  1  0
  9 31  1  0
  9 32  1  0
  5 33  1  0
 33 34  2  0
 34 35  1  0
 35 36  2  0
 36 37  1  0
 37 38  2  0
 38 39  1  0
 36 40  1  0
 35 41  1  0
 34 42  1  0
  5 43  1  0
  1 44  1  0
  1 45  1  0
  1 46  1  0
 19 10  1  0
 38 33  1  0
 19 14  1  0
M  END
>  <plip>  (1) 
-0.07142857142857142

>  <filename>  (1) 
[H][c]1[n][c]([H])[c]([C]([H])([O][C](=[O])[C]([H])([H])[C]2([H])[c]3[c]([H])[c]([H])[c]([H])[c]([H])[c]3[C]([H])([H])[C]([H])([H])[C]2([H])[H])[C](=[O])[O][C]([H])([H])[H])[c]([H])[c]1[H]

$$$$
