
     RDKit          3D

 25 27  0  0  0  0  0  0  0  0999 V2000
    8.7425   -2.0039   19.9380 H   0  0  0  0  0  0  0  0  0  0  0  0
    8.3508   -1.6673   20.8809 C   0  0  0  0  0  0  0  0  0  0  0  0
    8.8497   -2.1931   22.0350 N   0  0  0  0  0  0  0  0  0  0  0  0
    8.2865   -1.6107   23.0545 C   0  0  0  0  0  0  0  0  0  0  0  0
    8.6065   -1.9229   24.4516 C   0  0  0  0  0  0  0  0  0  0  0  0
    9.5464   -2.9291   24.7461 C   0  0  0  0  0  0  0  0  0  0  0  0
   10.0983   -3.4487   23.9719 H   0  0  0  0  0  0  0  0  0  0  0  0
    9.8192   -3.3205   25.9895 N   0  0  0  0  0  0  0  0  0  0  0  0
    9.2750   -2.6821   27.0300 N   0  0  0  0  0  0  0  0  0  0  0  0
    8.3929   -1.7027   26.8179 C   0  0  0  0  0  0  0  0  0  0  0  0
    7.9683   -1.2552   27.7067 H   0  0  0  0  0  0  0  0  0  0  0  0
    7.9943   -1.2991   25.5399 C   0  0  0  0  0  0  0  0  0  0  0  0
    7.2323   -0.5322   25.4316 H   0  0  0  0  0  0  0  0  0  0  0  0
    7.0967   -0.4104   22.6597 S   0  0  0  0  0  0  0  0  0  0  0  0
    7.3877   -0.7054   20.9788 C   0  0  0  0  0  0  0  0  0  0  0  0
    6.6620    0.0038   19.9102 C   0  0  0  0  0  0  0  0  0  0  0  0
    7.1651    0.0652   18.5920 C   0  0  0  0  0  0  0  0  0  0  0  0
    8.1158   -0.4106   18.3621 H   0  0  0  0  0  0  0  0  0  0  0  0
    6.5615    0.6810   17.5708 N   0  0  0  0  0  0  0  0  0  0  0  0
    5.3976    1.2958   17.8333 C   0  0  0  0  0  0  0  0  0  0  0  0
    4.9171    1.7854   16.9900 H   0  0  0  0  0  0  0  0  0  0  0  0
    4.8047    1.3116   19.1009 C   0  0  0  0  0  0  0  0  0  0  0  0
    3.8736    1.8430   19.2560 H   0  0  0  0  0  0  0  0  0  0  0  0
    5.4370    0.6540   20.1551 C   0  0  0  0  0  0  0  0  0  0  0  0
    5.0051    0.6333   21.1584 H   0  0  0  0  0  0  0  0  0  0  0  0
  1  2  1  0
  2  3  1  0
  3  4  2  0
  4  5  1  0
  5  6  2  0
  6  7  1  0
  6  8  1  0
  8  9  2  0
  9 10  1  0
 10 11  1  0
 10 12  2  0
 12 13  1  0
  4 14  1  0
 14 15  1  0
 15 16  1  0
 16 17  2  0
 17 18  1  0
 17 19  1  0
 19 20  2  0
 20 21  1  0
 20 22  1  0
 22 23  1  0
 22 24  2  0
 24 25  1  0
 15  2  2  0
 24 16  1  0
 12  5  1  0
M  END
>  <plip>  (1) 
-0.03571428571428571

>  <filename>  (1) 
[H][c]1[n][c](-[c]2[c]([H])[n][n][c]([H])[c]2[H])[s][c]1-[c]1[c]([H])[n][c]([H])[c]([H])[c]1[H]

$$$$
