
     RDKit          3D

 32 34  0  0  0  0  0  0  0  0999 V2000
    4.9456    1.7997   16.9849 H   0  0  0  0  0  0  0  0  0  0  0  0
    5.4049    1.2944   17.8321 C   0  0  0  0  0  0  0  0  0  0  0  0
    6.5680    0.6723   17.5813 N   0  0  0  0  0  0  0  0  0  0  0  0
    7.1569    0.0428   18.6052 C   0  0  0  0  0  0  0  0  0  0  0  0
    8.1158   -0.4297   18.3824 H   0  0  0  0  0  0  0  0  0  0  0  0
    6.6227   -0.0266   19.8972 C   0  0  0  0  0  0  0  0  0  0  0  0
    7.4121   -0.7136   20.9887 C   0  0  1  0  0  0  0  0  0  0  0  0
    8.2297   -1.2866   20.5285 H   0  0  0  0  0  0  0  0  0  0  0  0
    8.1265    0.5312   22.1374 S   0  0  0  0  0  0  0  0  0  0  0  0
    7.0139    0.0487   23.4713 C   0  0  0  0  0  0  0  0  0  0  0  0
    7.5192    0.0500   24.4362 H   0  0  0  0  0  0  0  0  0  0  0  0
    6.1384    0.6955   23.5362 H   0  0  0  0  0  0  0  0  0  0  0  0
    6.5176   -1.3391   23.1600 C   0  0  0  0  0  0  0  0  0  0  0  0
    6.0783   -2.0789   24.0187 O   0  0  0  0  0  0  0  0  0  0  0  0
    6.6027   -1.6228   21.8075 N   0  0  0  0  0  0  0  0  0  0  0  0
    6.2658   -2.9208   21.2931 C   0  0  0  0  0  0  0  0  0  0  0  0
    5.7530   -3.0945   20.0008 C   0  0  0  0  0  0  0  0  0  0  0  0
    5.5271   -2.2253   19.3956 H   0  0  0  0  0  0  0  0  0  0  0  0
    5.5120   -4.3857   19.5183 C   0  0  0  0  0  0  0  0  0  0  0  0
    5.1314   -4.5087   18.5209 H   0  0  0  0  0  0  0  0  0  0  0  0
    5.7006   -5.5129   20.3224 C   0  0  0  0  0  0  0  0  0  0  0  0
    5.4479   -6.5166   19.9919 H   0  0  0  0  0  0  0  0  0  0  0  0
    6.2044   -5.3122   21.6076 C   0  0  0  0  0  0  0  0  0  0  0  0
    6.4639   -6.4554   22.5168 N   0  0  0  0  0  4  0  0  0  0  0  0
    6.2198   -7.5790   22.1102 O   0  0  0  0  0  0  0  0  0  0  0  0
    6.9167   -6.2079   23.6214 O   0  0  0  0  0  1  0  0  0  0  0  0
    6.4942   -4.0392   22.0915 C   0  0  0  0  0  0  0  0  0  0  0  0
    6.8901   -3.9103   23.0849 H   0  0  0  0  0  0  0  0  0  0  0  0
    5.4130    0.6327   20.1442 C   0  0  0  0  0  0  0  0  0  0  0  0
    4.9844    0.6267   21.1486 H   0  0  0  0  0  0  0  0  0  0  0  0
    4.7947    1.3076   19.0915 C   0  0  0  0  0  0  0  0  0  0  0  0
    3.8697    1.8553   19.2370 H   0  0  0  0  0  0  0  0  0  0  0  0
  1  2  1  0
  2  3  2  0
  3  4  1  0
  4  5  1  0
  4  6  2  0
  6  7  1  0
  7  8  1  6
  7  9  1  0
  9 10  1  0
 10 11  1  0
 10 12  1  0
 10 13  1  0
 13 14  2  0
 13 15  1  0
 15 16  1  0
 16 17  2  0
 17 18  1  0
 17 19  1  0
 19 20  1  0
 19 21  2  0
 21 22  1  0
 21 23  1  0
 23 24  1  0
 24 25  2  0
 24 26  1  0
 23 27  2  0
 27 28  1  0
  6 29  1  0
 29 30  1  0
 29 31  2  0
 31 32  1  0
 31  2  1  0
 15  7  1  0
 27 16  1  0
M  CHG  2  24   1  26  -1
M  END
>  <plip>  (1) 
-0.0

>  <filename>  (1) 
[H][c]1[n][c]([H])[c]([C@@]2([H])[S][C]([H])([H])[C](=[O])[N]2[c]2[c]([H])[c]([H])[c]([H])[c]([N+](=[O])[O-])[c]2[H])[c]([H])[c]1[H]

$$$$
