
     RDKit          3D

 29 31  0  0  0  0  0  0  0  0999 V2000
    7.9592    1.5496   21.9548 H   0  0  0  0  0  0  0  0  0  0  0  0
    8.8885    1.0611   21.6641 C   0  0  0  0  0  0  0  0  0  0  0  0
   10.0557    1.7083   21.8099 C   0  0  0  0  0  0  0  0  0  0  0  0
   10.2209    3.3437   22.4742 S   0  0  0  0  0  0  0  0  0  0  0  0
   12.0027    3.3319   22.1972 C   0  0  0  0  0  0  0  0  0  0  0  0
   12.7876    4.2149   22.3888 O   0  0  0  0  0  0  0  0  0  0  0  0
   12.3589    2.1009   21.7346 N   0  0  0  0  0  0  0  0  0  0  0  0
   13.3311    1.9188   21.5785 H   0  0  0  0  0  0  0  0  0  0  0  0
   11.4170    1.1412   21.5282 C   0  0  0  0  0  0  0  0  0  0  0  0
   11.6854    0.0117   21.1944 O   0  0  0  0  0  0  0  0  0  0  0  0
    8.7573   -0.3808   21.2607 C   0  0  1  0  0  0  0  0  0  0  0  0
    9.3990   -0.5821   20.3947 H   0  0  0  0  0  0  0  0  0  0  0  0
    9.2987   -1.5775   22.5633 S   0  0  0  0  0  0  0  0  0  0  0  0
    7.6054   -2.1101   22.8886 C   0  0  0  0  0  0  0  0  0  0  0  0
    7.5308   -3.1958   22.8953 H   0  0  0  0  0  0  0  0  0  0  0  0
    7.2175   -1.7314   23.8373 H   0  0  0  0  0  0  0  0  0  0  0  0
    6.7200   -1.6215   21.7636 C   0  0  0  0  0  0  0  0  0  0  0  0
    5.6020   -2.0486   21.5736 O   0  0  0  0  0  0  0  0  0  0  0  0
    7.3562   -0.6871   20.9691 N   0  0  0  0  0  0  0  0  0  0  0  0
    6.6687    0.0042   19.9117 C   0  0  0  0  0  0  0  0  0  0  0  0
    7.1852    0.0630   18.5988 C   0  0  0  0  0  0  0  0  0  0  0  0
    8.1317   -0.4256   18.3675 H   0  0  0  0  0  0  0  0  0  0  0  0
    6.5694    0.6763   17.5812 N   0  0  0  0  0  0  0  0  0  0  0  0
    5.4060    1.2932   17.8398 C   0  0  0  0  0  0  0  0  0  0  0  0
    4.9311    1.7875   16.9943 H   0  0  0  0  0  0  0  0  0  0  0  0
    4.8179    1.3104   19.1092 C   0  0  0  0  0  0  0  0  0  0  0  0
    3.8832    1.8378   19.2551 H   0  0  0  0  0  0  0  0  0  0  0  0
    5.4514    0.6455   20.1655 C   0  0  0  0  0  0  0  0  0  0  0  0
    5.0260    0.6085   21.1671 H   0  0  0  0  0  0  0  0  0  0  0  0
  1  2  1  0
  2  3  2  3
  3  4  1  0
  4  5  1  0
  5  6  2  0
  5  7  1  0
  7  8  1  0
  7  9  1  0
  9 10  2  0
  2 11  1  0
 11 12  1  6
 11 13  1  0
 13 14  1  0
 14 15  1  0
 14 16  1  0
 14 17  1  0
 17 18  2  0
 17 19  1  0
 19 20  1  0
 20 21  2  0
 21 22  1  0
 21 23  1  0
 23 24  2  0
 24 25  1  0
 24 26  1  0
 26 27  1  0
 26 28  2  0
 28 29  1  0
  9  3  1  0
 19 11  1  0
 28 20  1  0
M  END
>  <plip>  (1) 
-0.10714285714285714

>  <filename>  (1) 
[H][C](=[C]1[S][C](=[O])[N]([H])[C]1=[O])[C@@]1([H])[S][C]([H])([H])[C](=[O])[N]1[c]1[c]([H])[n][c]([H])[c]([H])[c]1[H]

$$$$
