
     RDKit          3D

 26 28  0  0  0  0  0  0  0  0999 V2000
    4.9558    1.7937   16.9576 H   0  0  0  0  0  0  0  0  0  0  0  0
    5.4117    1.3205   17.8298 C   0  0  0  0  0  0  0  0  0  0  0  0
    6.5778    0.6847   17.6306 N   0  0  0  0  0  0  0  0  0  0  0  0
    7.1291    0.0647   18.6831 C   0  0  0  0  0  0  0  0  0  0  0  0
    8.0824   -0.4282   18.4942 H   0  0  0  0  0  0  0  0  0  0  0  0
    6.5740    0.0516   19.9801 C   0  0  0  0  0  0  0  0  0  0  0  0
    7.2265   -0.7057   21.0731 C   0  0  0  0  0  0  0  0  0  0  0  0
    7.6259   -2.0192   21.0725 C   0  0  0  0  0  0  0  0  0  0  0  0
    7.3985   -2.7466   20.3158 H   0  0  0  0  0  0  0  0  0  0  0  0
    8.2900   -2.2100   22.2959 C   0  0  0  0  0  0  0  0  0  0  0  0
    8.7491   -3.1152   22.6615 H   0  0  0  0  0  0  0  0  0  0  0  0
    8.2944   -1.1152   23.0358 N   0  0  0  0  0  0  0  0  0  0  0  0
    7.6255   -0.2068   22.2930 N   0  0  0  0  0  0  0  0  0  0  0  0
    7.3195    1.0408   22.8419 N   0  0  0  0  0  0  0  0  0  0  0  0
    6.8466    1.2509   24.1247 C   0  0  0  0  0  0  0  0  0  0  0  0
    6.6578    0.4277   24.8034 H   0  0  0  0  0  0  0  0  0  0  0  0
    6.6952    2.5979   24.2863 C   0  0  0  0  0  0  0  0  0  0  0  0
    6.3415    3.0905   25.1825 H   0  0  0  0  0  0  0  0  0  0  0  0
    7.0839    3.2373   23.0708 C   0  0  0  0  0  0  0  0  0  0  0  0
    7.0698    4.2994   22.8719 H   0  0  0  0  0  0  0  0  0  0  0  0
    7.4649    2.2525   22.2013 C   0  0  0  0  0  0  0  0  0  0  0  0
    7.7928    2.2908   21.1731 H   0  0  0  0  0  0  0  0  0  0  0  0
    5.3718    0.7491   20.1705 C   0  0  0  0  0  0  0  0  0  0  0  0
    4.9406    0.8086   21.1711 H   0  0  0  0  0  0  0  0  0  0  0  0
    4.7752    1.3722   19.0746 C   0  0  0  0  0  0  0  0  0  0  0  0
    3.8259    1.8843   19.1673 H   0  0  0  0  0  0  0  0  0  0  0  0
  1  2  1  0
  2  3  2  0
  3  4  1  0
  4  5  1  0
  4  6  2  0
  6  7  1  0
  7  8  2  0
  8  9  1  0
  8 10  1  0
 10 11  1  0
 10 12  2  0
 12 13  1  0
 13 14  1  0
 14 15  1  0
 15 16  1  0
 15 17  2  0
 17 18  1  0
 17 19  1  0
 19 20  1  0
 19 21  2  0
 21 22  1  0
  6 23  1  0
 23 24  1  0
 23 25  2  0
 25 26  1  0
 25  2  1  0
 13  7  1  0
 21 14  1  0
M  END
>  <plip>  (1) 
-0.03571428571428571

>  <filename>  (1) 
[H][c]1[n][c]([H])[c](-[c]2[c]([H])[c]([H])[n][n]2-[n]2[c]([H])[c]([H])[c]([H])[c]2[H])[c]([H])[c]1[H]

$$$$
