
     RDKit          3D

 55 58  0  0  0  0  0  0  0  0999 V2000
    5.0914   -5.8579   21.6100 O   0  0  0  0  0  0  0  0  0  0  0  0
    4.8554   -5.3438   22.6905 C   0  0  0  0  0  0  0  0  0  0  0  0
    4.1715   -6.1338   23.8018 C   0  0  0  0  0  0  0  0  0  0  0  0
    4.4976   -5.7415   25.1324 O   0  0  0  0  0  0  0  0  0  0  0  0
    4.7675   -4.4152   25.3465 C   0  0  0  0  0  0  0  0  0  0  0  0
    4.7666   -3.9903   26.6789 C   0  0  0  0  0  0  0  0  0  0  0  0
    5.0475   -2.6582   26.9919 C   0  0  0  0  0  0  0  0  0  0  0  0
    5.3836   -1.7728   25.9650 C   0  0  0  0  0  0  0  0  0  0  0  0
    5.4897   -2.2254   24.6485 C   0  0  0  0  0  0  0  0  0  0  0  0
    5.1083   -3.5299   24.2923 C   0  0  0  0  0  0  0  0  0  0  0  0
    5.0900   -4.0061   22.9510 N   0  0  0  0  0  0  0  0  0  0  0  0
    5.5430   -3.1781   21.8207 C   0  0  0  0  0  0  0  0  0  0  0  0
    7.0738   -3.1033   21.7528 C   0  0  0  0  0  0  0  0  0  0  0  0
    7.5268   -2.1670   20.6780 N   0  0  0  0  0  4  0  0  0  0  0  0
    7.4026   -0.6790   21.0197 C   0  0  0  0  0  0  0  0  0  0  0  0
    6.6391   -0.0197   19.8989 C   0  0  0  0  0  0  0  0  0  0  0  0
    5.4317    0.6496   20.1474 C   0  0  0  0  0  0  0  0  0  0  0  0
    4.7996    1.3108   19.0950 C   0  0  0  0  0  0  0  0  0  0  0  0
    5.3988    1.2895   17.8322 C   0  0  0  0  0  0  0  0  0  0  0  0
    6.5542    0.6588   17.5782 N   0  0  0  0  0  0  0  0  0  0  0  0
    7.1548    0.0259   18.5950 C   0  0  0  0  0  0  0  0  0  0  0  0
    8.1148   -0.4281   18.3375 H   0  0  0  0  0  0  0  0  0  0  0  0
    4.9368    1.7966   16.9874 H   0  0  0  0  0  0  0  0  0  0  0  0
    3.8731    1.8527   19.2394 H   0  0  0  0  0  0  0  0  0  0  0  0
    5.0019    0.6462   21.1517 H   0  0  0  0  0  0  0  0  0  0  0  0
    8.7759   -0.0375   21.2959 C   0  0  0  0  0  0  0  0  0  0  0  0
    9.4977   -0.6960   22.4879 C   0  0  0  0  0  0  0  0  0  0  0  0
   10.9230   -0.1179   22.7061 C   0  0  0  0  0  0  0  0  0  0  0  0
   11.0795    1.3488   22.2213 C   0  0  0  0  0  0  0  0  0  0  0  0
    9.7624    2.1306   22.3579 C   0  0  0  0  0  0  0  0  0  0  0  0
    8.6283    1.4958   21.5151 C   0  0  0  0  0  0  0  0  0  0  0  0
    7.6666    1.7153   22.0036 H   0  0  0  0  0  0  0  0  0  0  0  0
    8.5630    1.9753   20.5287 H   0  0  0  0  0  0  0  0  0  0  0  0
    9.8978    3.1812   22.0695 H   0  0  0  0  0  0  0  0  0  0  0  0
    9.4669    2.1459   23.4193 H   0  0  0  0  0  0  0  0  0  0  0  0
   11.3901    1.3578   21.1657 H   0  0  0  0  0  0  0  0  0  0  0  0
   11.8865    1.8474   22.7743 H   0  0  0  0  0  0  0  0  0  0  0  0
   11.6613   -0.7434   22.1860 H   0  0  0  0  0  0  0  0  0  0  0  0
   11.1628   -0.1866   23.7764 H   0  0  0  0  0  0  0  0  0  0  0  0
    8.8880   -0.5337   23.3918 H   0  0  0  0  0  0  0  0  0  0  0  0
    9.5662   -1.7855   22.3658 H   0  0  0  0  0  0  0  0  0  0  0  0
    9.4042   -0.2054   20.4059 H   0  0  0  0  0  0  0  0  0  0  0  0
    6.8193   -0.6123   21.9443 H   0  0  0  0  0  0  0  0  0  0  0  0
    8.5288   -2.3064   20.4191 H   0  0  0  0  0  0  0  0  0  0  0  0
    6.9605   -2.2741   19.7968 H   0  0  0  0  0  0  0  0  0  0  0  0
    7.4566   -4.1203   21.6136 H   0  0  0  0  0  0  0  0  0  0  0  0
    7.4332   -2.7573   22.7333 H   0  0  0  0  0  0  0  0  0  0  0  0
    5.1124   -2.1772   21.8796 H   0  0  0  0  0  0  0  0  0  0  0  0
    5.1621   -3.6303   20.9011 H   0  0  0  0  0  0  0  0  0  0  0  0
    5.8957   -1.5536   23.8970 H   0  0  0  0  0  0  0  0  0  0  0  0
    5.5717   -0.7232   26.1766 H   0  0  0  0  0  0  0  0  0  0  0  0
    5.0478   -2.3306   28.0300 H   0  0  0  0  0  0  0  0  0  0  0  0
    4.5614   -4.7404   27.4352 H   0  0  0  0  0  0  0  0  0  0  0  0
    4.4691   -7.1776   23.6891 H   0  0  0  0  0  0  0  0  0  0  0  0
    3.0904   -6.0312   23.6429 H   0  0  0  0  0  0  0  0  0  0  0  0
  1  2  2  0
  2  3  1  0
  3  4  1  0
  4  5  1  0
  5  6  2  0
  6  7  1  0
  7  8  2  0
  8  9  1  0
  9 10  2  0
 10 11  1  0
 11 12  1  0
 12 13  1  0
 13 14  1  0
 14 15  1  0
 15 16  1  0
 16 17  2  0
 17 18  1  0
 18 19  2  0
 19 20  1  0
 20 21  2  0
 21 22  1  0
 19 23  1  0
 18 24  1  0
 17 25  1  0
 15 26  1  0
 26 27  1  0
 27 28  1  0
 28 29  1  0
 29 30  1  0
 30 31  1  0
 31 32  1  0
 31 33  1  0
 30 34  1  0
 30 35  1  0
 29 36  1  0
 29 37  1  0
 28 38  1  0
 28 39  1  0
 27 40  1  0
 27 41  1  0
 26 42  1  0
 15 43  1  0
 14 44  1  0
 14 45  1  0
 13 46  1  0
 13 47  1  0
 12 48  1  0
 12 49  1  0
  9 50  1  0
  8 51  1  0
  7 52  1  0
  6 53  1  0
  3 54  1  0
  3 55  1  0
 11  2  1  0
 21 16  1  0
 31 26  1  0
 10  5  1  0
M  CHG  1  14   1
M  END
>  <plip>  (1) 
-0.06896551724137931

>  <filename>  (1) 
[H][c]1[n][c]([H])[c]([C]([H])([C]2([H])[C]([H])([H])[C]([H])([H])[C]([H])([H])[C]([H])([H])[C]2([H])[H])[N+]([H])([H])[C]([H])([H])[C]([H])([H])[N]2[C](=[O])[C]([H])([H])[O][c]3[c]([H])[c]([H])[c]([H])[c]([H])[c]32)[c]([H])[c]1[H]

$$$$
