
     RDKit          3D

 43 44  0  0  0  0  0  0  0  0999 V2000
    4.9138    1.7905   16.9859 H   0  0  0  0  0  0  0  0  0  0  0  0
    5.3925    1.3003   17.8290 C   0  0  0  0  0  0  0  0  0  0  0  0
    6.5537    0.6826   17.5663 N   0  0  0  0  0  0  0  0  0  0  0  0
    7.1530    0.0636   18.5871 C   0  0  0  0  0  0  0  0  0  0  0  0
    8.1075   -0.4152   18.3765 H   0  0  0  0  0  0  0  0  0  0  0  0
    6.6328   -0.0015   19.8926 C   0  0  0  0  0  0  0  0  0  0  0  0
    7.3959   -0.7301   20.9850 C   0  0  0  0  0  0  0  0  0  0  0  0
    7.6631   -1.7436   20.6671 H   0  0  0  0  0  0  0  0  0  0  0  0
    6.7810   -0.8286   21.8909 H   0  0  0  0  0  0  0  0  0  0  0  0
    8.6755   -0.0326   21.3216 C   0  0  0  0  0  0  0  0  0  0  0  0
    9.8624   -0.3070   20.8300 N   0  0  0  0  0  0  0  0  0  0  0  0
   10.7025    0.6124   21.3500 N   0  0  0  0  0  0  0  0  0  0  0  0
   10.0746    1.4301   22.1169 N   0  0  0  0  0  0  0  0  0  0  0  0
    8.7789    1.0563   22.1042 N   0  0  0  0  0  0  0  0  0  0  0  0
    7.8094    1.7550   22.9417 C   0  0  0  0  0  0  0  0  0  0  0  0
    7.9530    2.8271   22.7878 H   0  0  0  0  0  0  0  0  0  0  0  0
    6.8197    1.5097   22.5665 H   0  0  0  0  0  0  0  0  0  0  0  0
    7.9226    1.3886   24.4164 C   0  0  0  0  0  0  0  0  0  0  0  0
    7.2538    2.0455   24.9847 H   0  0  0  0  0  0  0  0  0  0  0  0
    8.9385    1.6277   24.7456 H   0  0  0  0  0  0  0  0  0  0  0  0
    7.6096   -0.0766   24.7116 C   0  0  0  0  0  0  0  0  0  0  0  0
    8.2487   -0.7145   24.0874 H   0  0  0  0  0  0  0  0  0  0  0  0
    6.5778   -0.3001   24.4046 H   0  0  0  0  0  0  0  0  0  0  0  0
    7.8078   -0.4666   26.1787 C   0  0  0  0  0  0  0  0  0  0  0  0
    8.8621   -0.3087   26.4411 H   0  0  0  0  0  0  0  0  0  0  0  0
    7.6407   -1.5462   26.2871 H   0  0  0  0  0  0  0  0  0  0  0  0
    6.9304    0.2880   27.1901 C   0  0  0  0  0  0  0  0  0  0  0  0
    7.1408   -0.1035   28.1941 H   0  0  0  0  0  0  0  0  0  0  0  0
    7.2321    1.3431   27.2215 H   0  0  0  0  0  0  0  0  0  0  0  0
    5.4218    0.2006   26.9419 C   0  0  0  0  0  0  0  0  0  0  0  0
    5.1686    0.6715   25.9830 H   0  0  0  0  0  0  0  0  0  0  0  0
    4.9032    0.7996   27.7006 H   0  0  0  0  0  0  0  0  0  0  0  0
    4.8664   -1.2214   26.9669 C   0  0  0  0  0  0  0  0  0  0  0  0
    5.1835   -1.7120   27.8948 H   0  0  0  0  0  0  0  0  0  0  0  0
    5.3103   -1.8129   26.1578 H   0  0  0  0  0  0  0  0  0  0  0  0
    3.3475   -1.2651   26.8525 C   0  0  0  0  0  0  0  0  0  0  0  0
    2.8757   -0.7171   27.6764 H   0  0  0  0  0  0  0  0  0  0  0  0
    3.0091   -0.8025   25.9182 H   0  0  0  0  0  0  0  0  0  0  0  0
    2.9675   -2.2916   26.8735 H   0  0  0  0  0  0  0  0  0  0  0  0
    5.4266    0.6538   20.1468 C   0  0  0  0  0  0  0  0  0  0  0  0
    4.9962    0.6339   21.1544 H   0  0  0  0  0  0  0  0  0  0  0  0
    4.7950    1.3197   19.0941 C   0  0  0  0  0  0  0  0  0  0  0  0
    3.8646    1.8514   19.2492 H   0  0  0  0  0  0  0  0  0  0  0  0
  1  2  1  0
  2  3  2  0
  3  4  1  0
  4  5  1  0
  4  6  2  0
  6  7  1  0
  7  8  1  0
  7  9  1  0
  7 10  1  0
 10 11  2  0
 11 12  1  0
 12 13  2  0
 13 14  1  0
 14 15  1  0
 15 16  1  0
 15 17  1  0
 15 18  1  0
 18 19  1  0
 18 20  1  0
 18 21  1  0
 21 22  1  0
 21 23  1  0
 21 24  1  0
 24 25  1  0
 24 26  1  0
 24 27  1  0
 27 28  1  0
 27 29  1  0
 27 30  1  0
 30 31  1  0
 30 32  1  0
 30 33  1  0
 33 34  1  0
 33 35  1  0
 33 36  1  0
 36 37  1  0
 36 38  1  0
 36 39  1  0
  6 40  1  0
 40 41  1  0
 40 42  2  0
 42 43  1  0
 42  2  1  0
 14 10  1  0
M  END
>  <plip>  (1) 
-0.07142857142857142

>  <filename>  (1) 
[H][c]1[n][c]([H])[c]([C]([H])([H])[c]2[n][n][n][n]2[C]([H])([H])[C]([H])([H])[C]([H])([H])[C]([H])([H])[C]([H])([H])[C]([H])([H])[C]([H])([H])[C]([H])([H])[H])[c]([H])[c]1[H]

$$$$
