
     RDKit          3D

 30 32  0  0  0  0  0  0  0  0999 V2000
    4.9515    1.7979   16.9802 H   0  0  0  0  0  0  0  0  0  0  0  0
    5.4142    1.2844   17.8223 C   0  0  0  0  0  0  0  0  0  0  0  0
    6.5694    0.6505   17.5703 N   0  0  0  0  0  0  0  0  0  0  0  0
    7.1577    0.0225   18.5965 C   0  0  0  0  0  0  0  0  0  0  0  0
    8.1046   -0.4685   18.3708 H   0  0  0  0  0  0  0  0  0  0  0  0
    6.6429   -0.0233   19.9060 C   0  0  0  0  0  0  0  0  0  0  0  0
    7.3694   -0.7206   21.0433 C   0  0  1  0  0  0  0  0  0  0  0  0
    8.3790   -1.0201   20.7345 H   0  0  0  0  0  0  0  0  0  0  0  0
    7.6378    0.2176   22.2377 C   0  0  0  0  0  0  0  0  0  0  0  0
    8.2859    1.2253   22.2079 O   0  0  0  0  0  0  0  0  0  0  0  0
    7.0762   -0.3533   23.3548 N   0  0  0  0  0  0  0  0  0  0  0  0
    7.1190    0.2662   24.5897 C   0  0  0  0  0  0  0  0  0  0  0  0
    7.9278    1.1816   24.9212 N   0  0  0  0  0  0  0  0  0  0  0  0
    7.6031    1.5230   26.3057 C   0  0  0  0  0  0  0  0  0  0  0  0
    7.2882    2.5751   26.3702 H   0  0  0  0  0  0  0  0  0  0  0  0
    8.4984    1.4295   26.9377 H   0  0  0  0  0  0  0  0  0  0  0  0
    6.4595    0.5454   26.7386 C   0  0  0  0  0  0  0  0  0  0  0  0
    6.7710   -0.1158   27.5597 H   0  0  0  0  0  0  0  0  0  0  0  0
    5.5641    1.0788   27.0803 H   0  0  0  0  0  0  0  0  0  0  0  0
    6.2050   -0.1486   25.4849 N   0  0  0  0  0  0  0  0  0  0  0  0
    5.8771   -1.0963   25.3499 H   0  0  0  0  0  0  0  0  0  0  0  0
    6.5418   -1.5883   23.1312 C   0  0  0  0  0  0  0  0  0  0  0  0
    6.0828   -2.3253   23.9824 O   0  0  0  0  0  0  0  0  0  0  0  0
    6.6171   -1.9095   21.6662 C   0  0  0  0  0  0  0  0  0  0  0  0
    7.1346   -2.8641   21.5558 H   0  0  0  0  0  0  0  0  0  0  0  0
    5.5892   -2.0415   21.3136 H   0  0  0  0  0  0  0  0  0  0  0  0
    5.4322    0.6436   20.1418 C   0  0  0  0  0  0  0  0  0  0  0  0
    4.9982    0.6696   21.1451 H   0  0  0  0  0  0  0  0  0  0  0  0
    4.8065    1.3029   19.0818 C   0  0  0  0  0  0  0  0  0  0  0  0
    3.8772    1.8422   19.2202 H   0  0  0  0  0  0  0  0  0  0  0  0
  1  2  1  0
  2  3  2  0
  3  4  1  0
  4  5  1  0
  4  6  2  0
  6  7  1  0
  7  8  1  6
  7  9  1  0
  9 10  2  0
  9 11  1  0
 11 12  1  0
 12 13  2  0
 13 14  1  0
 14 15  1  0
 14 16  1  0
 14 17  1  0
 17 18  1  0
 17 19  1  0
 17 20  1  0
 20 21  1  0
 11 22  1  0
 22 23  2  0
 22 24  1  0
 24 25  1  0
 24 26  1  0
  6 27  1  0
 27 28  1  0
 27 29  2  0
 29 30  1  0
 29  2  1  0
 24  7  1  0
 20 12  1  0
M  END
>  <plip>  (1) 
-0.03571428571428571

>  <filename>  (1) 
[H][c]1[n][c]([H])[c]([C@@]2([H])[C](=[O])[N]([C]3=[N][C]([H])([H])[C]([H])([H])[N]3[H])[C](=[O])[C]2([H])[H])[c]([H])[c]1[H]

$$$$
