
     RDKit          3D

 28 29  0  0  0  0  0  0  0  0999 V2000
    4.9507    1.8496   16.9924 H   0  0  0  0  0  0  0  0  0  0  0  0
    5.4081    1.2940   17.8096 C   0  0  0  0  0  0  0  0  0  0  0  0
    6.5529    0.6505   17.5279 N   0  0  0  0  0  0  0  0  0  0  0  0
    7.1564   -0.0046   18.5284 C   0  0  0  0  0  0  0  0  0  0  0  0
    8.0835   -0.5244   18.2810 H   0  0  0  0  0  0  0  0  0  0  0  0
    6.6646   -0.0509   19.8478 C   0  0  0  0  0  0  0  0  0  0  0  0
    7.5664   -0.9085   21.1202 S   0  0  0  0  0  0  0  0  0  0  0  0
    8.6161    0.4454   21.7847 C   0  0  0  0  0  0  0  0  0  0  0  0
    9.1834    0.8819   20.9557 H   0  0  0  0  0  0  0  0  0  0  0  0
    9.3316   -0.0538   22.4424 H   0  0  0  0  0  0  0  0  0  0  0  0
    7.8416    1.5204   22.5048 C   0  0  0  0  0  0  0  0  0  0  0  0
    7.5991    2.7248   21.8290 C   0  0  0  0  0  0  0  0  0  0  0  0
    8.0941    2.8997   20.8902 H   0  0  0  0  0  0  0  0  0  0  0  0
    6.7929    3.6896   22.4018 C   0  0  0  0  0  0  0  0  0  0  0  0
    6.5723    4.5960   21.8442 H   0  0  0  0  0  0  0  0  0  0  0  0
    6.2621    3.5755   23.6309 N   0  0  0  0  0  0  0  0  0  0  0  0
    6.5292    2.4537   24.2855 C   0  0  0  0  0  0  0  0  0  0  0  0
    6.0584    2.2480   25.5314 O   0  0  0  0  0  0  0  0  0  0  0  0
    5.2861    3.2688   26.1516 C   0  0  0  0  0  0  0  0  0  0  0  0
    5.0301    2.9039   27.1466 H   0  0  0  0  0  0  0  0  0  0  0  0
    5.8652    4.1942   26.2287 H   0  0  0  0  0  0  0  0  0  0  0  0
    4.3748    3.4650   25.5780 H   0  0  0  0  0  0  0  0  0  0  0  0
    7.2988    1.3939   23.7756 C   0  0  0  0  0  0  0  0  0  0  0  0
    7.4293    0.5480   24.4358 H   0  0  0  0  0  0  0  0  0  0  0  0
    5.4434    0.5875   20.1119 C   0  0  0  0  0  0  0  0  0  0  0  0
    5.0165    0.5504   21.1148 H   0  0  0  0  0  0  0  0  0  0  0  0
    4.8100    1.2759   19.0733 C   0  0  0  0  0  0  0  0  0  0  0  0
    3.8714    1.7958   19.2311 H   0  0  0  0  0  0  0  0  0  0  0  0
  1  2  1  0
  2  3  2  0
  3  4  1  0
  4  5  1  0
  4  6  2  0
  6  7  1  0
  7  8  1  0
  8  9  1  0
  8 10  1  0
  8 11  1  0
 11 12  2  0
 12 13  1  0
 12 14  1  0
 14 15  1  0
 14 16  2  0
 16 17  1  0
 17 18  1  0
 18 19  1  0
 19 20  1  0
 19 21  1  0
 19 22  1  0
 17 23  2  0
 23 24  1  0
  6 25  1  0
 25 26  1  0
 25 27  2  0
 27 28  1  0
 27  2  1  0
 23 11  1  0
M  END
>  <plip>  (1) 
-0.07142857142857142

>  <filename>  (1) 
[H][c]1[n][c]([H])[c]([S][C]([H])([H])[c]2[c]([H])[c]([H])[n][c]([O][C]([H])([H])[H])[c]2[H])[c]([H])[c]1[H]

$$$$
