
     RDKit          3D

 24 25  0  0  0  0  0  0  0  0999 V2000
    6.1506    5.0897   23.3860 H   0  0  0  0  0  0  0  0  0  0  0  0
    6.6021    4.1660   23.0413 C   0  0  0  0  0  0  0  0  0  0  0  0
    6.9641    3.3002   24.0129 N   0  0  0  0  0  0  0  0  0  0  0  0
    7.5538    2.1670   23.6187 C   0  0  0  0  0  0  0  0  0  0  0  0
    7.8476    1.4472   24.3753 H   0  0  0  0  0  0  0  0  0  0  0  0
    7.8006    1.9066   22.2557 C   0  0  0  0  0  0  0  0  0  0  0  0
    8.7270    0.4041   21.8399 S   0  0  0  0  0  4  0  0  0  0  0  0
    9.7292    0.6979   20.7638 O   0  0  0  0  0  0  0  0  0  0  0  0
    7.3842   -0.5872   21.0501 C   0  0  0  0  0  0  0  0  0  0  0  0
    6.7411   -0.9012   21.8794 H   0  0  0  0  0  0  0  0  0  0  0  0
    7.9724   -1.4559   20.7154 H   0  0  0  0  0  0  0  0  0  0  0  0
    6.6081    0.0313   19.9055 C   0  0  0  0  0  0  0  0  0  0  0  0
    7.1365    0.0800   18.5975 C   0  0  0  0  0  0  0  0  0  0  0  0
    8.1011   -0.3883   18.3831 H   0  0  0  0  0  0  0  0  0  0  0  0
    6.5364    0.6735   17.5543 N   0  0  0  0  0  0  0  0  0  0  0  0
    5.3689    1.2884   17.7978 C   0  0  0  0  0  0  0  0  0  0  0  0
    4.9321    1.8382   16.9672 H   0  0  0  0  0  0  0  0  0  0  0  0
    4.7269    1.2730   19.0375 C   0  0  0  0  0  0  0  0  0  0  0  0
    3.7921    1.8105   19.1656 H   0  0  0  0  0  0  0  0  0  0  0  0
    5.3390    0.6017   20.1002 C   0  0  0  0  0  0  0  0  0  0  0  0
    4.8623    0.5869   21.0839 H   0  0  0  0  0  0  0  0  0  0  0  0
    7.4385    2.7532   21.2943 N   0  0  0  0  0  0  0  0  0  0  0  0
    6.8237    3.8900   21.6851 C   0  0  0  0  0  0  0  0  0  0  0  0
    6.5237    4.5734   20.8932 H   0  0  0  0  0  0  0  0  0  0  0  0
  1  2  1  0
  2  3  2  0
  3  4  1  0
  4  5  1  0
  4  6  2  0
  6  7  1  0
  7  8  2  0
  7  9  1  6
  9 10  1  0
  9 11  1  0
  9 12  1  0
 12 13  2  0
 13 14  1  0
 13 15  1  0
 15 16  2  0
 16 17  1  0
 16 18  1  0
 18 19  1  0
 18 20  2  0
 20 21  1  0
  6 22  1  0
 22 23  2  0
 23 24  1  0
 23  2  1  0
 20 12  1  0
M  END
>  <plip>  (1) 
-0.07142857142857142

>  <filename>  (1) 
[H][c]1[n][c]([H])[c]([S@](=[O])[C]([H])([H])[c]2[c]([H])[n][c]([H])[c]([H])[c]2[H])[n][c]1[H]

$$$$
