
     RDKit          3D

 25 27  0  0  0  0  0  0  0  0999 V2000
    4.9363    1.7785   16.9921 H   0  0  0  0  0  0  0  0  0  0  0  0
    5.4088    1.2873   17.8411 C   0  0  0  0  0  0  0  0  0  0  0  0
    6.5704    0.6636   17.5975 N   0  0  0  0  0  0  0  0  0  0  0  0
    7.1597    0.0582   18.6312 C   0  0  0  0  0  0  0  0  0  0  0  0
    8.1045   -0.4176   18.3793 H   0  0  0  0  0  0  0  0  0  0  0  0
    6.6380    0.0115   19.9388 C   0  0  0  0  0  0  0  0  0  0  0  0
    7.3534   -0.6959   21.0087 C   0  0  0  0  0  0  0  0  0  0  0  0
    6.8835   -0.7597   22.2554 N   0  0  0  0  0  0  0  0  0  0  0  0
    7.7886   -1.4750   22.9336 N   0  0  0  0  0  0  0  0  0  0  0  0
    7.6200   -1.7467   24.2991 N   0  0  0  0  0  0  0  0  0  0  0  0
    6.5539   -1.3332   25.0762 C   0  0  0  0  0  0  0  0  0  0  0  0
    5.7208   -0.7423   24.7028 H   0  0  0  0  0  0  0  0  0  0  0  0
    6.6913   -1.7465   26.3070 N   0  0  0  0  0  0  0  0  0  0  0  0
    7.8748   -2.4497   26.3497 C   0  0  0  0  0  0  0  0  0  0  0  0
    8.2343   -2.9090   27.2648 H   0  0  0  0  0  0  0  0  0  0  0  0
    8.4708   -2.4680   25.1258 C   0  0  0  0  0  0  0  0  0  0  0  0
    9.3944   -2.9136   24.7733 H   0  0  0  0  0  0  0  0  0  0  0  0
    8.8300   -1.8764   22.1574 C   0  0  0  0  0  0  0  0  0  0  0  0
    9.6309   -2.4611   22.5959 H   0  0  0  0  0  0  0  0  0  0  0  0
    8.5855   -1.3907   20.9005 C   0  0  0  0  0  0  0  0  0  0  0  0
    9.1973   -1.5034   20.0180 H   0  0  0  0  0  0  0  0  0  0  0  0
    5.4143    0.6629   20.1714 C   0  0  0  0  0  0  0  0  0  0  0  0
    4.9873    0.6436   21.1774 H   0  0  0  0  0  0  0  0  0  0  0  0
    4.8012    1.3116   19.1025 C   0  0  0  0  0  0  0  0  0  0  0  0
    3.8702    1.8459   19.2479 H   0  0  0  0  0  0  0  0  0  0  0  0
  1  2  1  0
  2  3  2  0
  3  4  1  0
  4  5  1  0
  4  6  2  0
  6  7  1  0
  7  8  2  0
  8  9  1  0
  9 10  1  0
 10 11  1  0
 11 12  1  0
 11 13  2  0
 13 14  1  0
 14 15  1  0
 14 16  2  0
 16 17  1  0
  9 18  1  0
 18 19  1  0
 18 20  2  0
 20 21  1  0
  6 22  1  0
 22 23  1  0
 22 24  2  0
 24 25  1  0
 24  2  1  0
 20  7  1  0
 16 10  1  0
M  END
>  <plip>  (1) 
-0.0

>  <filename>  (1) 
[H][c]1[n][c]([H])[c](-[c]2[n][n](-[n]3[c]([H])[n][c]([H])[c]3[H])[c]([H])[c]2[H])[c]([H])[c]1[H]

$$$$
