
     RDKit          3D

 36 38  0  0  0  0  0  0  0  0999 V2000
    8.7665   -0.0674   21.2721 C   0  0  0  0  0  0  0  0  0  0  0  0
    7.3873   -0.7222   21.0628 C   0  0  0  0  0  0  0  0  0  0  0  0
    7.4528   -2.1454   20.8151 N   0  0  0  0  0  0  0  0  0  0  0  0
    7.7518   -3.1158   21.7508 C   0  0  0  0  0  0  0  0  0  0  0  0
    7.9005   -4.4652   21.3017 C   0  0  0  0  0  0  0  0  0  0  0  0
    8.3684   -5.4436   22.1676 C   0  0  0  0  0  0  0  0  0  0  0  0
    8.6324   -5.1425   23.5209 C   0  0  0  0  0  0  0  0  0  0  0  0
    9.1343   -5.8676   24.6586 C   0  0  0  0  0  0  0  0  0  0  0  0
    8.9867   -5.0378   25.7328 C   0  0  0  0  0  0  0  0  0  0  0  0
    8.4620   -3.8194   25.3462 N   0  0  0  0  0  0  0  0  0  0  0  0
    8.2444   -2.6672   26.2029 C   0  0  0  0  0  0  0  0  0  0  0  0
    8.9308   -1.8493   25.9459 H   0  0  0  0  0  0  0  0  0  0  0  0
    7.2088   -2.3047   26.1451 H   0  0  0  0  0  0  0  0  0  0  0  0
    8.4421   -2.9661   27.2339 H   0  0  0  0  0  0  0  0  0  0  0  0
    8.2882   -3.8457   23.9789 C   0  0  0  0  0  0  0  0  0  0  0  0
    7.9091   -2.8113   23.1093 C   0  0  0  0  0  0  0  0  0  0  0  0
    7.7623   -1.8062   23.4893 H   0  0  0  0  0  0  0  0  0  0  0  0
    9.1765   -5.2197   26.7843 H   0  0  0  0  0  0  0  0  0  0  0  0
    9.6042   -6.8458   24.6751 H   0  0  0  0  0  0  0  0  0  0  0  0
    8.5379   -6.4585   21.8400 H   0  0  0  0  0  0  0  0  0  0  0  0
    7.6054   -4.7308   20.2888 H   0  0  0  0  0  0  0  0  0  0  0  0
    7.4434   -2.4435   19.8542 H   0  0  0  0  0  0  0  0  0  0  0  0
    6.6293   -0.0662   19.9267 C   0  0  0  0  0  0  0  0  0  0  0  0
    5.4263    0.6193   20.1397 C   0  0  0  0  0  0  0  0  0  0  0  0
    4.8337    1.2859   19.0659 C   0  0  0  0  0  0  0  0  0  0  0  0
    5.4618    1.2454   17.8164 C   0  0  0  0  0  0  0  0  0  0  0  0
    6.5969    0.5682   17.5834 N   0  0  0  0  0  0  0  0  0  0  0  0
    7.1473   -0.0771   18.6235 C   0  0  0  0  0  0  0  0  0  0  0  0
    8.0779   -0.6033   18.4037 H   0  0  0  0  0  0  0  0  0  0  0  0
    5.0272    1.7686   16.9658 H   0  0  0  0  0  0  0  0  0  0  0  0
    3.9073    1.8373   19.1874 H   0  0  0  0  0  0  0  0  0  0  0  0
    4.9662    0.6366   21.1311 H   0  0  0  0  0  0  0  0  0  0  0  0
    6.7992   -0.5756   21.9828 H   0  0  0  0  0  0  0  0  0  0  0  0
    9.2883   -0.5302   22.1160 H   0  0  0  0  0  0  0  0  0  0  0  0
    9.4012   -0.1548   20.3806 H   0  0  0  0  0  0  0  0  0  0  0  0
    8.6319    0.9988   21.4832 H   0  0  0  0  0  0  0  0  0  0  0  0
  1  2  1  0
  2  3  1  0
  3  4  1  0
  4  5  2  0
  5  6  1  0
  6  7  2  0
  7  8  1  0
  8  9  2  0
  9 10  1  0
 10 11  1  0
 11 12  1  0
 11 13  1  0
 11 14  1  0
 10 15  1  0
 15 16  2  0
 16 17  1  0
  9 18  1  0
  8 19  1  0
  6 20  1  0
  5 21  1  0
  3 22  1  0
  2 23  1  0
 23 24  2  0
 24 25  1  0
 25 26  2  0
 26 27  1  0
 27 28  2  0
 28 29  1  0
 26 30  1  0
 25 31  1  0
 24 32  1  0
  2 33  1  0
  1 34  1  0
  1 35  1  0
  1 36  1  0
 16  4  1  0
 28 23  1  0
 15  7  1  0
M  END
>  <plip>  (1) 
-0.10344827586206896

>  <filename>  (1) 
[H][c]1[n][c]([H])[c]([C]([H])([N]([H])[c]2[c]([H])[c]([H])[c]3[c]([H])[c]([H])[n]([C]([H])([H])[H])[c]3[c]2[H])[C]([H])([H])[H])[c]([H])[c]1[H]

$$$$
