
     RDKit          3D

 29 30  0  0  0  0  0  0  0  0999 V2000
    5.2061    2.9059   23.8376 H   0  0  0  0  0  0  0  0  0  0  0  0
    4.7336    3.0346   22.9979 O   0  0  0  0  0  0  0  0  0  0  0  0
    5.5342    3.8105   22.1248 C   0  0  0  0  0  0  0  0  0  0  0  0
    5.3186    4.8840   22.2500 H   0  0  0  0  0  0  0  0  0  0  0  0
    5.2329    3.5383   21.1028 H   0  0  0  0  0  0  0  0  0  0  0  0
    7.0465    3.6187   22.2931 C   0  0  0  0  0  0  0  0  0  0  0  0
    7.5607    4.3210   21.6317 H   0  0  0  0  0  0  0  0  0  0  0  0
    7.3271    3.8708   23.3215 H   0  0  0  0  0  0  0  0  0  0  0  0
    7.5434    2.2869   21.9987 N   0  0  0  0  0  0  0  0  0  0  0  0
    7.5697    1.9920   21.0388 H   0  0  0  0  0  0  0  0  0  0  0  0
    7.4562    1.2588   22.8863 C   0  0  0  0  0  0  0  0  0  0  0  0
    7.2492    1.4378   24.0765 O   0  0  0  0  0  0  0  0  0  0  0  0
    7.6742   -0.0804   22.2892 C   0  0  0  0  0  0  0  0  0  0  0  0
    8.5048   -1.2350   23.2562 S   0  0  0  0  0  0  0  0  0  0  0  0
    8.2671   -2.4573   22.0887 C   0  0  0  0  0  0  0  0  0  0  0  0
    8.6103   -3.4652   22.2833 H   0  0  0  0  0  0  0  0  0  0  0  0
    7.5855   -1.9964   21.0084 C   0  0  0  0  0  0  0  0  0  0  0  0
    7.2356   -2.6204   20.2003 H   0  0  0  0  0  0  0  0  0  0  0  0
    7.2630   -0.6113   21.0799 C   0  0  0  0  0  0  0  0  0  0  0  0
    6.5877    0.1022   19.9612 C   0  0  0  0  0  0  0  0  0  0  0  0
    7.1280    0.1143   18.6590 C   0  0  0  0  0  0  0  0  0  0  0  0
    8.0856   -0.3652   18.4561 H   0  0  0  0  0  0  0  0  0  0  0  0
    6.5612    0.7162   17.6043 N   0  0  0  0  0  0  0  0  0  0  0  0
    5.3878    1.3391   17.8023 C   0  0  0  0  0  0  0  0  0  0  0  0
    4.9272    1.8011   16.9284 H   0  0  0  0  0  0  0  0  0  0  0  0
    4.7643    1.3922   19.0493 C   0  0  0  0  0  0  0  0  0  0  0  0
    3.8175    1.9087   19.1492 H   0  0  0  0  0  0  0  0  0  0  0  0
    5.3757    0.7816   20.1461 C   0  0  0  0  0  0  0  0  0  0  0  0
    4.9380    0.8393   21.1439 H   0  0  0  0  0  0  0  0  0  0  0  0
  1  2  1  0
  2  3  1  0
  3  4  1  0
  3  5  1  0
  3  6  1  0
  6  7  1  0
  6  8  1  0
  6  9  1  0
  9 10  1  0
  9 11  1  0
 11 12  2  0
 11 13  1  0
 13 14  1  0
 14 15  1  0
 15 16  1  0
 15 17  2  0
 17 18  1  0
 17 19  1  0
 19 20  1  0
 20 21  2  0
 21 22  1  0
 21 23  1  0
 23 24  2  0
 24 25  1  0
 24 26  1  0
 26 27  1  0
 26 28  2  0
 28 29  1  0
 19 13  2  0
 28 20  1  0
M  END
>  <plip>  (1) 
-0.10714285714285714

>  <filename>  (1) 
[H][O][C]([H])([H])[C]([H])([H])[N]([H])[C](=[O])[c]1[s][c]([H])[c]([H])[c]1-[c]1[c]([H])[n][c]([H])[c]([H])[c]1[H]

$$$$
