
     RDKit          3D

 35 35  0  0  0  0  0  0  0  0999 V2000
    4.9418    1.8021   17.0147 H   0  0  0  0  0  0  0  0  0  0  0  0
    5.4020    1.2563   17.8336 C   0  0  0  0  0  0  0  0  0  0  0  0
    6.5420    0.6044   17.5542 N   0  0  0  0  0  0  0  0  0  0  0  0
    7.1537   -0.0378   18.5661 C   0  0  0  0  0  0  0  0  0  0  0  0
    8.0879   -0.5208   18.2939 H   0  0  0  0  0  0  0  0  0  0  0  0
    6.6771   -0.0732   19.9136 C   0  0  0  0  0  0  0  0  0  0  0  0
    7.3275   -0.6388   21.0141 N   0  0  0  0  0  0  0  0  0  0  0  0
    6.8210   -0.6093   21.8865 H   0  0  0  0  0  0  0  0  0  0  0  0
    8.7125   -0.4640   21.3998 C   0  0  0  0  0  0  0  0  0  0  0  0
    8.5902   -0.6824   22.8029 O   0  0  0  0  0  0  0  0  0  0  0  0
    9.8008   -0.7950   23.5425 C   0  0  0  0  0  0  0  0  0  0  0  0
   10.1901   -1.8247   23.4697 H   0  0  0  0  0  0  0  0  0  0  0  0
   10.5790   -0.1287   23.1359 H   0  0  0  0  0  0  0  0  0  0  0  0
    9.5913   -0.4268   25.0053 C   0  0  0  0  0  0  0  0  0  0  0  0
   10.5793   -0.4643   25.4856 H   0  0  0  0  0  0  0  0  0  0  0  0
    9.2570    0.6207   25.0657 H   0  0  0  0  0  0  0  0  0  0  0  0
    8.6163   -1.3347   25.7616 C   0  0  0  0  0  0  0  0  0  0  0  0
    7.6286   -1.2620   25.2874 H   0  0  0  0  0  0  0  0  0  0  0  0
    8.9354   -2.3833   25.6544 H   0  0  0  0  0  0  0  0  0  0  0  0
    8.5038   -0.9896   27.2453 C   0  0  0  0  0  0  0  0  0  0  0  0
    9.4648   -1.1065   27.7636 H   0  0  0  0  0  0  0  0  0  0  0  0
    7.7744   -1.6434   27.7332 H   0  0  0  0  0  0  0  0  0  0  0  0
    8.1710    0.0460   27.3930 H   0  0  0  0  0  0  0  0  0  0  0  0
    9.5465   -1.5519   20.7320 C   0  0  0  0  0  0  0  0  0  0  0  0
   10.6188   -1.4220   20.9059 H   0  0  0  0  0  0  0  0  0  0  0  0
    9.3470   -1.5518   19.6608 H   0  0  0  0  0  0  0  0  0  0  0  0
    9.2301   -2.5145   21.1426 H   0  0  0  0  0  0  0  0  0  0  0  0
    9.2219    0.9513   21.1003 C   0  0  0  0  0  0  0  0  0  0  0  0
   10.2004    1.1538   21.5409 H   0  0  0  0  0  0  0  0  0  0  0  0
    8.5055    1.6948   21.4755 H   0  0  0  0  0  0  0  0  0  0  0  0
    9.3064    1.0566   20.0195 H   0  0  0  0  0  0  0  0  0  0  0  0
    5.4459    0.5603   20.1495 C   0  0  0  0  0  0  0  0  0  0  0  0
    5.0367    0.5418   21.1628 H   0  0  0  0  0  0  0  0  0  0  0  0
    4.8154    1.2430   19.1041 C   0  0  0  0  0  0  0  0  0  0  0  0
    3.8902    1.7836   19.2694 H   0  0  0  0  0  0  0  0  0  0  0  0
  1  2  1  0
  2  3  2  0
  3  4  1  0
  4  5  1  0
  4  6  2  0
  6  7  1  0
  7  8  1  0
  7  9  1  0
  9 10  1  0
 10 11  1  0
 11 12  1  0
 11 13  1  0
 11 14  1  0
 14 15  1  0
 14 16  1  0
 14 17  1  0
 17 18  1  0
 17 19  1  0
 17 20  1  0
 20 21  1  0
 20 22  1  0
 20 23  1  0
  9 24  1  0
 24 25  1  0
 24 26  1  0
 24 27  1  0
  9 28  1  0
 28 29  1  0
 28 30  1  0
 28 31  1  0
  6 32  1  0
 32 33  1  0
 32 34  2  0
 34 35  1  0
 34  2  1  0
M  END
>  <plip>  (1) 
-0.07142857142857142

>  <filename>  (1) 
[H][c]1[n][c]([H])[c]([N]([H])[C]([O][C]([H])([H])[C]([H])([H])[C]([H])([H])[C]([H])([H])[H])([C]([H])([H])[H])[C]([H])([H])[H])[c]([H])[c]1[H]

$$$$
