
     RDKit          3D

 21 22  0  0  0  0  0  0  0  0999 V2000
    4.9761    1.8262   17.0166 H   0  0  0  0  0  0  0  0  0  0  0  0
    5.4633    1.3152   17.8490 C   0  0  0  0  0  0  0  0  0  0  0  0
    6.6351    0.7226   17.5749 N   0  0  0  0  0  0  0  0  0  0  0  0
    7.2399    0.0677   18.5723 C   0  0  0  0  0  0  0  0  0  0  0  0
    8.1795   -0.4207   18.3114 H   0  0  0  0  0  0  0  0  0  0  0  0
    6.7259   -0.0430   19.8857 C   0  0  0  0  0  0  0  0  0  0  0  0
    7.3824   -0.8133   20.9550 C   0  0  0  0  0  0  0  0  0  0  0  0
    8.5898   -0.7912   21.6076 C   0  0  0  0  0  0  0  0  0  0  0  0
    9.6959   -0.0360   21.5430 O   0  0  0  0  0  0  0  0  0  0  0  0
    9.6963    1.1528   20.8178 C   0  0  0  0  0  0  0  0  0  0  0  0
    9.6175    0.9398   19.7541 H   0  0  0  0  0  0  0  0  0  0  0  0
   10.8553    1.7429   21.0771 F   0  0  0  0  0  0  0  0  0  0  0  0
    8.7109    1.9804   21.2074 F   0  0  0  0  0  0  0  0  0  0  0  0
    8.2560   -1.9070   22.5398 C   0  0  0  0  0  0  0  0  0  0  0  0
    8.7942   -2.5479   23.3993 O   0  0  0  0  0  0  0  0  0  0  0  0
    6.8467   -1.8976   21.8389 C   0  0  0  0  0  0  0  0  0  0  0  0
    5.8210   -2.5181   21.9374 O   0  0  0  0  0  0  0  0  0  0  0  0
    5.4989    0.5855   20.1467 C   0  0  0  0  0  0  0  0  0  0  0  0
    5.0697    0.5498   21.1521 H   0  0  0  0  0  0  0  0  0  0  0  0
    4.8666    1.2738   19.1114 C   0  0  0  0  0  0  0  0  0  0  0  0
    3.9223    1.7766   19.2675 H   0  0  0  0  0  0  0  0  0  0  0  0
  1  2  1  0
  2  3  2  0
  3  4  1  0
  4  5  1  0
  4  6  2  0
  6  7  1  0
  7  8  2  0
  8  9  1  0
  9 10  1  0
 10 11  1  0
 10 12  1  0
 10 13  1  0
  8 14  1  0
 14 15  2  0
 14 16  1  0
 16 17  2  0
  6 18  1  0
 18 19  1  0
 18 20  2  0
 20 21  1  0
 20  2  1  0
 16  7  1  0
M  END
>  <plip>  (1) 
-0.10714285714285714

>  <filename>  (1) 
[H][c]1[n][c]([H])[c](-[c]2[c]([O][C]([H])([F])[F])[c](=[O])[c]2=[O])[c]([H])[c]1[H]

$$$$
