
     RDKit          3D

 29 30  0  0  0  0  0  0  0  0999 V2000
    7.7543    0.2796   26.8479 C   0  0  0  0  0  0  0  0  0  0  0  0
    8.7287    0.9131   25.9517 N   0  0  0  0  0  0  0  0  0  0  0  0
   10.0498    1.0659   26.2284 N   0  0  0  0  0  0  0  0  0  0  0  0
   10.6030    1.7074   25.2622 N   0  0  0  0  0  0  0  0  0  0  0  0
    9.6440    1.9519   24.2970 C   0  0  0  0  0  0  0  0  0  0  0  0
    9.9979    2.8976   22.6780 Br  0  0  0  0  0  0  0  0  0  0  0  0
    8.4544    1.4503   24.7146 C   0  0  0  0  0  0  0  0  0  0  0  0
    7.1244    1.5109   24.0311 C   0  0  0  0  0  0  0  0  0  0  0  0
    7.2294    1.0355   22.6434 N   0  0  0  0  0  0  0  0  0  0  0  0
    7.3685   -0.2871   22.2781 C   0  0  0  0  0  0  0  0  0  0  0  0
    7.6597   -1.4768   23.3932 S   0  0  0  0  0  0  0  0  0  0  0  0
    7.3599   -0.6480   20.9412 N   0  0  0  0  0  0  0  0  0  0  0  0
    6.6788    0.0226   19.9025 C   0  0  0  0  0  0  0  0  0  0  0  0
    5.4643    0.6592   20.1676 C   0  0  0  0  0  0  0  0  0  0  0  0
    4.8281    1.3091   19.1045 C   0  0  0  0  0  0  0  0  0  0  0  0
    5.4006    1.2996   17.8233 C   0  0  0  0  0  0  0  0  0  0  0  0
    6.5624    0.6761   17.5526 N   0  0  0  0  0  0  0  0  0  0  0  0
    7.1780    0.0508   18.5791 C   0  0  0  0  0  0  0  0  0  0  0  0
    8.1255   -0.4445   18.3958 H   0  0  0  0  0  0  0  0  0  0  0  0
    4.8818    1.8022   17.0132 H   0  0  0  0  0  0  0  0  0  0  0  0
    3.8897    1.8258   19.2617 H   0  0  0  0  0  0  0  0  0  0  0  0
    5.0280    0.6297   21.1682 H   0  0  0  0  0  0  0  0  0  0  0  0
    7.8628   -1.5053   20.7358 H   0  0  0  0  0  0  0  0  0  0  0  0
    7.2242    1.7028   21.8803 H   0  0  0  0  0  0  0  0  0  0  0  0
    6.7770    2.5483   24.0398 H   0  0  0  0  0  0  0  0  0  0  0  0
    6.3876    0.9171   24.5834 H   0  0  0  0  0  0  0  0  0  0  0  0
    6.9534    0.9767   27.1042 H   0  0  0  0  0  0  0  0  0  0  0  0
    7.3144   -0.6005   26.3738 H   0  0  0  0  0  0  0  0  0  0  0  0
    8.2395   -0.0349   27.7741 H   0  0  0  0  0  0  0  0  0  0  0  0
  1  2  1  0
  2  3  1  0
  3  4  2  0
  4  5  1  0
  5  6  1  0
  5  7  2  0
  7  8  1  0
  8  9  1  0
  9 10  1  0
 10 11  2  0
 10 12  1  0
 12 13  1  0
 13 14  2  0
 14 15  1  0
 15 16  2  0
 16 17  1  0
 17 18  2  0
 18 19  1  0
 16 20  1  0
 15 21  1  0
 14 22  1  0
 12 23  1  0
  9 24  1  0
  8 25  1  0
  8 26  1  0
  1 27  1  0
  1 28  1  0
  1 29  1  0
  7  2  1  0
 18 13  1  0
M  END
>  <plip>  (1) 
-0.03571428571428571

>  <filename>  (1) 
[H][c]1[n][c]([H])[c]([N]([H])[C](=[S])[N]([H])[C]([H])([H])[c]2[c]([Br])[n][n][n]2[C]([H])([H])[H])[c]([H])[c]1[H]

$$$$
