
     RDKit          3D

 28 30  0  0  0  0  0  0  0  0999 V2000
    4.9771    1.8390   16.9472 H   0  0  0  0  0  0  0  0  0  0  0  0
    5.4243    1.3053   17.7864 C   0  0  0  0  0  0  0  0  0  0  0  0
    6.5904    0.6867   17.5508 N   0  0  0  0  0  0  0  0  0  0  0  0
    7.1691    0.0547   18.5817 C   0  0  0  0  0  0  0  0  0  0  0  0
    8.1140   -0.4403   18.3620 H   0  0  0  0  0  0  0  0  0  0  0  0
    6.6269   -0.0160   19.8774 C   0  0  0  0  0  0  0  0  0  0  0  0
    7.3260   -0.7730   20.9972 C   0  0  0  0  0  0  0  0  0  0  0  0
    7.2876   -1.8483   20.7873 H   0  0  0  0  0  0  0  0  0  0  0  0
    6.7705   -0.6325   21.9289 H   0  0  0  0  0  0  0  0  0  0  0  0
    8.7277   -0.4120   21.2153 N   0  0  0  0  0  0  0  0  0  0  0  0
    9.8101   -1.1757   20.8788 C   0  0  0  0  0  0  0  0  0  0  0  0
    9.7172   -2.2084   20.5691 H   0  0  0  0  0  0  0  0  0  0  0  0
   10.9497   -0.5450   21.0221 N   0  0  0  0  0  0  0  0  0  0  0  0
   10.6122    0.6863   21.4869 C   0  0  0  0  0  0  0  0  0  0  0  0
   11.3727    1.4232   21.7201 H   0  0  0  0  0  0  0  0  0  0  0  0
    9.2479    0.8055   21.6476 C   0  0  0  0  0  0  0  0  0  0  0  0
    8.5335    1.9649   22.1599 C   0  0  0  0  0  0  0  0  0  0  0  0
    6.9309    1.9398   22.8394 S   0  0  0  0  0  0  0  0  0  0  0  0
    6.9271    3.6547   23.0337 C   0  0  0  0  0  0  0  0  0  0  0  0
    5.5884    4.4656   23.7391 Cl  0  0  0  0  0  0  0  0  0  0  0  0
    8.0998    4.2185   22.6340 C   0  0  0  0  0  0  0  0  0  0  0  0
    8.2685    5.2854   22.6249 H   0  0  0  0  0  0  0  0  0  0  0  0
    9.0240    3.2423   22.1807 C   0  0  0  0  0  0  0  0  0  0  0  0
   10.0392    3.4915   21.9026 H   0  0  0  0  0  0  0  0  0  0  0  0
    5.3913    0.6109   20.0880 C   0  0  0  0  0  0  0  0  0  0  0  0
    4.9148    0.5933   21.0726 H   0  0  0  0  0  0  0  0  0  0  0  0
    4.7875    1.2916   19.0295 C   0  0  0  0  0  0  0  0  0  0  0  0
    3.8605    1.8353   19.1692 H   0  0  0  0  0  0  0  0  0  0  0  0
  1  2  1  0
  2  3  2  0
  3  4  1  0
  4  5  1  0
  4  6  2  0
  6  7  1  0
  7  8  1  0
  7  9  1  0
  7 10  1  0
 10 11  1  0
 11 12  1  0
 11 13  2  0
 13 14  1  0
 14 15  1  0
 14 16  2  0
 16 17  1  0
 17 18  1  0
 18 19  1  0
 19 20  1  0
 19 21  2  0
 21 22  1  0
 21 23  1  0
 23 24  1  0
  6 25  1  0
 25 26  1  0
 25 27  2  0
 27 28  1  0
 27  2  1  0
 16 10  1  0
 23 17  2  0
M  END
>  <plip>  (1) 
-0.03571428571428571

>  <filename>  (1) 
[H][c]1[n][c]([H])[c]([C]([H])([H])[n]2[c]([H])[n][c]([H])[c]2-[c]2[s][c]([Cl])[c]([H])[c]2[H])[c]([H])[c]1[H]

$$$$
