
     RDKit          3D

 37 38  0  0  0  0  0  0  0  0999 V2000
   10.5332   -2.2012   21.5998 C   0  0  0  0  0  0  0  0  0  0  0  0
    9.1725   -1.7088   21.9206 C   0  0  0  0  0  0  0  0  0  0  0  0
    8.4930   -1.1066   20.9502 N   0  0  0  0  0  0  0  0  0  0  0  0
    7.3003   -0.6008   21.2568 C   0  0  0  0  0  0  0  0  0  0  0  0
    6.5644    0.0329   20.1465 C   0  0  0  0  0  0  0  0  0  0  0  0
    5.3320    0.6919   20.2811 C   0  0  0  0  0  0  0  0  0  0  0  0
    4.7821    1.2995   19.1527 C   0  0  0  0  0  0  0  0  0  0  0  0
    5.4673    1.2199   17.9350 C   0  0  0  0  0  0  0  0  0  0  0  0
    6.6274    0.5721   17.7890 N   0  0  0  0  0  0  0  0  0  0  0  0
    7.1544   -0.0030   18.8737 C   0  0  0  0  0  0  0  0  0  0  0  0
    8.0970   -0.5218   18.7275 H   0  0  0  0  0  0  0  0  0  0  0  0
    5.0679    1.6920   17.0372 H   0  0  0  0  0  0  0  0  0  0  0  0
    3.8499    1.8480   19.1996 H   0  0  0  0  0  0  0  0  0  0  0  0
    4.8185    0.7376   21.2450 H   0  0  0  0  0  0  0  0  0  0  0  0
    6.7540   -0.6034   22.4649 N   0  0  0  0  0  0  0  0  0  0  0  0
    7.4362   -1.2375   23.4223 C   0  0  0  0  0  0  0  0  0  0  0  0
    6.9636   -1.2021   24.6936 N   0  0  0  0  0  0  0  0  0  0  0  0
    5.6370   -0.6894   24.9863 C   0  0  0  0  0  0  0  0  0  0  0  0
    5.3296    0.0159   24.2143 H   0  0  0  0  0  0  0  0  0  0  0  0
    4.8930   -1.4987   25.0825 H   0  0  0  0  0  0  0  0  0  0  0  0
    5.6741   -0.1466   25.9351 H   0  0  0  0  0  0  0  0  0  0  0  0
    7.6285   -1.9215   25.7782 C   0  0  0  0  0  0  0  0  0  0  0  0
    7.3244   -3.4256   25.7795 C   0  0  0  0  0  0  0  0  0  0  0  0
    8.0043   -4.1673   26.9239 C   0  0  0  0  0  0  0  0  0  0  0  0
    9.4153   -4.0466   26.8643 O   0  0  0  0  0  0  0  0  0  0  0  0
    9.7284   -4.6283   26.1606 H   0  0  0  0  0  0  0  0  0  0  0  0
    7.6906   -5.2241   26.9366 H   0  0  0  0  0  0  0  0  0  0  0  0
    7.7100   -3.7323   27.8851 H   0  0  0  0  0  0  0  0  0  0  0  0
    6.2391   -3.5742   25.8415 H   0  0  0  0  0  0  0  0  0  0  0  0
    7.6436   -3.8589   24.8239 H   0  0  0  0  0  0  0  0  0  0  0  0
    8.7117   -1.7446   25.7536 H   0  0  0  0  0  0  0  0  0  0  0  0
    7.2891   -1.4762   26.7215 H   0  0  0  0  0  0  0  0  0  0  0  0
    8.6412   -1.8891   23.1642 C   0  0  0  0  0  0  0  0  0  0  0  0
    9.1188   -2.5064   23.8996 H   0  0  0  0  0  0  0  0  0  0  0  0
   10.5167   -2.5102   20.5648 H   0  0  0  0  0  0  0  0  0  0  0  0
   10.8098   -3.0349   22.2488 H   0  0  0  0  0  0  0  0  0  0  0  0
   11.2732   -1.4056   21.7093 H   0  0  0  0  0  0  0  0  0  0  0  0
  1  2  1  0
  2  3  2  0
  3  4  1  0
  4  5  1  0
  5  6  2  0
  6  7  1  0
  7  8  2  0
  8  9  1  0
  9 10  2  0
 10 11  1  0
  8 12  1  0
  7 13  1  0
  6 14  1  0
  4 15  2  0
 15 16  1  0
 16 17  1  0
 17 18  1  0
 18 19  1  0
 18 20  1  0
 18 21  1  0
 17 22  1  0
 22 23  1  0
 23 24  1  0
 24 25  1  0
 25 26  1  0
 24 27  1  0
 24 28  1  0
 23 29  1  0
 23 30  1  0
 22 31  1  0
 22 32  1  0
 16 33  2  0
 33 34  1  0
  1 35  1  0
  1 36  1  0
  1 37  1  0
 33  2  1  0
 10  5  1  0
M  END
>  <plip>  (1) 
-0.0

>  <filename>  (1) 
[H][O][C]([H])([H])[C]([H])([H])[C]([H])([H])[N]([c]1[n][c](-[c]2[c]([H])[n][c]([H])[c]([H])[c]2[H])[n][c]([C]([H])([H])[H])[c]1[H])[C]([H])([H])[H]

$$$$
