
     RDKit          3D

 56 59  0  0  0  0  0  0  0  0999 V2000
    5.9986   -3.4876   25.2301 Cl  0  0  0  0  0  0  0  0  0  0  0  0
    4.3564   -3.9102   24.8129 C   0  0  0  0  0  0  0  0  0  0  0  0
    3.3842   -3.8077   25.8127 C   0  0  0  0  0  0  0  0  0  0  0  0
    2.0591   -4.1380   25.5292 C   0  0  0  0  0  0  0  0  0  0  0  0
    1.7151   -4.6215   24.2632 C   0  0  0  0  0  0  0  0  0  0  0  0
    2.7003   -4.7800   23.2827 C   0  0  0  0  0  0  0  0  0  0  0  0
    4.0289   -4.3557   23.5045 C   0  0  0  0  0  0  0  0  0  0  0  0
    4.9619   -4.3583   22.4539 N   0  0  0  0  0  0  0  0  0  0  0  0
    5.2672   -5.6183   21.7980 C   0  0  0  0  0  0  0  0  0  0  0  0
    6.4304   -5.4682   20.8044 C   0  0  0  0  0  0  0  0  0  0  0  0
    7.5866   -4.6189   21.3609 C   0  0  0  0  0  0  0  0  0  0  0  0
    7.1517   -3.2001   21.7691 C   0  0  0  0  0  0  0  0  0  0  0  0
    7.5690   -2.1579   20.7099 N   0  0  0  0  0  4  0  0  0  0  0  0
    7.4054   -0.6785   21.0224 C   0  0  0  0  0  0  0  0  0  0  0  0
    6.6290   -0.0284   19.8863 C   0  0  0  0  0  0  0  0  0  0  0  0
    5.4293    0.6734   20.1122 C   0  0  0  0  0  0  0  0  0  0  0  0
    4.8140    1.3346   19.0460 C   0  0  0  0  0  0  0  0  0  0  0  0
    5.4207    1.2930   17.7874 C   0  0  0  0  0  0  0  0  0  0  0  0
    6.5536    0.6165   17.5453 N   0  0  0  0  0  0  0  0  0  0  0  0
    7.1244   -0.0286   18.5733 C   0  0  0  0  0  0  0  0  0  0  0  0
    8.0411   -0.5635   18.3207 H   0  0  0  0  0  0  0  0  0  0  0  0
    4.9784    1.8226   16.9430 H   0  0  0  0  0  0  0  0  0  0  0  0
    3.8890    1.8877   19.1760 H   0  0  0  0  0  0  0  0  0  0  0  0
    4.9790    0.6949   21.1078 H   0  0  0  0  0  0  0  0  0  0  0  0
    8.7943   -0.0306   21.3048 C   0  0  0  0  0  0  0  0  0  0  0  0
    8.6826    1.4857   21.5633 C   0  0  0  0  0  0  0  0  0  0  0  0
   10.0250    2.0982   21.9703 C   0  0  0  0  0  0  0  0  0  0  0  0
   10.5980    1.4231   23.0796 O   0  0  0  0  0  0  0  0  0  0  0  0
   10.8027    0.0363   22.8676 C   0  0  0  0  0  0  0  0  0  0  0  0
    9.5034   -0.6913   22.5110 C   0  0  0  0  0  0  0  0  0  0  0  0
    9.7383   -1.7450   22.3158 H   0  0  0  0  0  0  0  0  0  0  0  0
    8.8391   -0.6626   23.3877 H   0  0  0  0  0  0  0  0  0  0  0  0
   11.2165   -0.3560   23.8025 H   0  0  0  0  0  0  0  0  0  0  0  0
   11.5550   -0.1225   22.0752 H   0  0  0  0  0  0  0  0  0  0  0  0
   10.7304    2.1030   21.1209 H   0  0  0  0  0  0  0  0  0  0  0  0
    9.8857    3.1371   22.2882 H   0  0  0  0  0  0  0  0  0  0  0  0
    8.2878    1.9988   20.6780 H   0  0  0  0  0  0  0  0  0  0  0  0
    7.9761    1.6626   22.3882 H   0  0  0  0  0  0  0  0  0  0  0  0
    9.4126   -0.1972   20.4070 H   0  0  0  0  0  0  0  0  0  0  0  0
    6.8074   -0.5740   21.9351 H   0  0  0  0  0  0  0  0  0  0  0  0
    8.5765   -2.2927   20.4707 H   0  0  0  0  0  0  0  0  0  0  0  0
    7.0159   -2.3351   19.8374 H   0  0  0  0  0  0  0  0  0  0  0  0
    5.6170   -3.1153   22.0449 C   0  0  0  0  0  0  0  0  0  0  0  0
    5.1631   -2.7011   21.1304 H   0  0  0  0  0  0  0  0  0  0  0  0
    5.5022   -2.3903   22.8463 H   0  0  0  0  0  0  0  0  0  0  0  0
    7.6636   -2.9345   22.6983 H   0  0  0  0  0  0  0  0  0  0  0  0
    8.0062   -5.1209   22.2455 H   0  0  0  0  0  0  0  0  0  0  0  0
    8.3918   -4.5634   20.6256 H   0  0  0  0  0  0  0  0  0  0  0  0
    6.8023   -6.4605   20.5436 H   0  0  0  0  0  0  0  0  0  0  0  0
    6.0487   -5.0029   19.8854 H   0  0  0  0  0  0  0  0  0  0  0  0
    4.3821   -6.0076   21.2695 H   0  0  0  0  0  0  0  0  0  0  0  0
    5.5120   -6.3656   22.5735 H   0  0  0  0  0  0  0  0  0  0  0  0
    2.4416   -5.1728   22.3036 H   0  0  0  0  0  0  0  0  0  0  0  0
    0.6813   -4.8660   24.0352 H   0  0  0  0  0  0  0  0  0  0  0  0
    1.2999   -4.0249   26.3005 H   0  0  0  0  0  0  0  0  0  0  0  0
    3.6869   -3.4998   26.8107 H   0  0  0  0  0  0  0  0  0  0  0  0
  1  2  1  0
  2  3  2  0
  3  4  1  0
  4  5  2  0
  5  6  1  0
  6  7  2  0
  7  8  1  0
  8  9  1  0
  9 10  1  0
 10 11  1  0
 11 12  1  0
 12 13  1  0
 13 14  1  0
 14 15  1  0
 15 16  2  0
 16 17  1  0
 17 18  2  0
 18 19  1  0
 19 20  2  0
 20 21  1  0
 18 22  1  0
 17 23  1  0
 16 24  1  0
 14 25  1  0
 25 26  1  0
 26 27  1  0
 27 28  1  0
 28 29  1  0
 29 30  1  0
 30 31  1  0
 30 32  1  0
 29 33  1  0
 29 34  1  0
 27 35  1  0
 27 36  1  0
 26 37  1  0
 26 38  1  0
 25 39  1  0
 14 40  1  0
 13 41  1  0
 13 42  1  0
 12 43  1  0
 43 44  1  0
 43 45  1  0
 12 46  1  0
 11 47  1  0
 11 48  1  0
 10 49  1  0
 10 50  1  0
  9 51  1  0
  9 52  1  0
  6 53  1  0
  5 54  1  0
  4 55  1  0
  3 56  1  0
  7  2  1  0
 43  8  1  0
 20 15  1  0
 30 25  1  0
M  CHG  1  13   1
M  END
>  <plip>  (1) 
-0.03225806451612903

>  <filename>  (1) 
[H][c]1[n][c]([H])[c]([C]([H])([C]2([H])[C]([H])([H])[C]([H])([H])[O][C]([H])([H])[C]2([H])[H])[N+]([H])([H])[C]2([H])[C]([H])([H])[N]([c]3[c]([H])[c]([H])[c]([H])[c]([H])[c]3[Cl])[C]([H])([H])[C]([H])([H])[C]2([H])[H])[c]([H])[c]1[H]

$$$$
