
     RDKit          3D

 28 29  0  0  0  0  0  0  0  0999 V2000
    6.2600   -6.0149   25.6257 C   0  0  0  0  0  0  0  0  0  0  0  0
    5.0596   -5.7795   24.8889 O   0  0  0  0  0  0  0  0  0  0  0  0
    5.1506   -4.8886   23.8890 C   0  0  0  0  0  0  0  0  0  0  0  0
    6.1351   -4.0224   23.4800 C   0  0  0  0  0  0  0  0  0  0  0  0
    5.5757   -3.3734   22.3615 C   0  0  0  0  0  0  0  0  0  0  0  0
    6.1110   -2.3760   21.5543 N   0  0  0  0  0  0  0  0  0  0  0  0
    7.1385   -1.5592   21.8382 C   0  0  0  0  0  0  0  0  0  0  0  0
    8.1203   -1.6265   23.1770 S   0  0  0  0  0  0  0  0  0  0  0  0
    7.4276   -0.6017   20.9081 N   0  0  0  0  0  0  0  0  0  0  0  0
    6.6485   -0.0685   19.8236 C   0  0  0  0  0  0  0  0  0  0  0  0
    5.4244    0.5622   20.0759 C   0  0  0  0  0  0  0  0  0  0  0  0
    4.8060    1.2833   19.0447 C   0  0  0  0  0  0  0  0  0  0  0  0
    5.4111    1.3096   17.7851 C   0  0  0  0  0  0  0  0  0  0  0  0
    6.5466    0.6461   17.5063 N   0  0  0  0  0  0  0  0  0  0  0  0
    7.1427   -0.0230   18.4998 C   0  0  0  0  0  0  0  0  0  0  0  0
    8.0742   -0.5326   18.2589 H   0  0  0  0  0  0  0  0  0  0  0  0
    4.9675    1.8615   16.9559 H   0  0  0  0  0  0  0  0  0  0  0  0
    3.8821    1.8291   19.2063 H   0  0  0  0  0  0  0  0  0  0  0  0
    5.0144    0.5276   21.0835 H   0  0  0  0  0  0  0  0  0  0  0  0
    8.1092    0.0032   21.3573 H   0  0  0  0  0  0  0  0  0  0  0  0
    5.5390   -2.1484   20.7575 H   0  0  0  0  0  0  0  0  0  0  0  0
    4.3649   -3.7994   22.0747 N   0  0  0  0  0  0  0  0  0  0  0  0
    4.1153   -4.7577   23.0302 N   0  0  0  0  0  0  0  0  0  0  0  0
    3.1755   -5.0679   23.2363 H   0  0  0  0  0  0  0  0  0  0  0  0
    7.0659   -3.7754   23.9419 H   0  0  0  0  0  0  0  0  0  0  0  0
    6.4818   -5.1903   26.3124 H   0  0  0  0  0  0  0  0  0  0  0  0
    7.1169   -6.1561   24.9573 H   0  0  0  0  0  0  0  0  0  0  0  0
    6.0857   -6.9314   26.1926 H   0  0  0  0  0  0  0  0  0  0  0  0
  1  2  1  0
  2  3  1  0
  3  4  2  0
  4  5  1  0
  5  6  1  0
  6  7  1  0
  7  8  2  0
  7  9  1  0
  9 10  1  0
 10 11  2  0
 11 12  1  0
 12 13  2  0
 13 14  1  0
 14 15  2  0
 15 16  1  0
 13 17  1  0
 12 18  1  0
 11 19  1  0
  9 20  1  0
  6 21  1  0
  5 22  2  0
 22 23  1  0
 23 24  1  0
  4 25  1  0
  1 26  1  0
  1 27  1  0
  1 28  1  0
 23  3  1  0
 15 10  1  0
M  END
>  <plip>  (1) 
-0.07142857142857142

>  <filename>  (1) 
[H][c]1[n][c]([H])[c]([N]([H])[C](=[S])[N]([H])[c]2[n][n]([H])[c]([O][C]([H])([H])[H])[c]2[H])[c]([H])[c]1[H]

$$$$
