
     RDKit          3D

 44 46  0  0  0  0  0  0  0  0999 V2000
    6.6291   -1.8931   21.4922 C   0  0  0  0  0  0  0  0  0  0  0  0
    7.4115   -0.6688   21.0462 C   0  0  0  0  0  0  0  0  0  0  0  0
    8.8632   -1.0520   20.7681 C   0  0  0  0  0  0  0  0  0  0  0  0
    8.9101   -1.7890   19.9657 H   0  0  0  0  0  0  0  0  0  0  0  0
    9.4637   -0.1799   20.4893 H   0  0  0  0  0  0  0  0  0  0  0  0
    9.2943   -1.5026   21.6701 H   0  0  0  0  0  0  0  0  0  0  0  0
    7.4098    0.3403   22.2441 N   0  0  0  0  0  4  0  0  0  0  0  0
    8.2141    1.6275   21.9945 C   0  0  0  0  0  0  0  0  0  0  0  0
    9.7413    1.5412   22.3021 C   0  0  0  0  0  0  0  0  0  0  0  0
   10.5728    1.8142   21.4543 O   0  0  0  0  0  0  0  0  0  0  0  0
   10.0836    0.9973   23.5246 N   0  0  0  0  0  0  0  0  0  0  0  0
   11.2424    0.0814   23.6347 C   0  0  0  0  0  0  0  0  0  0  0  0
   10.9776   -0.6969   24.9414 C   0  0  0  0  0  0  0  0  0  0  0  0
    9.8442    0.0468   25.6007 C   0  0  0  0  0  0  0  0  0  0  0  0
    9.2562   -0.1363   26.8509 C   0  0  0  0  0  0  0  0  0  0  0  0
    8.2264    0.7294   27.2561 C   0  0  0  0  0  0  0  0  0  0  0  0
    7.7966    1.7579   26.4024 C   0  0  0  0  0  0  0  0  0  0  0  0
    8.3800    1.9430   25.1430 C   0  0  0  0  0  0  0  0  0  0  0  0
    9.3814    1.0474   24.7430 C   0  0  0  0  0  0  0  0  0  0  0  0
    8.1183    2.7746   24.4965 H   0  0  0  0  0  0  0  0  0  0  0  0
    7.0080    2.4362   26.7262 H   0  0  0  0  0  0  0  0  0  0  0  0
    7.7801    0.6015   28.2397 H   0  0  0  0  0  0  0  0  0  0  0  0
    9.6000   -0.9287   27.5157 H   0  0  0  0  0  0  0  0  0  0  0  0
   11.8767   -0.7266   25.5639 H   0  0  0  0  0  0  0  0  0  0  0  0
   10.6752   -1.7324   24.7376 H   0  0  0  0  0  0  0  0  0  0  0  0
   12.1811    0.6488   23.6567 H   0  0  0  0  0  0  0  0  0  0  0  0
   11.2892   -0.5738   22.7554 H   0  0  0  0  0  0  0  0  0  0  0  0
    7.7782    2.4825   22.5203 H   0  0  0  0  0  0  0  0  0  0  0  0
    8.1945    1.8722   20.9308 H   0  0  0  0  0  0  0  0  0  0  0  0
    7.7640   -0.1779   23.0762 H   0  0  0  0  0  0  0  0  0  0  0  0
    6.3989    0.5278   22.4101 H   0  0  0  0  0  0  0  0  0  0  0  0
    6.6990    0.0234   19.8937 C   0  0  0  0  0  0  0  0  0  0  0  0
    5.4638    0.6750   20.0864 C   0  0  0  0  0  0  0  0  0  0  0  0
    4.8668    1.3384   19.0162 C   0  0  0  0  0  0  0  0  0  0  0  0
    5.5019    1.3149   17.7695 C   0  0  0  0  0  0  0  0  0  0  0  0
    6.6520    0.6689   17.5501 N   0  0  0  0  0  0  0  0  0  0  0  0
    7.2246    0.0516   18.5964 C   0  0  0  0  0  0  0  0  0  0  0  0
    8.1643   -0.4475   18.3690 H   0  0  0  0  0  0  0  0  0  0  0  0
    5.0564    1.8273   16.9153 H   0  0  0  0  0  0  0  0  0  0  0  0
    3.9446    1.8975   19.1457 H   0  0  0  0  0  0  0  0  0  0  0  0
    4.9622    0.6763   21.0599 H   0  0  0  0  0  0  0  0  0  0  0  0
    6.6675   -2.6599   20.7135 H   0  0  0  0  0  0  0  0  0  0  0  0
    5.5755   -1.6589   21.6678 H   0  0  0  0  0  0  0  0  0  0  0  0
    7.0544   -2.3196   22.4072 H   0  0  0  0  0  0  0  0  0  0  0  0
  1  2  1  0
  2  3  1  0
  3  4  1  0
  3  5  1  0
  3  6  1  0
  2  7  1  0
  7  8  1  0
  8  9  1  0
  9 10  2  0
  9 11  1  0
 11 12  1  0
 12 13  1  0
 13 14  1  0
 14 15  2  0
 15 16  1  0
 16 17  2  0
 17 18  1  0
 18 19  2  0
 18 20  1  0
 17 21  1  0
 16 22  1  0
 15 23  1  0
 13 24  1  0
 13 25  1  0
 12 26  1  0
 12 27  1  0
  8 28  1  0
  8 29  1  0
  7 30  1  0
  7 31  1  0
  2 32  1  0
 32 33  2  0
 33 34  1  0
 34 35  2  0
 35 36  1  0
 36 37  2  0
 37 38  1  0
 35 39  1  0
 34 40  1  0
 33 41  1  0
  1 42  1  0
  1 43  1  0
  1 44  1  0
 19 11  1  0
 37 32  1  0
 19 14  1  0
M  CHG  1   7   1
M  END
>  <plip>  (1) 
-0.10344827586206896

>  <filename>  (1) 
[H][c]1[n][c]([H])[c]([C]([C]([H])([H])[H])([C]([H])([H])[H])[N+]([H])([H])[C]([H])([H])[C](=[O])[N]2[c]3[c]([H])[c]([H])[c]([H])[c]([H])[c]3[C]([H])([H])[C]2([H])[H])[c]([H])[c]1[H]

$$$$
