
     RDKit          3D

 51 54  0  0  0  0  0  0  0  0999 V2000
    6.4804   -3.0083   20.7677 C   0  0  0  0  0  0  0  0  0  0  0  0
    6.6601   -1.8032   21.6117 N   0  0  0  0  0  4  0  0  0  0  0  0
    7.2458   -2.0629   22.9720 C   0  0  0  0  0  0  0  0  0  0  0  0
    8.0343   -0.7815   23.3284 C   0  0  0  0  0  0  0  0  0  0  0  0
    7.8828    0.1731   22.1229 C   0  0  1  0  0  0  0  0  0  0  0  0
    9.0868    1.0668   21.7846 C   0  0  0  0  0  0  0  0  0  0  0  0
    9.2997    2.1288   22.7469 N   0  0  0  0  0  0  0  0  0  0  0  0
    8.3666    3.1104   22.9580 C   0  0  0  0  0  0  0  0  0  0  0  0
    7.4800    3.3688   22.1714 O   0  0  0  0  0  0  0  0  0  0  0  0
    8.5653    3.7354   24.3000 C   0  0  2  0  0  0  0  0  0  0  0  0
    8.1311    2.9072   25.4568 C   0  0  1  0  0  0  0  0  0  0  0  0
    9.0041    2.8078   26.4970 F   0  0  0  0  0  0  0  0  0  0  0  0
    7.4190    4.1917   25.1800 C   0  0  1  0  0  0  0  0  0  0  0  0
    7.5875    5.3888   26.0671 C   0  0  0  0  0  0  0  0  0  0  0  0
    7.8247    6.6617   25.5255 C   0  0  0  0  0  0  0  0  0  0  0  0
    7.9040    7.7824   26.3622 C   0  0  0  0  0  0  0  0  0  0  0  0
    7.7352    7.6322   27.7444 C   0  0  0  0  0  0  0  0  0  0  0  0
    7.4891    6.3662   28.2918 C   0  0  0  0  0  0  0  0  0  0  0  0
    7.4201    5.2521   27.4519 C   0  0  0  0  0  0  0  0  0  0  0  0
    7.2354    4.2635   27.8635 H   0  0  0  0  0  0  0  0  0  0  0  0
    7.3443    6.2524   29.3637 H   0  0  0  0  0  0  0  0  0  0  0  0
    7.7746    8.5074   28.3880 H   0  0  0  0  0  0  0  0  0  0  0  0
    8.0880    8.7652   25.9280 H   0  0  0  0  0  0  0  0  0  0  0  0
    7.9375    6.7533   24.4459 H   0  0  0  0  0  0  0  0  0  0  0  0
    6.4157    4.0829   24.7629 H   0  0  0  0  0  0  0  0  0  0  0  0
    7.5733    1.9838   25.2975 H   0  0  0  0  0  0  0  0  0  0  0  0
    9.5046    4.2781   24.3939 H   0  0  0  0  0  0  0  0  0  0  0  0
    9.7889    1.8974   23.5945 H   0  0  0  0  0  0  0  0  0  0  0  0
    8.9506    1.5234   20.7983 H   0  0  0  0  0  0  0  0  0  0  0  0
   10.0046    0.4660   21.7329 H   0  0  0  0  0  0  0  0  0  0  0  0
    7.4985   -0.7280   20.9521 C   0  0  2  0  0  0  0  0  0  0  0  0
    6.7080   -0.0334   19.8737 C   0  0  0  0  0  0  0  0  0  0  0  0
    5.4897    0.6254   20.1237 C   0  0  0  0  0  0  0  0  0  0  0  0
    4.8567    1.2885   19.0730 C   0  0  0  0  0  0  0  0  0  0  0  0
    5.4576    1.2716   17.8077 C   0  0  0  0  0  0  0  0  0  0  0  0
    6.6068    0.6323   17.5448 N   0  0  0  0  0  0  0  0  0  0  0  0
    7.2023    0.0032   18.5654 C   0  0  0  0  0  0  0  0  0  0  0  0
    8.1338   -0.5141   18.3256 H   0  0  0  0  0  0  0  0  0  0  0  0
    4.9910    1.7845   16.9680 H   0  0  0  0  0  0  0  0  0  0  0  0
    3.9232    1.8273   19.2159 H   0  0  0  0  0  0  0  0  0  0  0  0
    5.0486    0.6423   21.1273 H   0  0  0  0  0  0  0  0  0  0  0  0
    8.3892   -1.2009   20.5143 H   0  0  0  0  0  0  0  0  0  0  0  0
    7.0214    0.8331   22.3109 H   0  0  0  0  0  0  0  0  0  0  0  0
    9.0854   -1.0294   23.5224 H   0  0  0  0  0  0  0  0  0  0  0  0
    7.6468   -0.3198   24.2443 H   0  0  0  0  0  0  0  0  0  0  0  0
    6.4502   -2.2979   23.6879 H   0  0  0  0  0  0  0  0  0  0  0  0
    7.9000   -2.9390   22.9077 H   0  0  0  0  0  0  0  0  0  0  0  0
    5.7415   -1.3181   21.7474 H   0  0  0  0  0  0  0  0  0  0  0  0
    5.7963   -3.7335   21.2238 H   0  0  0  0  0  0  0  0  0  0  0  0
    6.1059   -2.7276   19.7760 H   0  0  0  0  0  0  0  0  0  0  0  0
    7.4535   -3.5067   20.6270 H   0  0  0  0  0  0  0  0  0  0  0  0
  1  2  1  0
  2  3  1  0
  3  4  1  0
  4  5  1  0
  5  6  1  0
  6  7  1  0
  7  8  1  0
  8  9  2  0
  8 10  1  0
 10 11  1  0
 11 12  1  0
 11 13  1  0
 13 14  1  0
 14 15  2  0
 15 16  1  0
 16 17  2  0
 17 18  1  0
 18 19  2  0
 19 20  1  0
 18 21  1  0
 17 22  1  0
 16 23  1  0
 15 24  1  0
 13 25  1  6
 11 26  1  6
 10 27  1  1
  7 28  1  0
  6 29  1  0
  6 30  1  0
  5 31  1  0
 31 32  1  0
 32 33  2  0
 33 34  1  0
 34 35  2  0
 35 36  1  0
 36 37  2  0
 37 38  1  0
 35 39  1  0
 34 40  1  0
 33 41  1  0
 31 42  1  6
  5 43  1  1
  4 44  1  0
  4 45  1  0
  3 46  1  0
  3 47  1  0
  2 48  1  0
  1 49  1  0
  1 50  1  0
  1 51  1  0
 31  2  1  0
 37 32  1  0
 13 10  1  0
 19 14  1  0
M  CHG  1   2   1
M  END
>  <plip>  (1) 
-0.07142857142857142

>  <filename>  (1) 
[H][c]1[n][c]([H])[c]([C@@]2([H])[C@]([H])([C]([H])([H])[N]([H])[C](=[O])[C@]3([H])[C@@]([H])([F])[C@@]3([H])[c]3[c]([H])[c]([H])[c]([H])[c]([H])[c]3[H])[C]([H])([H])[C]([H])([H])[N+]2([H])[C]([H])([H])[H])[c]([H])[c]1[H]

$$$$
