
     RDKit          3D

 30 31  0  0  0  0  0  0  0  0999 V2000
    5.0220    1.7805   16.8075 H   0  0  0  0  0  0  0  0  0  0  0  0
    5.4158    1.3396   17.7223 C   0  0  0  0  0  0  0  0  0  0  0  0
    6.6054    0.7319   17.6158 N   0  0  0  0  0  0  0  0  0  0  0  0
    7.1253    0.1863   18.7245 C   0  0  0  0  0  0  0  0  0  0  0  0
    8.0976   -0.2874   18.5958 H   0  0  0  0  0  0  0  0  0  0  0  0
    6.4922    0.1976   19.9784 C   0  0  0  0  0  0  0  0  0  0  0  0
    7.1266   -0.4553   21.1871 C   0  0  2  0  0  0  0  0  0  0  0  0
    6.4659   -0.2883   22.0488 H   0  0  0  0  0  0  0  0  0  0  0  0
    8.6665    0.5018   21.5409 S   0  0  0  0  0  0  0  0  0  0  0  0
    8.9752   -0.1000   23.1873 C   0  0  0  0  0  0  0  0  0  0  0  0
    9.3165   -1.3810   23.2979 N   0  0  0  0  0  0  0  0  0  0  0  0
    9.3279   -1.9511   24.5152 C   0  0  0  0  0  0  0  0  0  0  0  0
    9.5442   -3.4793   24.5296 C   0  0  0  0  0  0  0  0  0  0  0  0
    8.4784   -4.1285   24.0095 F   0  0  0  0  0  0  0  0  0  0  0  0
   10.6092   -3.8541   23.8103 F   0  0  0  0  0  0  0  0  0  0  0  0
    9.7116   -3.9611   25.7790 F   0  0  0  0  0  0  0  0  0  0  0  0
    9.0785   -1.2356   25.6876 C   0  0  0  0  0  0  0  0  0  0  0  0
    9.1030   -1.7369   26.6462 H   0  0  0  0  0  0  0  0  0  0  0  0
    8.8100    0.1371   25.5817 C   0  0  0  0  0  0  0  0  0  0  0  0
    8.6049    0.7175   26.4791 H   0  0  0  0  0  0  0  0  0  0  0  0
    8.7714    0.7203   24.3128 C   0  0  0  0  0  0  0  0  0  0  0  0
    8.5615    1.7730   24.1619 H   0  0  0  0  0  0  0  0  0  0  0  0
    7.3629   -1.9720   21.0316 C   0  0  0  0  0  0  0  0  0  0  0  0
    6.5167   -2.4572   20.5357 H   0  0  0  0  0  0  0  0  0  0  0  0
    7.5005   -2.4358   22.0143 H   0  0  0  0  0  0  0  0  0  0  0  0
    8.2742   -2.1627   20.4565 H   0  0  0  0  0  0  0  0  0  0  0  0
    5.2475    0.8413   20.0671 C   0  0  0  0  0  0  0  0  0  0  0  0
    4.7202    0.8906   21.0206 H   0  0  0  0  0  0  0  0  0  0  0  0
    4.6981    1.4198   18.9199 C   0  0  0  0  0  0  0  0  0  0  0  0
    3.7444    1.9361   18.9398 H   0  0  0  0  0  0  0  0  0  0  0  0
  1  2  1  0
  2  3  2  0
  3  4  1  0
  4  5  1  0
  4  6  2  0
  6  7  1  0
  7  8  1  1
  7  9  1  0
  9 10  1  0
 10 11  2  0
 11 12  1  0
 12 13  1  0
 13 14  1  0
 13 15  1  0
 13 16  1  0
 12 17  2  0
 17 18  1  0
 17 19  1  0
 19 20  1  0
 19 21  2  0
 21 22  1  0
  7 23  1  0
 23 24  1  0
 23 25  1  0
 23 26  1  0
  6 27  1  0
 27 28  1  0
 27 29  2  0
 29 30  1  0
 29  2  1  0
 21 10  1  0
M  END
>  <plip>  (1) 
-0.03571428571428571

>  <filename>  (1) 
[H][c]1[n][c]([H])[c]([C@]([H])([S][c]2[n][c]([C]([F])([F])[F])[c]([H])[c]([H])[c]2[H])[C]([H])([H])[H])[c]([H])[c]1[H]

$$$$
