
     RDKit          3D

 49 52  0  0  0  0  0  0  0  0999 V2000
    9.0176    1.3912   20.9119 O   0  0  0  0  0  0  0  0  0  0  0  0
    8.4202    1.2016   21.9536 C   0  0  0  0  0  0  0  0  0  0  0  0
    7.6170    0.0880   22.1048 N   0  0  0  0  0  0  0  0  0  0  0  0
    7.3095   -0.7831   20.9533 C   0  0  0  0  0  0  0  0  0  0  0  0
    6.5922   -0.0040   19.8628 C   0  0  0  0  0  0  0  0  0  0  0  0
    5.3649    0.6399   20.0648 C   0  0  0  0  0  0  0  0  0  0  0  0
    4.7786    1.3188   18.9943 C   0  0  0  0  0  0  0  0  0  0  0  0
    5.4372    1.3356   17.7604 C   0  0  0  0  0  0  0  0  0  0  0  0
    6.6220    0.7441   17.5491 N   0  0  0  0  0  0  0  0  0  0  0  0
    7.1805    0.1165   18.5945 C   0  0  0  0  0  0  0  0  0  0  0  0
    8.1658   -0.3198   18.4140 H   0  0  0  0  0  0  0  0  0  0  0  0
    4.9949    1.8428   16.9043 H   0  0  0  0  0  0  0  0  0  0  0  0
    3.8440    1.8529   19.1094 H   0  0  0  0  0  0  0  0  0  0  0  0
    4.8814    0.6250   21.0449 H   0  0  0  0  0  0  0  0  0  0  0  0
    6.5714   -2.0709   21.4224 C   0  0  0  0  0  0  0  0  0  0  0  0
    6.0745   -3.0427   20.3158 C   0  0  0  0  0  0  0  0  0  0  0  0
    6.2751   -4.4908   20.8412 C   0  0  0  0  0  0  0  0  0  0  0  0
    6.8525   -4.3553   22.2675 C   0  0  0  0  0  0  0  0  0  0  0  0
    7.4462   -2.9455   22.3417 C   0  0  0  0  0  0  0  0  0  0  0  0
    8.4689   -2.9493   21.9470 H   0  0  0  0  0  0  0  0  0  0  0  0
    7.5021   -2.5621   23.3711 H   0  0  0  0  0  0  0  0  0  0  0  0
    7.5978   -5.1240   22.5083 H   0  0  0  0  0  0  0  0  0  0  0  0
    6.0536   -4.4506   23.0132 H   0  0  0  0  0  0  0  0  0  0  0  0
    5.3381   -5.0592   20.8686 H   0  0  0  0  0  0  0  0  0  0  0  0
    6.9410   -5.0606   20.1849 H   0  0  0  0  0  0  0  0  0  0  0  0
    5.0317   -2.8691   20.0704 H   0  0  0  0  0  0  0  0  0  0  0  0
    6.5669   -2.8523   19.3633 H   0  0  0  0  0  0  0  0  0  0  0  0
    5.6884   -1.7528   21.9852 H   0  0  0  0  0  0  0  0  0  0  0  0
    8.2736   -1.0976   20.5320 H   0  0  0  0  0  0  0  0  0  0  0  0
    6.9506    0.0881   22.8570 H   0  0  0  0  0  0  0  0  0  0  0  0
    8.4333    2.2025   23.1842 C   0  0  2  0  0  0  0  0  0  0  0  0
    7.3141    3.2766   23.0162 C   0  0  0  0  0  0  0  0  0  0  0  0
    7.8650    4.6826   24.0153 S   0  0  0  0  0  0  0  0  0  0  0  0
    9.5482    4.0851   23.9206 C   0  0  0  0  0  0  0  0  0  0  0  0
    9.6847    2.8950   23.4684 N   0  0  0  0  0  0  0  0  0  0  0  0
   10.6921    4.9934   24.2453 C   0  0  0  0  0  0  0  0  0  0  0  0
   10.5056    6.2187   24.9215 C   0  0  0  0  0  0  0  0  0  0  0  0
   11.5750    7.1071   25.0835 C   0  0  0  0  0  0  0  0  0  0  0  0
   12.8447    6.7775   24.5962 C   0  0  0  0  0  0  0  0  0  0  0  0
   13.0567    5.5352   23.9816 C   0  0  0  0  0  0  0  0  0  0  0  0
   11.9913    4.6476   23.8058 C   0  0  0  0  0  0  0  0  0  0  0  0
   12.1485    3.6910   23.3038 H   0  0  0  0  0  0  0  0  0  0  0  0
   14.0488    5.2573   23.6276 H   0  0  0  0  0  0  0  0  0  0  0  0
   13.6582    7.4933   24.6898 H   0  0  0  0  0  0  0  0  0  0  0  0
   11.4093    8.0724   25.5612 H   0  0  0  0  0  0  0  0  0  0  0  0
    9.5223    6.4883   25.3077 H   0  0  0  0  0  0  0  0  0  0  0  0
    7.2116    3.5913   21.9688 H   0  0  0  0  0  0  0  0  0  0  0  0
    6.3464    2.9162   23.3719 H   0  0  0  0  0  0  0  0  0  0  0  0
    8.1984    1.5880   24.0665 H   0  0  0  0  0  0  0  0  0  0  0  0
  1  2  2  0
  2  3  1  0
  3  4  1  0
  4  5  1  0
  5  6  2  0
  6  7  1  0
  7  8  2  0
  8  9  1  0
  9 10  2  0
 10 11  1  0
  8 12  1  0
  7 13  1  0
  6 14  1  0
  4 15  1  0
 15 16  1  0
 16 17  1  0
 17 18  1  0
 18 19  1  0
 19 20  1  0
 19 21  1  0
 18 22  1  0
 18 23  1  0
 17 24  1  0
 17 25  1  0
 16 26  1  0
 16 27  1  0
 15 28  1  0
  4 29  1  0
  3 30  1  0
  2 31  1  0
 31 32  1  0
 32 33  1  0
 33 34  1  0
 34 35  2  0
 34 36  1  0
 36 37  2  0
 37 38  1  0
 38 39  2  0
 39 40  1  0
 40 41  2  0
 41 42  1  0
 40 43  1  0
 39 44  1  0
 38 45  1  0
 37 46  1  0
 32 47  1  0
 32 48  1  0
 31 49  1  1
 10  5  1  0
 19 15  1  0
 35 31  1  0
 41 36  1  0
M  END
>  <plip>  (1) 
-0.17857142857142858

>  <filename>  (1) 
[H][c]1[n][c]([H])[c]([C]([H])([N]([H])[C](=[O])[C@@]2([H])[N]=[C]([c]3[c]([H])[c]([H])[c]([H])[c]([H])[c]3[H])[S][C]2([H])[H])[C]2([H])[C]([H])([H])[C]([H])([H])[C]([H])([H])[C]2([H])[H])[c]([H])[c]1[H]

$$$$
