
     RDKit          3D

 44 46  0  0  0  0  0  0  0  0999 V2000
    5.2139   -3.6117   22.3327 C   0  0  0  0  0  0  0  0  0  0  0  0
    5.7208   -2.3739   21.8041 O   0  0  0  0  0  0  0  0  0  0  0  0
    6.9577   -2.3645   21.2824 C   0  0  0  0  0  0  0  0  0  0  0  0
    7.6460   -3.3505   21.1657 O   0  0  0  0  0  0  0  0  0  0  0  0
    7.4779   -0.9445   20.8652 C   0  0  0  0  0  0  0  0  0  0  0  0
    7.5717   -0.1127   22.0543 O   0  0  0  0  0  0  0  0  0  0  0  0
    8.2010    1.0873   21.9265 C   0  0  0  0  0  0  0  0  0  0  0  0
    8.8758    1.3975   20.9765 O   0  0  0  0  0  0  0  0  0  0  0  0
    7.8842    1.9772   23.1092 C   0  0  0  0  0  0  0  0  0  0  0  0
    8.7738    1.3954   24.6091 S   0  0  0  0  0  0  0  0  0  0  0  0
    8.2946    2.5952   25.8403 C   0  0  0  0  0  0  0  0  0  0  0  0
    7.4104    2.2129   26.8633 C   0  0  0  0  0  0  0  0  0  0  0  0
    7.0874    3.0976   27.9003 C   0  0  0  0  0  0  0  0  0  0  0  0
    7.6351    4.3820   27.9054 C   0  0  0  0  0  0  0  0  0  0  0  0
    7.4014    5.5176   28.8805 C   0  0  0  0  0  0  0  0  0  0  0  0
    8.5195    6.5391   28.5554 C   0  0  0  0  0  0  0  0  0  0  0  0
    9.0402    6.1684   27.1434 C   0  0  0  0  0  0  0  0  0  0  0  0
    8.5419    4.7611   26.9074 C   0  0  0  0  0  0  0  0  0  0  0  0
    8.8640    3.8800   25.8687 C   0  0  0  0  0  0  0  0  0  0  0  0
    9.5647    4.1750   25.0951 H   0  0  0  0  0  0  0  0  0  0  0  0
    8.6242    6.8375   26.3793 H   0  0  0  0  0  0  0  0  0  0  0  0
   10.1321    6.2337   27.0841 H   0  0  0  0  0  0  0  0  0  0  0  0
    8.1591    7.5737   28.5963 H   0  0  0  0  0  0  0  0  0  0  0  0
    9.3203    6.4628   29.3008 H   0  0  0  0  0  0  0  0  0  0  0  0
    7.4391    5.1978   29.9277 H   0  0  0  0  0  0  0  0  0  0  0  0
    6.4062    5.9541   28.7248 H   0  0  0  0  0  0  0  0  0  0  0  0
    6.4312    2.7786   28.7094 H   0  0  0  0  0  0  0  0  0  0  0  0
    6.9556    1.2272   26.8339 H   0  0  0  0  0  0  0  0  0  0  0  0
    6.8043    1.9347   23.2712 H   0  0  0  0  0  0  0  0  0  0  0  0
    8.1842    2.9893   22.8313 H   0  0  0  0  0  0  0  0  0  0  0  0
    6.7017   -0.1994   19.7849 C   0  0  0  0  0  0  0  0  0  0  0  0
    5.5087    0.4789   20.0704 C   0  0  0  0  0  0  0  0  0  0  0  0
    4.9085    1.2345   19.0628 C   0  0  0  0  0  0  0  0  0  0  0  0
    5.5101    1.2748   17.8012 C   0  0  0  0  0  0  0  0  0  0  0  0
    6.6459    0.6258   17.5036 N   0  0  0  0  0  0  0  0  0  0  0  0
    7.2261   -0.0725   18.4905 C   0  0  0  0  0  0  0  0  0  0  0  0
    8.1635   -0.5728   18.2299 H   0  0  0  0  0  0  0  0  0  0  0  0
    5.0561    1.8517   16.9951 H   0  0  0  0  0  0  0  0  0  0  0  0
    4.0171    1.8223   19.2549 H   0  0  0  0  0  0  0  0  0  0  0  0
    5.0721    0.4423   21.0706 H   0  0  0  0  0  0  0  0  0  0  0  0
    8.4947   -1.1480   20.5073 H   0  0  0  0  0  0  0  0  0  0  0  0
    4.6844   -4.1637   21.5533 H   0  0  0  0  0  0  0  0  0  0  0  0
    6.0182   -4.2404   22.7230 H   0  0  0  0  0  0  0  0  0  0  0  0
    4.5161   -3.3435   23.1275 H   0  0  0  0  0  0  0  0  0  0  0  0
  1  2  1  0
  2  3  1  0
  3  4  2  0
  3  5  1  0
  5  6  1  0
  6  7  1  0
  7  8  2  0
  7  9  1  0
  9 10  1  0
 10 11  1  0
 11 12  2  0
 12 13  1  0
 13 14  2  0
 14 15  1  0
 15 16  1  0
 16 17  1  0
 17 18  1  0
 18 19  2  0
 19 20  1  0
 17 21  1  0
 17 22  1  0
 16 23  1  0
 16 24  1  0
 15 25  1  0
 15 26  1  0
 13 27  1  0
 12 28  1  0
  9 29  1  0
  9 30  1  0
  5 31  1  0
 31 32  2  0
 32 33  1  0
 33 34  2  0
 34 35  1  0
 35 36  2  0
 36 37  1  0
 34 38  1  0
 33 39  1  0
 32 40  1  0
  5 41  1  0
  1 42  1  0
  1 43  1  0
  1 44  1  0
 19 11  1  0
 36 31  1  0
 18 14  1  0
M  END
>  <plip>  (1) 
-0.10714285714285714

>  <filename>  (1) 
[H][c]1[n][c]([H])[c]([C]([H])([O][C](=[O])[C]([H])([H])[S][c]2[c]([H])[c]([H])[c]3[c]([c]2[H])[C]([H])([H])[C]([H])([H])[C]3([H])[H])[C](=[O])[O][C]([H])([H])[H])[c]([H])[c]1[H]

$$$$
