
     RDKit          3D

 37 38  0  0  0  0  0  0  0  0999 V2000
    7.5156   -3.8709   24.6637 C   0  0  0  0  0  0  0  0  0  0  0  0
    6.5658   -3.2461   23.6384 C   0  0  0  0  0  0  0  0  0  0  0  0
    7.3185   -2.3281   22.7323 N   0  0  0  0  0  0  0  0  0  0  0  0
    6.6860   -1.7648   21.6432 C   0  0  0  0  0  0  0  0  0  0  0  0
    5.6040   -2.1804   21.2614 O   0  0  0  0  0  0  0  0  0  0  0  0
    7.3523   -0.7142   20.9924 N   0  0  0  0  0  0  0  0  0  0  0  0
    8.7247   -0.3131   21.3021 C   0  0  0  0  0  0  0  0  0  0  0  0
    9.0396    0.4214   20.5569 H   0  0  0  0  0  0  0  0  0  0  0  0
    8.8130    0.1747   22.2864 H   0  0  0  0  0  0  0  0  0  0  0  0
    9.4283   -1.1575   21.2534 H   0  0  0  0  0  0  0  0  0  0  0  0
    6.6645   -0.0161   19.9276 C   0  0  0  0  0  0  0  0  0  0  0  0
    5.4437    0.6335   20.1661 C   0  0  0  0  0  0  0  0  0  0  0  0
    4.8171    1.3062   19.1104 C   0  0  0  0  0  0  0  0  0  0  0  0
    5.4061    1.2916   17.8433 C   0  0  0  0  0  0  0  0  0  0  0  0
    6.5696    0.6731   17.5898 N   0  0  0  0  0  0  0  0  0  0  0  0
    7.1800    0.0557   18.6107 C   0  0  0  0  0  0  0  0  0  0  0  0
    8.1256   -0.4287   18.3703 H   0  0  0  0  0  0  0  0  0  0  0  0
    4.9307    1.7850   16.9962 H   0  0  0  0  0  0  0  0  0  0  0  0
    3.8851    1.8371   19.2568 H   0  0  0  0  0  0  0  0  0  0  0  0
    5.0122    0.6040   21.1657 H   0  0  0  0  0  0  0  0  0  0  0  0
    8.1059   -1.8154   23.0960 H   0  0  0  0  0  0  0  0  0  0  0  0
    5.3286   -2.6789   24.3856 C   0  0  0  0  0  0  0  0  0  0  0  0
    5.4938   -1.5673   25.1174 N   0  0  0  0  0  0  0  0  0  0  0  0
    4.3881   -1.0553   25.6554 C   0  0  0  0  0  0  0  0  0  0  0  0
    3.1432   -1.6633   25.5583 C   0  0  0  0  0  0  0  0  0  0  0  0
    3.0826   -2.8618   24.8443 C   0  0  0  0  0  0  0  0  0  0  0  0
    1.7186   -3.6083   24.7103 C   0  0  0  0  0  0  0  0  0  0  0  0
    0.7853   -2.8063   24.1482 F   0  0  0  0  0  0  0  0  0  0  0  0
    1.2436   -3.9394   25.9314 F   0  0  0  0  0  0  0  0  0  0  0  0
    1.7809   -4.7234   23.9809 F   0  0  0  0  0  0  0  0  0  0  0  0
    4.1904   -3.3684   24.2771 N   0  0  0  0  0  0  0  0  0  0  0  0
    2.2775   -1.2320   26.0408 H   0  0  0  0  0  0  0  0  0  0  0  0
    4.5175   -0.1124   26.1841 H   0  0  0  0  0  0  0  0  0  0  0  0
    6.1234   -4.0256   23.0084 H   0  0  0  0  0  0  0  0  0  0  0  0
    6.9913   -4.6596   25.2177 H   0  0  0  0  0  0  0  0  0  0  0  0
    7.8599   -3.1285   25.3974 H   0  0  0  0  0  0  0  0  0  0  0  0
    8.3776   -4.3294   24.1722 H   0  0  0  0  0  0  0  0  0  0  0  0
  1  2  1  0
  2  3  1  0
  3  4  1  0
  4  5  2  0
  4  6  1  0
  6  7  1  0
  7  8  1  0
  7  9  1  0
  7 10  1  0
  6 11  1  0
 11 12  2  0
 12 13  1  0
 13 14  2  0
 14 15  1  0
 15 16  2  0
 16 17  1  0
 14 18  1  0
 13 19  1  0
 12 20  1  0
  3 21  1  0
  2 22  1  0
 22 23  2  0
 23 24  1  0
 24 25  2  0
 25 26  1  0
 26 27  1  0
 27 28  1  0
 27 29  1  0
 27 30  1  0
 26 31  2  0
 25 32  1  0
 24 33  1  0
  2 34  1  0
  1 35  1  0
  1 36  1  0
  1 37  1  0
 16 11  1  0
 31 22  1  0
M  END
>  <plip>  (1) 
-0.06896551724137931

>  <filename>  (1) 
[H][c]1[n][c]([C]([H])([N]([H])[C](=[O])[N]([c]2[c]([H])[n][c]([H])[c]([H])[c]2[H])[C]([H])([H])[H])[C]([H])([H])[H])[n][c]([C]([F])([F])[F])[c]1[H]

$$$$
