
     RDKit          3D

 28 29  0  0  0  0  0  0  0  0999 V2000
    7.1956   -2.3996   20.2234 H   0  0  0  0  0  0  0  0  0  0  0  0
    7.9877   -1.9285   20.5055 O   0  0  0  0  0  0  0  0  0  0  0  0
    7.4792   -0.6933   21.0007 C   0  0  2  0  0  0  0  0  0  0  0  0
    6.6350   -0.0230   19.9183 C   0  0  0  0  0  0  0  0  0  0  0  0
    7.1558    0.0332   18.6157 C   0  0  0  0  0  0  0  0  0  0  0  0
    8.1088   -0.4308   18.3788 H   0  0  0  0  0  0  0  0  0  0  0  0
    6.5612    0.6583   17.5902 N   0  0  0  0  0  0  0  0  0  0  0  0
    5.4037    1.2866   17.8365 C   0  0  0  0  0  0  0  0  0  0  0  0
    4.9379    1.7859   16.9891 H   0  0  0  0  0  0  0  0  0  0  0  0
    4.8052    1.3086   19.0990 C   0  0  0  0  0  0  0  0  0  0  0  0
    3.8772    1.8418   19.2461 H   0  0  0  0  0  0  0  0  0  0  0  0
    5.4236    0.6440   20.1588 C   0  0  0  0  0  0  0  0  0  0  0  0
    4.9694    0.6497   21.1529 H   0  0  0  0  0  0  0  0  0  0  0  0
    8.6324    0.2062   21.3510 C   0  0  0  0  0  0  0  0  0  0  0  0
    8.6573    1.5859   21.4294 C   0  0  0  0  0  0  0  0  0  0  0  0
    7.8456    2.2465   21.1546 H   0  0  0  0  0  0  0  0  0  0  0  0
    9.9222    1.8849   21.9423 C   0  0  0  0  0  0  0  0  0  0  0  0
   10.3513    2.8515   22.1529 H   0  0  0  0  0  0  0  0  0  0  0  0
   10.6251    0.7823   22.1707 N   0  0  0  0  0  0  0  0  0  0  0  0
    9.8301   -0.2301   21.8165 N   0  0  0  0  0  0  0  0  0  0  0  0
   10.3117   -1.5927   21.9543 C   0  0  0  0  0  0  0  0  0  0  0  0
   10.4782   -2.0526   20.9811 H   0  0  0  0  0  0  0  0  0  0  0  0
   11.2383   -1.5344   22.5230 H   0  0  0  0  0  0  0  0  0  0  0  0
    9.5791   -2.1927   22.4923 H   0  0  0  0  0  0  0  0  0  0  0  0
    6.6714   -1.0206   22.2607 C   0  0  0  0  0  0  0  0  0  0  0  0
    5.7693   -1.5751   21.9798 H   0  0  0  0  0  0  0  0  0  0  0  0
    7.2740   -1.6390   22.9357 H   0  0  0  0  0  0  0  0  0  0  0  0
    6.3870   -0.1046   22.7898 H   0  0  0  0  0  0  0  0  0  0  0  0
  1  2  1  0
  3  2  1  6
  3  4  1  0
  4  5  2  0
  5  6  1  0
  5  7  1  0
  7  8  2  0
  8  9  1  0
  8 10  1  0
 10 11  1  0
 10 12  2  0
 12 13  1  0
  3 14  1  0
 14 15  2  0
 15 16  1  0
 15 17  1  0
 17 18  1  0
 17 19  2  0
 19 20  1  0
 20 21  1  0
 21 22  1  0
 21 23  1  0
 21 24  1  0
  3 25  1  0
 25 26  1  0
 25 27  1  0
 25 28  1  0
 12  4  1  0
 20 14  1  0
M  END
>  <plip>  (1) 
-0.034482758620689655

>  <filename>  (1) 
[H][O][C@]([c]1[c]([H])[n][c]([H])[c]([H])[c]1[H])([c]1[c]([H])[c]([H])[n][n]1[C]([H])([H])[H])[C]([H])([H])[H]

$$$$
