
     RDKit          3D

 30 31  0  0  0  0  0  0  0  0999 V2000
    5.2894    3.5160   23.1550 H   0  0  0  0  0  0  0  0  0  0  0  0
    5.0557    3.4424   22.2193 O   0  0  0  0  0  0  0  0  0  0  0  0
    6.1035    3.9906   21.4378 C   0  0  0  0  0  0  0  0  0  0  0  0
    5.9446    3.5843   20.4315 H   0  0  0  0  0  0  0  0  0  0  0  0
    6.0541    5.0928   21.3672 H   0  0  0  0  0  0  0  0  0  0  0  0
    7.5175    3.6285   21.9125 C   0  0  0  0  0  0  0  0  0  0  0  0
    7.6042    3.8517   22.9807 H   0  0  0  0  0  0  0  0  0  0  0  0
    8.2407    4.2635   21.3951 H   0  0  0  0  0  0  0  0  0  0  0  0
    7.8997    2.2372   21.7291 N   0  0  0  0  0  0  0  0  0  0  0  0
    8.0354    1.8910   20.7940 H   0  0  0  0  0  0  0  0  0  0  0  0
    7.4933    1.3036   22.6281 C   0  0  0  0  0  0  0  0  0  0  0  0
    7.0635    1.5703   23.7418 O   0  0  0  0  0  0  0  0  0  0  0  0
    7.7027   -0.0830   22.2159 C   0  0  0  0  0  0  0  0  0  0  0  0
    8.2374   -0.9316   23.1669 C   0  0  0  0  0  0  0  0  0  0  0  0
    8.4437   -0.5593   24.1695 H   0  0  0  0  0  0  0  0  0  0  0  0
    8.5275   -2.1998   22.9161 N   0  0  0  0  0  0  0  0  0  0  0  0
    8.2803   -2.6152   21.6735 C   0  0  0  0  0  0  0  0  0  0  0  0
    8.4780   -3.6596   21.4403 H   0  0  0  0  0  0  0  0  0  0  0  0
    7.7786   -1.8816   20.6854 N   0  0  0  0  0  0  0  0  0  0  0  0
    7.4148   -0.6320   20.9713 C   0  0  0  0  0  0  0  0  0  0  0  0
    6.6588    0.0880   19.9297 C   0  0  0  0  0  0  0  0  0  0  0  0
    7.1522    0.0501   18.6188 C   0  0  0  0  0  0  0  0  0  0  0  0
    8.0630   -0.5057   18.3947 H   0  0  0  0  0  0  0  0  0  0  0  0
    6.5662    0.6569   17.5842 N   0  0  0  0  0  0  0  0  0  0  0  0
    5.4119    1.3032   17.8165 C   0  0  0  0  0  0  0  0  0  0  0  0
    4.9604    1.8105   16.9676 H   0  0  0  0  0  0  0  0  0  0  0  0
    4.8057    1.3469   19.0738 C   0  0  0  0  0  0  0  0  0  0  0  0
    3.8656    1.8720   19.1944 H   0  0  0  0  0  0  0  0  0  0  0  0
    5.4355    0.7411   20.1572 C   0  0  0  0  0  0  0  0  0  0  0  0
    4.9758    0.7566   21.1478 H   0  0  0  0  0  0  0  0  0  0  0  0
  1  2  1  0
  2  3  1  0
  3  4  1  0
  3  5  1  0
  3  6  1  0
  6  7  1  0
  6  8  1  0
  6  9  1  0
  9 10  1  0
  9 11  1  0
 11 12  2  0
 11 13  1  0
 13 14  2  0
 14 15  1  0
 14 16  1  0
 16 17  2  0
 17 18  1  0
 17 19  1  0
 19 20  2  0
 20 21  1  0
 21 22  2  0
 22 23  1  0
 22 24  1  0
 24 25  2  0
 25 26  1  0
 25 27  1  0
 27 28  1  0
 27 29  2  0
 29 30  1  0
 20 13  1  0
 29 21  1  0
M  END
>  <plip>  (1) 
-0.14285714285714285

>  <filename>  (1) 
[H][O][C]([H])([H])[C]([H])([H])[N]([H])[C](=[O])[c]1[c]([H])[n][c]([H])[n][c]1-[c]1[c]([H])[n][c]([H])[c]([H])[c]1[H]

$$$$
