
     RDKit          3D

 41 42  0  0  0  0  0  0  0  0999 V2000
    4.9148    1.7863   16.9908 H   0  0  0  0  0  0  0  0  0  0  0  0
    5.3996    1.2984   17.8320 C   0  0  0  0  0  0  0  0  0  0  0  0
    6.5615    0.6829   17.5675 N   0  0  0  0  0  0  0  0  0  0  0  0
    7.1714    0.0789   18.5958 C   0  0  0  0  0  0  0  0  0  0  0  0
    8.1103   -0.4238   18.3667 H   0  0  0  0  0  0  0  0  0  0  0  0
    6.6574    0.0172   19.9047 C   0  0  0  0  0  0  0  0  0  0  0  0
    7.3601   -0.7110   20.9672 C   0  0  0  0  0  0  0  0  0  0  0  0
    8.6187   -0.4415   21.3892 C   0  0  0  0  0  0  0  0  0  0  0  0
    9.4732    0.7163   20.9583 C   0  0  0  0  0  0  0  0  0  0  0  0
    9.5753    0.6999   19.8687 H   0  0  0  0  0  0  0  0  0  0  0  0
   10.4778    0.6000   21.3747 H   0  0  0  0  0  0  0  0  0  0  0  0
    8.9322    2.1113   21.3471 C   0  0  0  0  0  0  0  0  0  0  0  0
    9.5687    2.8707   20.8862 H   0  0  0  0  0  0  0  0  0  0  0  0
    7.9459    2.2620   20.8910 H   0  0  0  0  0  0  0  0  0  0  0  0
    8.8334    2.4114   22.7727 N   0  0  0  0  0  0  0  0  0  0  0  0
   10.0818    2.2609   23.5222 C   0  0  0  0  0  0  0  0  0  0  0  0
   10.4408    1.2176   23.5241 H   0  0  0  0  0  0  0  0  0  0  0  0
    9.8766    2.5019   24.5712 H   0  0  0  0  0  0  0  0  0  0  0  0
   11.1852    3.1914   23.0372 C   0  0  0  0  0  0  0  0  0  0  0  0
   11.5718    2.8945   22.0580 H   0  0  0  0  0  0  0  0  0  0  0  0
   10.8162    4.2173   22.9561 H   0  0  0  0  0  0  0  0  0  0  0  0
   12.0298    3.1872   23.7331 H   0  0  0  0  0  0  0  0  0  0  0  0
    7.6903    1.7984   23.4498 C   0  0  0  0  0  0  0  0  0  0  0  0
    7.9732    0.8785   23.9829 H   0  0  0  0  0  0  0  0  0  0  0  0
    6.9371    1.4874   22.7163 H   0  0  0  0  0  0  0  0  0  0  0  0
    7.0352    2.7575   24.4330 C   0  0  0  0  0  0  0  0  0  0  0  0
    6.1507    2.3003   24.8891 H   0  0  0  0  0  0  0  0  0  0  0  0
    6.7254    3.6707   23.9202 H   0  0  0  0  0  0  0  0  0  0  0  0
    7.7205    3.0389   25.2386 H   0  0  0  0  0  0  0  0  0  0  0  0
    8.9746   -1.3636   22.4833 C   0  0  0  0  0  0  0  0  0  0  0  0
   10.0139   -1.3903   23.1075 O   0  0  0  0  0  0  0  0  0  0  0  0
    7.7884   -2.3037   22.7143 C   0  0  0  0  0  0  0  0  0  0  0  0
    8.1250   -3.3293   22.5583 H   0  0  0  0  0  0  0  0  0  0  0  0
    7.4661   -2.2250   23.7560 H   0  0  0  0  0  0  0  0  0  0  0  0
    6.7184   -1.8574   21.7057 C   0  0  0  0  0  0  0  0  0  0  0  0
    6.4138   -2.6475   21.0057 H   0  0  0  0  0  0  0  0  0  0  0  0
    5.7972   -1.5161   22.1816 H   0  0  0  0  0  0  0  0  0  0  0  0
    5.4283    0.6475   20.1506 C   0  0  0  0  0  0  0  0  0  0  0  0
    5.0046    0.6269   21.1605 H   0  0  0  0  0  0  0  0  0  0  0  0
    4.8005    1.3136   19.1001 C   0  0  0  0  0  0  0  0  0  0  0  0
    3.8680    1.8471   19.2533 H   0  0  0  0  0  0  0  0  0  0  0  0
  1  2  1  0
  2  3  2  0
  3  4  1  0
  4  5  1  0
  4  6  2  0
  6  7  1  0
  7  8  2  0
  8  9  1  0
  9 10  1  0
  9 11  1  0
  9 12  1  0
 12 13  1  0
 12 14  1  0
 12 15  1  0
 15 16  1  0
 16 17  1  0
 16 18  1  0
 16 19  1  0
 19 20  1  0
 19 21  1  0
 19 22  1  0
 15 23  1  0
 23 24  1  0
 23 25  1  0
 23 26  1  0
 26 27  1  0
 26 28  1  0
 26 29  1  0
  8 30  1  0
 30 31  2  0
 30 32  1  0
 32 33  1  0
 32 34  1  0
 32 35  1  0
 35 36  1  0
 35 37  1  0
  6 38  1  0
 38 39  1  0
 38 40  2  0
 40 41  1  0
 40  2  1  0
 35  7  1  0
M  END
>  <plip>  (1) 
-0.03571428571428571

>  <filename>  (1) 
[H][c]1[n][c]([H])[c]([C]2=[C]([C]([H])([H])[C]([H])([H])[N]([C]([H])([H])[C]([H])([H])[H])[C]([H])([H])[C]([H])([H])[H])[C](=[O])[C]([H])([H])[C]2([H])[H])[c]([H])[c]1[H]

$$$$
