
     RDKit          3D

 23 24  0  0  0  0  0  0  0  0999 V2000
    7.2399   -2.1753   22.5087 H   0  0  0  0  0  0  0  0  0  0  0  0
    6.7449   -1.6153   21.7168 C   0  0  0  0  0  0  0  0  0  0  0  0
    5.6891   -1.8221   21.5395 H   0  0  0  0  0  0  0  0  0  0  0  0
    7.4124   -0.7048   20.9930 C   0  0  0  0  0  0  0  0  0  0  0  0
    8.8677   -0.3775   21.3125 C   0  0  0  0  0  0  0  0  0  0  0  0
    9.5607   -1.2495   22.0724 N   0  0  0  0  0  0  0  0  0  0  0  0
   10.8402   -0.9740   22.3051 C   0  0  0  0  0  0  0  0  0  0  0  0
   11.3917   -1.7054   22.8994 H   0  0  0  0  0  0  0  0  0  0  0  0
   11.4549    0.1684   21.8066 C   0  0  0  0  0  0  0  0  0  0  0  0
   12.4976    0.3852   21.9726 H   0  0  0  0  0  0  0  0  0  0  0  0
   10.6427    1.0322   21.0820 C   0  0  0  0  0  0  0  0  0  0  0  0
   11.0211    1.9544   20.6458 H   0  0  0  0  0  0  0  0  0  0  0  0
    9.3660    0.7653   20.8211 N   0  0  0  0  0  0  0  0  0  0  0  0
    6.6836    0.0076   19.8737 C   0  0  0  0  0  0  0  0  0  0  0  0
    7.1639    0.0459   18.5437 C   0  0  0  0  0  0  0  0  0  0  0  0
    8.1128   -0.4259   18.2902 H   0  0  0  0  0  0  0  0  0  0  0  0
    6.5342    0.6627   17.5339 N   0  0  0  0  0  0  0  0  0  0  0  0
    5.3845    1.2945   17.8098 C   0  0  0  0  0  0  0  0  0  0  0  0
    4.9093    1.8185   16.9829 H   0  0  0  0  0  0  0  0  0  0  0  0
    4.8037    1.3221   19.0826 C   0  0  0  0  0  0  0  0  0  0  0  0
    3.8664    1.8533   19.2399 H   0  0  0  0  0  0  0  0  0  0  0  0
    5.4636    0.6609   20.1209 C   0  0  0  0  0  0  0  0  0  0  0  0
    5.0428    0.6632   21.1271 H   0  0  0  0  0  0  0  0  0  0  0  0
  1  2  1  0
  2  3  1  0
  2  4  2  3
  4  5  1  0
  5  6  2  0
  6  7  1  0
  7  8  1  0
  7  9  2  0
  9 10  1  0
  9 11  1  0
 11 12  1  0
 11 13  2  0
  4 14  1  0
 14 15  2  0
 15 16  1  0
 15 17  1  0
 17 18  2  0
 18 19  1  0
 18 20  1  0
 20 21  1  0
 20 22  2  0
 22 23  1  0
 13  5  1  0
 22 14  1  0
M  END
>  <plip>  (1) 
-0.10714285714285714

>  <filename>  (1) 
[H][C]([H])=[C]([c]1[n][c]([H])[c]([H])[c]([H])[n]1)[c]1[c]([H])[n][c]([H])[c]([H])[c]1[H]

$$$$
