
     RDKit          3D

 47 51  0  0  0  0  0  0  0  0999 V2000
    9.6003    0.8793   20.3804 O   0  0  0  0  0  0  0  0  0  0  0  0
    9.0857    1.2207   21.4349 C   0  0  0  0  0  0  0  0  0  0  0  0
    9.5247    2.5075   22.1296 C   0  0  0  0  0  0  0  0  0  0  0  0
    8.4074    3.5496   22.2904 C   0  0  0  0  0  0  0  0  0  0  0  0
    8.4252    3.7598   23.7812 C   0  0  0  0  0  0  0  0  0  0  0  0
    9.2795    3.0103   24.3782 N   0  0  0  0  0  0  0  0  0  0  0  0
    9.9638    2.2319   23.4718 O   0  0  0  0  0  0  0  0  0  0  0  0
    7.5572    4.6838   24.5437 C   0  0  0  0  0  0  0  0  0  0  0  0
    7.6753    4.7905   25.9479 C   0  0  0  0  0  0  0  0  0  0  0  0
    6.8492    5.6683   26.6440 C   0  0  0  0  0  0  0  0  0  0  0  0
    6.9794    5.7619   27.9771 F   0  0  0  0  0  0  0  0  0  0  0  0
    5.8930    6.4503   25.9974 C   0  0  0  0  0  0  0  0  0  0  0  0
    5.7619    6.3505   24.6116 C   0  0  0  0  0  0  0  0  0  0  0  0
    6.5874    5.4782   23.9046 C   0  0  0  0  0  0  0  0  0  0  0  0
    6.4249    5.4219   22.5659 F   0  0  0  0  0  0  0  0  0  0  0  0
    5.0315    6.9342   24.0563 H   0  0  0  0  0  0  0  0  0  0  0  0
    5.2683    7.1181   26.5833 H   0  0  0  0  0  0  0  0  0  0  0  0
    8.4001    4.1950   26.4954 H   0  0  0  0  0  0  0  0  0  0  0  0
    7.4217    3.1869   21.9715 H   0  0  0  0  0  0  0  0  0  0  0  0
    8.5910    4.4677   21.7330 H   0  0  0  0  0  0  0  0  0  0  0  0
   10.3883    2.8665   21.5651 H   0  0  0  0  0  0  0  0  0  0  0  0
    8.0527    0.5210   22.0055 N   0  0  0  0  0  0  0  0  0  0  0  0
    7.8378    0.3181   23.4416 C   0  0  0  0  0  0  0  0  0  0  0  0
    6.7528   -0.7607   23.5359 C   0  0  0  0  0  0  0  0  0  0  0  0
    6.6335   -1.3770   22.1410 C   0  0  2  0  0  0  0  0  0  0  0  0
    7.5729   -2.5532   21.7664 C   0  0  0  0  0  0  0  0  0  0  0  0
    8.3499   -1.6284   20.8084 C   0  0  0  0  0  0  0  0  0  0  0  0
    7.4061   -0.4683   21.1646 C   0  0  2  0  0  0  0  0  0  0  0  0
    6.6453    0.1404   19.9976 C   0  0  0  0  0  0  0  0  0  0  0  0
    5.3957    0.7489   20.1624 C   0  0  0  0  0  0  0  0  0  0  0  0
    4.7749    1.3342   19.0571 C   0  0  0  0  0  0  0  0  0  0  0  0
    5.4232    1.2941   17.8174 C   0  0  0  0  0  0  0  0  0  0  0  0
    6.6233    0.7273   17.6307 N   0  0  0  0  0  0  0  0  0  0  0  0
    7.2115    0.1870   18.7067 C   0  0  0  0  0  0  0  0  0  0  0  0
    8.1999   -0.2373   18.5330 H   0  0  0  0  0  0  0  0  0  0  0  0
    4.9678    1.7451   16.9377 H   0  0  0  0  0  0  0  0  0  0  0  0
    3.8149    1.8332   19.1420 H   0  0  0  0  0  0  0  0  0  0  0  0
    4.9209    0.7672   21.1464 H   0  0  0  0  0  0  0  0  0  0  0  0
    8.2818   -1.8368   19.7516 H   0  0  0  0  0  0  0  0  0  0  0  0
    9.3902   -1.4440   21.0851 H   0  0  0  0  0  0  0  0  0  0  0  0
    7.0587   -3.3764   21.2660 H   0  0  0  0  0  0  0  0  0  0  0  0
    8.1674   -2.9619   22.5887 H   0  0  0  0  0  0  0  0  0  0  0  0
    5.6124   -1.5801   21.8258 H   0  0  0  0  0  0  0  0  0  0  0  0
    6.9987   -1.5104   24.2961 H   0  0  0  0  0  0  0  0  0  0  0  0
    5.8216   -0.2797   23.8442 H   0  0  0  0  0  0  0  0  0  0  0  0
    8.7642    0.0073   23.9385 H   0  0  0  0  0  0  0  0  0  0  0  0
    7.5105    1.2587   23.8947 H   0  0  0  0  0  0  0  0  0  0  0  0
  1  2  2  0
  2  3  1  0
  3  4  1  0
  4  5  1  0
  5  6  2  0
  6  7  1  0
  5  8  1  0
  8  9  2  0
  9 10  1  0
 10 11  1  0
 10 12  2  0
 12 13  1  0
 13 14  2  0
 14 15  1  0
 13 16  1  0
 12 17  1  0
  9 18  1  0
  4 19  1  0
  4 20  1  0
  3 21  1  0
  2 22  1  0
 22 23  1  0
 23 24  1  0
 24 25  1  0
 25 26  1  0
 26 27  1  0
 27 28  1  0
 28 29  1  6
 29 30  2  0
 30 31  1  0
 31 32  2  0
 32 33  1  0
 33 34  2  0
 34 35  1  0
 32 36  1  0
 31 37  1  0
 30 38  1  0
 27 39  1  0
 27 40  1  0
 26 41  1  0
 26 42  1  0
 25 43  1  6
 24 44  1  0
 24 45  1  0
 23 46  1  0
 23 47  1  0
  7  3  1  0
 14  8  1  0
 28 22  1  0
 34 29  1  0
 28 25  1  0
M  END
>  <plip>  (1) 
-0.06896551724137931

>  <filename>  (1) 
[H][c]1[n][c]([H])[c]([C@@]23[N]([C](=[O])[C]4([H])[O][N]=[C]([c]5[c]([H])[c]([F])[c]([H])[c]([H])[c]5[F])[C]4([H])[H])[C]([H])([H])[C]([H])([H])[C@]2([H])[C]([H])([H])[C]3([H])[H])[c]([H])[c]1[H]

$$$$
