
     RDKit          3D

 27 28  0  0  0  0  0  0  0  0999 V2000
    4.9533    1.7739   17.0012 H   0  0  0  0  0  0  0  0  0  0  0  0
    5.4060    1.2786   17.8591 C   0  0  0  0  0  0  0  0  0  0  0  0
    6.5728    0.6479   17.6254 N   0  0  0  0  0  0  0  0  0  0  0  0
    7.1752    0.0344   18.6551 C   0  0  0  0  0  0  0  0  0  0  0  0
    8.1239   -0.4462   18.4331 H   0  0  0  0  0  0  0  0  0  0  0  0
    6.6580    0.0076   19.9551 C   0  0  0  0  0  0  0  0  0  0  0  0
    7.4719   -0.6198   20.8958 O   0  0  0  0  0  0  0  0  0  0  0  0
    7.0997   -0.4023   22.2281 N   0  0  0  0  0  0  0  0  0  0  0  0
    7.2502   -1.4990   23.1128 C   0  0  0  0  0  0  0  0  0  0  0  0
    6.9953   -1.3019   24.4946 C   0  0  0  0  0  0  0  0  0  0  0  0
    6.7693   -0.3025   24.8549 H   0  0  0  0  0  0  0  0  0  0  0  0
    7.0260   -2.3707   25.3910 C   0  0  0  0  0  0  0  0  0  0  0  0
    6.8147   -2.1927   26.4432 H   0  0  0  0  0  0  0  0  0  0  0  0
    7.3197   -3.6598   24.9426 C   0  0  0  0  0  0  0  0  0  0  0  0
    7.3366   -4.4912   25.6420 H   0  0  0  0  0  0  0  0  0  0  0  0
    7.5920   -3.8640   23.5832 C   0  0  0  0  0  0  0  0  0  0  0  0
    7.8180   -4.8661   23.2303 H   0  0  0  0  0  0  0  0  0  0  0  0
    7.5646   -2.8026   22.6710 C   0  0  0  0  0  0  0  0  0  0  0  0
    7.7780   -2.9626   21.6188 H   0  0  0  0  0  0  0  0  0  0  0  0
    7.3234    0.9713   22.6702 C   0  0  0  0  0  0  0  0  0  0  0  0
    7.5500    1.6173   21.8131 H   0  0  0  0  0  0  0  0  0  0  0  0
    8.1339    1.0701   23.4053 H   0  0  0  0  0  0  0  0  0  0  0  0
    6.4132    1.3376   23.1617 H   0  0  0  0  0  0  0  0  0  0  0  0
    5.4292    0.6336   20.1927 C   0  0  0  0  0  0  0  0  0  0  0  0
    4.9952    0.6174   21.1916 H   0  0  0  0  0  0  0  0  0  0  0  0
    4.8087    1.2918   19.1224 C   0  0  0  0  0  0  0  0  0  0  0  0
    3.8801    1.8322   19.2501 H   0  0  0  0  0  0  0  0  0  0  0  0
  1  2  1  0
  2  3  2  0
  3  4  1  0
  4  5  1  0
  4  6  2  0
  6  7  1  0
  7  8  1  0
  8  9  1  0
  9 10  2  0
 10 11  1  0
 10 12  1  0
 12 13  1  0
 12 14  2  0
 14 15  1  0
 14 16  1  0
 16 17  1  0
 16 18  2  0
 18 19  1  0
  8 20  1  0
 20 21  1  0
 20 22  1  0
 20 23  1  0
  6 24  1  0
 24 25  1  0
 24 26  2  0
 26 27  1  0
 26  2  1  0
 18  9  1  0
M  END
>  <plip>  (1) 
-0.0

>  <filename>  (1) 
[H][c]1[n][c]([H])[c]([O][N]([c]2[c]([H])[c]([H])[c]([H])[c]([H])[c]2[H])[C]([H])([H])[H])[c]([H])[c]1[H]

$$$$
