
     RDKit          3D

 23 25  0  0  0  0  0  0  0  0999 V2000
    4.8006    1.3167   19.0973 C   0  0  0  0  0  0  0  0  0  0  0  0
    5.3944    1.2994   17.8296 C   0  0  0  0  0  0  0  0  0  0  0  0
    6.5551    0.6793   17.5600 N   0  0  0  0  0  0  0  0  0  0  0  0
    7.1581    0.0630   18.5849 C   0  0  0  0  0  0  0  0  0  0  0  0
    6.6425   -0.0045   19.8956 C   0  0  0  0  0  0  0  0  0  0  0  0
    7.3501   -0.7292   20.9755 C   0  0  0  0  0  0  0  0  0  0  0  0
    6.7317   -1.7435   21.6999 C   0  0  0  0  0  0  0  0  0  0  0  0
    7.3316   -2.4704   22.6641 N   0  0  0  0  0  0  0  0  0  0  0  0
    8.5888   -2.1737   22.9768 C   0  0  0  0  0  0  0  0  0  0  0  0
    9.3134   -1.1621   22.3365 C   0  0  0  0  0  0  0  0  0  0  0  0
    8.6904   -0.4240   21.3202 C   0  0  0  0  0  0  0  0  0  0  0  0
    9.5482    0.5948   20.8077 C   0  0  0  0  0  0  0  0  0  0  0  0
   10.7666    0.6113   21.3919 C   0  0  0  0  0  0  0  0  0  0  0  0
   10.9388   -0.6152   22.6112 S   0  0  0  0  0  0  0  0  0  0  0  0
   11.5937    1.2769   21.1775 H   0  0  0  0  0  0  0  0  0  0  0  0
    9.1496    1.2404   20.0498 H   0  0  0  0  0  0  0  0  0  0  0  0
    9.0417   -2.7586   23.7665 H   0  0  0  0  0  0  0  0  0  0  0  0
    5.7023   -2.0164   21.4614 H   0  0  0  0  0  0  0  0  0  0  0  0
    5.4229    0.6412   20.1481 C   0  0  0  0  0  0  0  0  0  0  0  0
    5.0089    0.6305   21.1615 H   0  0  0  0  0  0  0  0  0  0  0  0
    8.1073   -0.4281   18.3668 H   0  0  0  0  0  0  0  0  0  0  0  0
    4.9128    1.7896   16.9885 H   0  0  0  0  0  0  0  0  0  0  0  0
    3.8708    1.8481   19.2521 H   0  0  0  0  0  0  0  0  0  0  0  0
  1  2  2  0
  2  3  1  0
  3  4  2  0
  4  5  1  0
  5  6  1  0
  6  7  2  0
  7  8  1  0
  8  9  2  0
  9 10  1  0
 10 11  2  0
 11 12  1  0
 12 13  2  0
 13 14  1  0
 13 15  1  0
 12 16  1  0
  9 17  1  0
  7 18  1  0
  5 19  2  0
 19 20  1  0
  4 21  1  0
  2 22  1  0
  1 23  1  0
 19  1  1  0
 11  6  1  0
 14 10  1  0
M  END
>  <plip>  (1) 
-0.03571428571428571

>  <filename>  (1) 
[H][c]1[n][c]([H])[c](-[c]2[c]([H])[n][c]([H])[c]3[s][c]([H])[c]([H])[c]23)[c]([H])[c]1[H]

$$$$
