
     RDKit          3D

 20 21  0  0  0  0  0  0  0  0999 V2000
    4.9271    1.8333   16.9910 H   0  0  0  0  0  0  0  0  0  0  0  0
    5.3865    1.2995   17.8231 C   0  0  0  0  0  0  0  0  0  0  0  0
    6.5427    0.6740   17.5522 N   0  0  0  0  0  0  0  0  0  0  0  0
    7.1617    0.0390   18.5600 C   0  0  0  0  0  0  0  0  0  0  0  0
    8.1105   -0.4278   18.3091 H   0  0  0  0  0  0  0  0  0  0  0  0
    6.6627   -0.0425   19.8879 C   0  0  0  0  0  0  0  0  0  0  0  0
    7.3190   -0.7373   20.9261 N   0  0  0  0  0  0  0  0  0  0  0  0
    6.7703   -1.1093   21.6873 H   0  0  0  0  0  0  0  0  0  0  0  0
    8.6929   -0.7483   21.1863 C   0  0  0  0  0  0  0  0  0  0  0  0
    9.3114   -1.7358   21.8981 C   0  0  0  0  0  0  0  0  0  0  0  0
    8.8639   -2.6061   22.3602 H   0  0  0  0  0  0  0  0  0  0  0  0
   11.0032   -1.4584   22.0292 S   0  0  0  0  0  0  0  0  0  0  0  0
   10.8802    0.0326   21.1799 C   0  0  0  0  0  0  0  0  0  0  0  0
   11.7745    0.6306   21.0330 H   0  0  0  0  0  0  0  0  0  0  0  0
    9.5978    0.2744   20.7770 C   0  0  0  0  0  0  0  0  0  0  0  0
    9.2315    1.0963   20.1710 H   0  0  0  0  0  0  0  0  0  0  0  0
    5.4436    0.6050   20.1384 C   0  0  0  0  0  0  0  0  0  0  0  0
    5.0378    0.5908   21.1510 H   0  0  0  0  0  0  0  0  0  0  0  0
    4.8015    1.2898   19.0966 C   0  0  0  0  0  0  0  0  0  0  0  0
    3.8738    1.8349   19.2567 H   0  0  0  0  0  0  0  0  0  0  0  0
  1  2  1  0
  2  3  2  0
  3  4  1  0
  4  5  1  0
  4  6  2  0
  6  7  1  0
  7  8  1  0
  7  9  1  0
  9 10  2  0
 10 11  1  0
 10 12  1  0
 12 13  1  0
 13 14  1  0
 13 15  2  0
 15 16  1  0
  6 17  1  0
 17 18  1  0
 17 19  2  0
 19 20  1  0
 19  2  1  0
 15  9  1  0
M  END
>  <plip>  (1) 
-0.03571428571428571

>  <filename>  (1) 
[H][c]1[n][c]([H])[c]([N]([H])[c]2[c]([H])[s][c]([H])[c]2[H])[c]([H])[c]1[H]

$$$$
