
     RDKit          3D

 31 33  0  0  0  0  0  0  0  0999 V2000
    4.9444    1.7956   16.9891 H   0  0  0  0  0  0  0  0  0  0  0  0
    5.4080    1.2876   17.8320 C   0  0  0  0  0  0  0  0  0  0  0  0
    6.5682    0.6636   17.5752 N   0  0  0  0  0  0  0  0  0  0  0  0
    7.1644    0.0266   18.5858 C   0  0  0  0  0  0  0  0  0  0  0  0
    8.1151   -0.4521   18.3596 H   0  0  0  0  0  0  0  0  0  0  0  0
    6.6488   -0.0202   19.8909 C   0  0  0  0  0  0  0  0  0  0  0  0
    7.3972   -0.7089   20.9379 C   0  0  0  0  0  0  0  0  0  0  0  0
    8.0657   -1.8862   20.7333 N   0  0  0  0  0  0  0  0  0  0  0  0
    8.4981   -2.2584   21.9110 C   0  0  0  0  0  0  0  0  0  0  0  0
    9.0562   -3.1606   22.1190 H   0  0  0  0  0  0  0  0  0  0  0  0
    8.1602   -1.3723   22.8790 N   0  0  0  0  0  0  0  0  0  0  0  0
    8.3965   -1.4009   23.8578 H   0  0  0  0  0  0  0  0  0  0  0  0
    7.4854   -0.3472   22.2774 C   0  0  0  0  0  0  0  0  0  0  0  0
    7.1072    0.8810   22.9726 C   0  0  0  0  0  0  0  0  0  0  0  0
    6.4774    0.9142   24.2565 C   0  0  0  0  0  0  0  0  0  0  0  0
    6.2713   -0.2728   24.8452 O   0  0  0  0  0  0  0  0  0  0  0  0
    5.6007   -0.3682   26.1010 C   0  0  0  0  0  0  0  0  0  0  0  0
    5.5518   -1.4448   26.2681 H   0  0  0  0  0  0  0  0  0  0  0  0
    6.1745    0.1279   26.8932 H   0  0  0  0  0  0  0  0  0  0  0  0
    4.5914    0.0627   26.0705 H   0  0  0  0  0  0  0  0  0  0  0  0
    6.0813    2.0213   24.8657 N   0  0  0  0  0  0  0  0  0  0  0  0
    6.3188    3.1909   24.2511 C   0  0  0  0  0  0  0  0  0  0  0  0
    6.0027    4.0888   24.7859 H   0  0  0  0  0  0  0  0  0  0  0  0
    6.9366    3.2886   23.0109 C   0  0  0  0  0  0  0  0  0  0  0  0
    7.0960    4.2568   22.5563 H   0  0  0  0  0  0  0  0  0  0  0  0
    7.3311    2.1153   22.3615 C   0  0  0  0  0  0  0  0  0  0  0  0
    7.7900    2.1321   21.3705 H   0  0  0  0  0  0  0  0  0  0  0  0
    5.4274    0.6339   20.1429 C   0  0  0  0  0  0  0  0  0  0  0  0
    4.9955    0.6408   21.1461 H   0  0  0  0  0  0  0  0  0  0  0  0
    4.8026    1.3003   19.0931 C   0  0  0  0  0  0  0  0  0  0  0  0
    3.8742    1.8402   19.2383 H   0  0  0  0  0  0  0  0  0  0  0  0
  1  2  1  0
  2  3  2  0
  3  4  1  0
  4  5  1  0
  4  6  2  0
  6  7  1  0
  7  8  1  0
  8  9  2  0
  9 10  1  0
  9 11  1  0
 11 12  1  0
 11 13  1  0
 13 14  1  0
 14 15  2  0
 15 16  1  0
 16 17  1  0
 17 18  1  0
 17 19  1  0
 17 20  1  0
 15 21  1  0
 21 22  2  0
 22 23  1  0
 22 24  1  0
 24 25  1  0
 24 26  2  0
 26 27  1  0
  6 28  1  0
 28 29  1  0
 28 30  2  0
 30 31  1  0
 30  2  1  0
 13  7  2  0
 26 14  1  0
M  END
>  <plip>  (1) 
-0.0

>  <filename>  (1) 
[H][c]1[n][c]([H])[c](-[c]2[n][c]([H])[n]([H])[c]2-[c]2[c]([O][C]([H])([H])[H])[n][c]([H])[c]([H])[c]2[H])[c]([H])[c]1[H]

$$$$
