
     RDKit          3D

 52 55  0  0  0  0  0  0  0  0999 V2000
    4.7401    5.8696   30.3108 C   0  0  0  0  0  0  0  0  0  0  0  0
    5.5322    5.6201   29.1667 O   0  0  0  0  0  0  0  0  0  0  0  0
    5.3632    4.4732   28.4535 C   0  0  0  0  0  0  0  0  0  0  0  0
    4.4372    3.4673   28.7645 C   0  0  0  0  0  0  0  0  0  0  0  0
    4.3643    2.3331   27.9479 C   0  0  0  0  0  0  0  0  0  0  0  0
    5.1973    2.2015   26.8438 C   0  0  0  0  0  0  0  0  0  0  0  0
    6.1331    3.2040   26.5186 C   0  0  0  0  0  0  0  0  0  0  0  0
    6.9810    2.9886   25.3230 C   0  0  0  0  0  0  0  0  0  0  0  0
    6.8618    1.9869   24.4844 N   0  0  0  0  0  0  0  0  0  0  0  0
    7.8408    2.1468   23.5130 C   0  0  0  0  0  0  0  0  0  0  0  0
    8.0735    1.2521   22.2969 C   0  0  0  0  0  0  0  0  0  0  0  0
    8.7775    1.6207   21.3566 O   0  0  0  0  0  0  0  0  0  0  0  0
    7.4818    0.0080   22.2545 N   0  0  0  0  0  0  0  0  0  0  0  0
    6.9298   -0.7519   23.3785 C   0  0  0  0  0  0  0  0  0  0  0  0
    6.8027   -2.1952   22.8554 C   0  0  0  0  0  0  0  0  0  0  0  0
    7.9941   -3.0714   23.2570 C   0  0  0  0  0  0  0  0  0  0  0  0
    8.9386   -2.6627   22.8773 H   0  0  0  0  0  0  0  0  0  0  0  0
    8.0715   -3.1504   24.3462 H   0  0  0  0  0  0  0  0  0  0  0  0
    7.8832   -4.0829   22.8528 H   0  0  0  0  0  0  0  0  0  0  0  0
    6.6937   -2.0294   21.3300 C   0  0  0  0  0  0  0  0  0  0  0  0
    7.4176   -0.7156   20.9825 C   0  0  0  0  0  0  0  0  0  0  0  0
    6.6835    0.0515   19.8996 C   0  0  0  0  0  0  0  0  0  0  0  0
    5.4481    0.6721   20.1391 C   0  0  0  0  0  0  0  0  0  0  0  0
    4.8007    1.3161   19.0856 C   0  0  0  0  0  0  0  0  0  0  0  0
    5.3973    1.2926   17.8181 C   0  0  0  0  0  0  0  0  0  0  0  0
    6.5600    0.6761   17.5586 N   0  0  0  0  0  0  0  0  0  0  0  0
    7.1791    0.0874   18.5928 C   0  0  0  0  0  0  0  0  0  0  0  0
    8.1239   -0.4049   18.3551 H   0  0  0  0  0  0  0  0  0  0  0  0
    4.9233    1.7912   16.9745 H   0  0  0  0  0  0  0  0  0  0  0  0
    3.8634    1.8410   19.2369 H   0  0  0  0  0  0  0  0  0  0  0  0
    5.0005    0.6421   21.1358 H   0  0  0  0  0  0  0  0  0  0  0  0
    8.4438   -0.9010   20.6344 H   0  0  0  0  0  0  0  0  0  0  0  0
    5.6410   -1.9716   21.0248 H   0  0  0  0  0  0  0  0  0  0  0  0
    7.1294   -2.8690   20.7796 H   0  0  0  0  0  0  0  0  0  0  0  0
    5.8892   -2.6487   23.2584 H   0  0  0  0  0  0  0  0  0  0  0  0
    5.9758   -0.3142   23.6933 H   0  0  0  0  0  0  0  0  0  0  0  0
    7.5946   -0.6775   24.2489 H   0  0  0  0  0  0  0  0  0  0  0  0
    8.5799    3.2797   23.8040 C   0  0  0  0  0  0  0  0  0  0  0  0
    9.7280    3.9276   23.1122 C   0  0  0  0  0  0  0  0  0  0  0  0
   10.5214    3.2024   22.9219 H   0  0  0  0  0  0  0  0  0  0  0  0
    9.3954    4.2816   22.1386 H   0  0  0  0  0  0  0  0  0  0  0  0
   10.1440    4.7744   23.6677 H   0  0  0  0  0  0  0  0  0  0  0  0
    8.0145    3.7891   24.9400 N   0  0  0  0  0  0  0  0  0  0  0  0
    8.3269    4.6118   25.4257 H   0  0  0  0  0  0  0  0  0  0  0  0
    6.2058    4.3443   27.3376 C   0  0  0  0  0  0  0  0  0  0  0  0
    6.8913    5.1692   27.1526 H   0  0  0  0  0  0  0  0  0  0  0  0
    5.1462    1.3258   26.2049 H   0  0  0  0  0  0  0  0  0  0  0  0
    3.6503    1.5456   28.1761 H   0  0  0  0  0  0  0  0  0  0  0  0
    3.7878    3.5706   29.6270 H   0  0  0  0  0  0  0  0  0  0  0  0
    4.8927    5.1057   31.0871 H   0  0  0  0  0  0  0  0  0  0  0  0
    5.0747    6.8407   30.6814 H   0  0  0  0  0  0  0  0  0  0  0  0
    3.6695    5.9180   30.0639 H   0  0  0  0  0  0  0  0  0  0  0  0
  1  2  1  0
  2  3  1  0
  3  4  2  0
  4  5  1  0
  5  6  2  0
  6  7  1  0
  7  8  1  0
  8  9  2  0
  9 10  1  0
 10 11  1  0
 11 12  2  0
 11 13  1  0
 13 14  1  0
 14 15  1  0
 15 16  1  0
 16 17  1  0
 16 18  1  0
 16 19  1  0
 15 20  1  0
 20 21  1  0
 21 22  1  0
 22 23  2  0
 23 24  1  0
 24 25  2  0
 25 26  1  0
 26 27  2  0
 27 28  1  0
 25 29  1  0
 24 30  1  0
 23 31  1  0
 21 32  1  0
 20 33  1  0
 20 34  1  0
 15 35  1  0
 14 36  1  0
 14 37  1  0
 10 38  2  0
 38 39  1  0
 39 40  1  0
 39 41  1  0
 39 42  1  0
 38 43  1  0
 43 44  1  0
  7 45  2  0
 45 46  1  0
  6 47  1  0
  5 48  1  0
  4 49  1  0
  1 50  1  0
  1 51  1  0
  1 52  1  0
 45  3  1  0
 43  8  1  0
 21 13  1  0
 27 22  1  0
M  END
>  <plip>  (1) 
-0.07142857142857142

>  <filename>  (1) 
[H][c]1[n][c]([H])[c]([C]2([H])[N]([C](=[O])[c]3[n][c](-[c]4[c]([H])[c]([H])[c]([H])[c]([O][C]([H])([H])[H])[c]4[H])[n]([H])[c]3[C]([H])([H])[H])[C]([H])([H])[C]([H])([C]([H])([H])[H])[C]2([H])[H])[c]([H])[c]1[H]

$$$$
