
     RDKit          3D

 27 29  0  0  0  0  0  0  0  0999 V2000
    4.9589    1.8325   16.9269 H   0  0  0  0  0  0  0  0  0  0  0  0
    5.4207    1.3135   17.7631 C   0  0  0  0  0  0  0  0  0  0  0  0
    6.5775    0.6865   17.5040 N   0  0  0  0  0  0  0  0  0  0  0  0
    7.1755    0.0525   18.5211 C   0  0  0  0  0  0  0  0  0  0  0  0
    8.1190   -0.4398   18.2978 H   0  0  0  0  0  0  0  0  0  0  0  0
    6.6517    0.0058   19.8241 C   0  0  0  0  0  0  0  0  0  0  0  0
    7.3818   -0.6943   20.8988 C   0  0  0  0  0  0  0  0  0  0  0  0
    8.5031   -1.3413   20.6752 N   0  0  0  0  0  0  0  0  0  0  0  0
    8.9166   -1.8380   21.8893 O   0  0  0  0  0  0  0  0  0  0  0  0
    8.0326   -1.4893   22.8432 C   0  0  0  0  0  0  0  0  0  0  0  0
    8.2052   -1.9818   24.2132 C   0  0  0  0  0  0  0  0  0  0  0  0
    7.2346   -1.6768   25.1913 C   0  0  0  0  0  0  0  0  0  0  0  0
    6.4470   -0.9532   24.9742 H   0  0  0  0  0  0  0  0  0  0  0  0
    7.2490   -2.2739   26.4482 C   0  0  0  0  0  0  0  0  0  0  0  0
    6.5028   -2.0348   27.1950 H   0  0  0  0  0  0  0  0  0  0  0  0
    8.2586   -3.1910   26.7296 C   0  0  0  0  0  0  0  0  0  0  0  0
    8.2262   -3.8500   27.8932 F   0  0  0  0  0  0  0  0  0  0  0  0
    9.3168   -3.4206   25.8567 C   0  0  0  0  0  0  0  0  0  0  0  0
   10.1551   -4.0480   26.1340 H   0  0  0  0  0  0  0  0  0  0  0  0
    9.2825   -2.7990   24.6111 C   0  0  0  0  0  0  0  0  0  0  0  0
   10.3056   -3.0006   23.7724 F   0  0  0  0  0  0  0  0  0  0  0  0
    7.0295   -0.7596   22.2738 C   0  0  0  0  0  0  0  0  0  0  0  0
    6.1528   -0.3585   22.7501 H   0  0  0  0  0  0  0  0  0  0  0  0
    5.4371    0.6629   20.0726 C   0  0  0  0  0  0  0  0  0  0  0  0
    5.0009    0.6723   21.0738 H   0  0  0  0  0  0  0  0  0  0  0  0
    4.8094    1.3229   19.0219 C   0  0  0  0  0  0  0  0  0  0  0  0
    3.8748    1.8502   19.1704 H   0  0  0  0  0  0  0  0  0  0  0  0
  1  2  1  0
  2  3  2  0
  3  4  1  0
  4  5  1  0
  4  6  2  0
  6  7  1  0
  7  8  2  0
  8  9  1  0
  9 10  1  0
 10 11  1  0
 11 12  2  0
 12 13  1  0
 12 14  1  0
 14 15  1  0
 14 16  2  0
 16 17  1  0
 16 18  1  0
 18 19  1  0
 18 20  2  0
 20 21  1  0
 10 22  2  0
 22 23  1  0
  6 24  1  0
 24 25  1  0
 24 26  2  0
 26 27  1  0
 26  2  1  0
 22  7  1  0
 20 11  1  0
M  END
>  <plip>  (1) 
-0.03571428571428571

>  <filename>  (1) 
[H][c]1[n][c]([H])[c](-[c]2[n][o][c](-[c]3[c]([H])[c]([H])[c]([F])[c]([H])[c]3[F])[c]2[H])[c]([H])[c]1[H]

$$$$
