
     RDKit          3D

 35 37  0  0  0  0  0  0  0  0999 V2000
    4.9934    1.7686   16.9506 H   0  0  0  0  0  0  0  0  0  0  0  0
    5.4601    1.2686   17.7963 C   0  0  0  0  0  0  0  0  0  0  0  0
    6.6626    0.7170   17.5652 N   0  0  0  0  0  0  0  0  0  0  0  0
    7.2654    0.0974   18.5889 C   0  0  0  0  0  0  0  0  0  0  0  0
    8.2298   -0.3554   18.3581 H   0  0  0  0  0  0  0  0  0  0  0  0
    6.7236   -0.0343   19.9025 C   0  0  0  0  0  0  0  0  0  0  0  0
    7.3985   -0.7150   20.9317 N   0  0  0  0  0  0  0  0  0  0  0  0
    8.8207   -0.5168   21.1744 C   0  0  0  0  0  0  0  0  0  0  0  0
    9.0051    0.5099   21.5351 H   0  0  0  0  0  0  0  0  0  0  0  0
    9.4141   -0.6282   20.2561 H   0  0  0  0  0  0  0  0  0  0  0  0
    9.1600   -1.5723   22.2257 C   0  0  0  0  0  0  0  0  0  0  0  0
    9.9985   -1.2721   22.8570 H   0  0  0  0  0  0  0  0  0  0  0  0
    9.4398   -2.5106   21.7375 H   0  0  0  0  0  0  0  0  0  0  0  0
    7.8577   -1.7469   23.0138 C   0  0  0  0  0  0  0  0  0  0  0  0
    7.7775   -0.9885   23.7997 H   0  0  0  0  0  0  0  0  0  0  0  0
    7.7850   -2.7303   23.4933 H   0  0  0  0  0  0  0  0  0  0  0  0
    6.7391   -1.5228   21.9809 C   0  0  2  0  0  0  0  0  0  0  0  0
    5.9426   -0.9232   22.4307 H   0  0  0  0  0  0  0  0  0  0  0  0
    6.1146   -2.8416   21.4247 C   0  0  1  0  0  0  0  0  0  0  0  0
    5.4804   -2.5251   20.5782 H   0  0  0  0  0  0  0  0  0  0  0  0
    7.1433   -3.7962   20.9766 N   0  0  0  0  0  0  0  0  0  0  0  0
    7.5456   -3.4702   20.1053 H   0  0  0  0  0  0  0  0  0  0  0  0
    6.5467   -5.1150   20.9086 C   0  0  0  0  0  0  0  0  0  0  0  0
    7.3163   -5.8892   20.7990 H   0  0  0  0  0  0  0  0  0  0  0  0
    5.8276   -5.2442   20.0771 H   0  0  0  0  0  0  0  0  0  0  0  0
    5.8254   -5.1387   22.2509 C   0  0  0  0  0  0  0  0  0  0  0  0
    5.0759   -5.9297   22.3320 H   0  0  0  0  0  0  0  0  0  0  0  0
    6.5625   -5.3119   23.0376 H   0  0  0  0  0  0  0  0  0  0  0  0
    5.2389   -3.7142   22.3683 C   0  0  0  0  0  0  0  0  0  0  0  0
    5.1916   -3.3615   23.4051 H   0  0  0  0  0  0  0  0  0  0  0  0
    4.2006   -3.7132   22.0248 H   0  0  0  0  0  0  0  0  0  0  0  0
    5.4668    0.5734   20.1133 C   0  0  0  0  0  0  0  0  0  0  0  0
    5.0253    0.5581   21.1087 H   0  0  0  0  0  0  0  0  0  0  0  0
    4.8305    1.2229   19.0454 C   0  0  0  0  0  0  0  0  0  0  0  0
    3.8670    1.7090   19.1762 H   0  0  0  0  0  0  0  0  0  0  0  0
  1  2  1  0
  2  3  2  0
  3  4  1  0
  4  5  1  0
  4  6  2  0
  6  7  1  0
  7  8  1  0
  8  9  1  0
  8 10  1  0
  8 11  1  0
 11 12  1  0
 11 13  1  0
 11 14  1  0
 14 15  1  0
 14 16  1  0
 14 17  1  0
 17 18  1  1
 17 19  1  0
 19 20  1  6
 19 21  1  0
 21 22  1  0
 21 23  1  0
 23 24  1  0
 23 25  1  0
 23 26  1  0
 26 27  1  0
 26 28  1  0
 26 29  1  0
 29 30  1  0
 29 31  1  0
  6 32  1  0
 32 33  1  0
 32 34  2  0
 34 35  1  0
 34  2  1  0
 17  7  1  0
 29 19  1  0
M  END
>  <plip>  (1) 
-0.0

>  <filename>  (1) 
[H][c]1[n][c]([H])[c]([N]2[C]([H])([H])[C]([H])([H])[C]([H])([H])[C@]2([H])[C@@]2([H])[N]([H])[C]([H])([H])[C]([H])([H])[C]2([H])[H])[c]([H])[c]1[H]

$$$$
