
     RDKit          3D

 24 25  0  0  0  0  0  0  0  0999 V2000
    4.9205    1.8098   16.9654 H   0  0  0  0  0  0  0  0  0  0  0  0
    5.3918    1.3040   17.8078 C   0  0  0  0  0  0  0  0  0  0  0  0
    6.5537    0.6868   17.5486 N   0  0  0  0  0  0  0  0  0  0  0  0
    7.1831    0.0970   18.5786 C   0  0  0  0  0  0  0  0  0  0  0  0
    8.1281   -0.3891   18.3445 H   0  0  0  0  0  0  0  0  0  0  0  0
    6.6882    0.0537   19.8930 C   0  0  0  0  0  0  0  0  0  0  0  0
    7.4200   -0.6622   20.9822 C   0  0  0  0  0  0  0  0  0  0  0  0
    6.7309   -1.6377   21.7199 C   0  0  0  0  0  0  0  0  0  0  0  0
    5.6907   -1.8382   21.4979 H   0  0  0  0  0  0  0  0  0  0  0  0
    7.3735   -2.3529   22.7313 C   0  0  0  0  0  0  0  0  0  0  0  0
    6.8551   -3.1048   23.3169 H   0  0  0  0  0  0  0  0  0  0  0  0
    8.6614   -2.1651   23.0369 N   0  0  0  0  0  0  0  0  0  0  0  0
    9.3306   -1.2373   22.3529 C   0  0  0  0  0  0  0  0  0  0  0  0
   10.3770   -1.1194   22.6219 H   0  0  0  0  0  0  0  0  0  0  0  0
    8.7660   -0.4194   21.3437 C   0  0  0  0  0  0  0  0  0  0  0  0
    9.4633    0.6086   20.7409 O   0  0  0  0  0  0  0  0  0  0  0  0
   10.7145    0.9347   21.2578 C   0  0  0  0  0  0  0  0  0  0  0  0
   10.6429    1.1333   22.3313 H   0  0  0  0  0  0  0  0  0  0  0  0
   11.1653    1.9958   20.5999 F   0  0  0  0  0  0  0  0  0  0  0  0
   11.5738   -0.0886   21.0606 F   0  0  0  0  0  0  0  0  0  0  0  0
    5.4450    0.6698   20.1260 C   0  0  0  0  0  0  0  0  0  0  0  0
    5.0124    0.6472   21.1281 H   0  0  0  0  0  0  0  0  0  0  0  0
    4.7967    1.3221   19.0758 C   0  0  0  0  0  0  0  0  0  0  0  0
    3.8599    1.8501   19.2218 H   0  0  0  0  0  0  0  0  0  0  0  0
  1  2  1  0
  2  3  2  0
  3  4  1  0
  4  5  1  0
  4  6  2  0
  6  7  1  0
  7  8  2  0
  8  9  1  0
  8 10  1  0
 10 11  1  0
 10 12  2  0
 12 13  1  0
 13 14  1  0
 13 15  2  0
 15 16  1  0
 16 17  1  0
 17 18  1  0
 17 19  1  0
 17 20  1  0
  6 21  1  0
 21 22  1  0
 21 23  2  0
 23 24  1  0
 23  2  1  0
 15  7  1  0
M  END
>  <plip>  (1) 
-0.07142857142857142

>  <filename>  (1) 
[H][c]1[n][c]([H])[c](-[c]2[c]([H])[c]([H])[n][c]([H])[c]2[O][C]([H])([F])[F])[c]([H])[c]1[H]

$$$$
