
     RDKit          3D

 32 33  0  0  0  0  0  0  0  0999 V2000
    4.9284    1.7776   16.9961 H   0  0  0  0  0  0  0  0  0  0  0  0
    5.4066    1.2883   17.8444 C   0  0  0  0  0  0  0  0  0  0  0  0
    6.5689    0.6653   17.6009 N   0  0  0  0  0  0  0  0  0  0  0  0
    7.1740    0.0525   18.6180 C   0  0  0  0  0  0  0  0  0  0  0  0
    8.1110   -0.4330   18.3664 H   0  0  0  0  0  0  0  0  0  0  0  0
    6.6596   -0.0004   19.9233 C   0  0  0  0  0  0  0  0  0  0  0  0
    7.3717   -0.6862   20.9430 N   0  0  0  0  0  0  0  0  0  0  0  0
    6.7437   -1.1062   22.0603 N   0  0  0  0  0  0  0  0  0  0  0  0
    7.6762   -1.6728   22.8089 C   0  0  0  0  0  0  0  0  0  0  0  0
    7.3852   -2.1980   24.1817 C   0  0  0  0  0  0  0  0  0  0  0  0
    6.4101   -2.6941   24.1961 H   0  0  0  0  0  0  0  0  0  0  0  0
    8.1341   -2.9550   24.4250 H   0  0  0  0  0  0  0  0  0  0  0  0
    7.4073   -1.0868   25.2344 C   0  0  0  0  0  0  0  0  0  0  0  0
    7.1721   -1.5067   26.2340 H   0  0  0  0  0  0  0  0  0  0  0  0
    6.5941   -0.3959   24.9925 H   0  0  0  0  0  0  0  0  0  0  0  0
    8.6625   -0.3405   25.2550 N   0  0  0  0  0  0  0  0  0  0  0  0
    8.4895    0.9955   25.8026 C   0  0  0  0  0  0  0  0  0  0  0  0
    8.1137    0.9905   26.8445 H   0  0  0  0  0  0  0  0  0  0  0  0
    7.7917    1.5665   25.1833 H   0  0  0  0  0  0  0  0  0  0  0  0
    9.4439    1.5324   25.7979 H   0  0  0  0  0  0  0  0  0  0  0  0
    9.6959   -1.0459   25.9861 C   0  0  0  0  0  0  0  0  0  0  0  0
    9.8645   -2.0250   25.5323 H   0  0  0  0  0  0  0  0  0  0  0  0
   10.6371   -0.4868   25.9518 H   0  0  0  0  0  0  0  0  0  0  0  0
    9.4439   -1.2058   27.0531 H   0  0  0  0  0  0  0  0  0  0  0  0
    8.9292   -1.6263   22.1686 C   0  0  0  0  0  0  0  0  0  0  0  0
    9.8640   -1.9794   22.5793 H   0  0  0  0  0  0  0  0  0  0  0  0
    8.7061   -0.9785   20.9811 C   0  0  0  0  0  0  0  0  0  0  0  0
    9.3743   -0.6793   20.1833 H   0  0  0  0  0  0  0  0  0  0  0  0
    5.4363    0.6477   20.1780 C   0  0  0  0  0  0  0  0  0  0  0  0
    5.0060    0.6249   21.1810 H   0  0  0  0  0  0  0  0  0  0  0  0
    4.8159    1.3050   19.1134 C   0  0  0  0  0  0  0  0  0  0  0  0
    3.8831    1.8370   19.2607 H   0  0  0  0  0  0  0  0  0  0  0  0
  1  2  1  0
  2  3  2  0
  3  4  1  0
  4  5  1  0
  4  6  2  0
  6  7  1  0
  7  8  1  0
  8  9  2  0
  9 10  1  0
 10 11  1  0
 10 12  1  0
 10 13  1  0
 13 14  1  0
 13 15  1  0
 13 16  1  0
 16 17  1  0
 17 18  1  0
 17 19  1  0
 17 20  1  0
 16 21  1  0
 21 22  1  0
 21 23  1  0
 21 24  1  0
  9 25  1  0
 25 26  1  0
 25 27  2  0
 27 28  1  0
  6 29  1  0
 29 30  1  0
 29 31  2  0
 31 32  1  0
 31  2  1  0
 27  7  1  0
M  END
>  <plip>  (1) 
-0.03571428571428571

>  <filename>  (1) 
[H][c]1[n][c]([H])[c](-[n]2[n][c]([C]([H])([H])[C]([H])([H])[N]([C]([H])([H])[H])[C]([H])([H])[H])[c]([H])[c]2[H])[c]([H])[c]1[H]

$$$$
