
     RDKit          3D

 31 32  0  0  0  0  0  0  0  0999 V2000
    1.2312   -6.3532   24.8732 H   0  0  0  0  0  0  0  0  0  0  0  0
    2.1426   -6.5094   24.5609 O   0  0  0  0  0  0  0  0  0  0  0  0
    2.4671   -5.2953   24.1138 C   0  0  0  0  0  0  0  0  0  0  0  0
    1.6758   -4.3903   24.2070 O   0  0  0  0  0  0  0  0  0  0  0  0
    3.9289   -5.1790   23.4498 C   0  0  0  0  0  0  0  0  0  0  0  0
    4.5760   -6.2053   23.2101 O   0  0  0  0  0  0  0  0  0  0  0  0
    4.4119   -3.8818   23.1161 C   0  0  0  0  0  0  0  0  0  0  0  0
    3.9436   -3.0110   23.5477 H   0  0  0  0  0  0  0  0  0  0  0  0
    5.4346   -3.7597   22.2145 C   0  0  0  0  0  0  0  0  0  0  0  0
    6.0385   -4.7821   21.7031 O   0  0  0  0  0  0  0  0  0  0  0  0
    5.6618   -5.5537   22.2201 H   0  0  0  0  0  0  0  0  0  0  0  0
    5.7857   -2.5343   21.7741 O   0  0  0  0  0  0  0  0  0  0  0  0
    7.0855   -2.3091   21.3253 C   0  0  0  0  0  0  0  0  0  0  0  0
    7.9287   -3.1574   21.2561 O   0  0  0  0  0  0  0  0  0  0  0  0
    7.3304   -0.8221   21.0488 C   0  0  0  0  0  0  0  0  0  0  0  0
    6.5878   -0.1116   19.9384 C   0  0  0  0  0  0  0  0  0  0  0  0
    7.1352   -0.0333   18.6421 C   0  0  0  0  0  0  0  0  0  0  0  0
    8.0863   -0.5306   18.4499 H   0  0  0  0  0  0  0  0  0  0  0  0
    6.5836    0.6291   17.6179 N   0  0  0  0  0  0  0  0  0  0  0  0
    5.4324    1.2720   17.8636 C   0  0  0  0  0  0  0  0  0  0  0  0
    4.9986    1.8025   17.0201 H   0  0  0  0  0  0  0  0  0  0  0  0
    4.7930    1.2685   19.1075 C   0  0  0  0  0  0  0  0  0  0  0  0
    3.8715    1.8251   19.2358 H   0  0  0  0  0  0  0  0  0  0  0  0
    5.3795    0.5642   20.1634 C   0  0  0  0  0  0  0  0  0  0  0  0
    4.9360    0.5503   21.1614 H   0  0  0  0  0  0  0  0  0  0  0  0
    7.6947    0.0044   22.2771 C   0  0  0  0  0  0  0  0  0  0  0  0
    7.3634    1.0413   22.2922 H   0  0  0  0  0  0  0  0  0  0  0  0
    7.6729   -0.4829   23.2472 H   0  0  0  0  0  0  0  0  0  0  0  0
    8.7587   -0.3705   21.3015 C   0  0  0  0  0  0  0  0  0  0  0  0
    9.4656   -1.1456   21.5828 H   0  0  0  0  0  0  0  0  0  0  0  0
    9.1653    0.4072   20.6609 H   0  0  0  0  0  0  0  0  0  0  0  0
  1  2  1  0
  2  3  1  0
  3  4  2  0
  3  5  1  0
  5  6  2  0
  5  7  1  0
  7  8  1  0
  7  9  2  3
  9 10  1  0
 10 11  1  0
  9 12  1  0
 12 13  1  0
 13 14  2  0
 13 15  1  0
 15 16  1  0
 16 17  2  0
 17 18  1  0
 17 19  1  0
 19 20  2  0
 20 21  1  0
 20 22  1  0
 22 23  1  0
 22 24  2  0
 24 25  1  0
 15 26  1  0
 26 27  1  0
 26 28  1  0
 26 29  1  0
 29 30  1  0
 29 31  1  0
 29 15  1  0
 24 16  1  0
M  END
>  <plip>  (1) 
-0.034482758620689655

>  <filename>  (1) 
[H][O][C](=[O])[C](=[O])[C]([H])=[C]([O][H])[O][C](=[O])[C]1([c]2[c]([H])[n][c]([H])[c]([H])[c]2[H])[C]([H])([H])[C]1([H])[H]

$$$$
