
     RDKit          3D

 44 47  0  0  0  0  0  0  0  0999 V2000
    9.7291    0.9104   21.2851 O   0  0  0  0  0  0  0  0  0  0  0  0
    8.6905    1.2143   21.8553 C   0  0  0  0  0  0  0  0  0  0  0  0
    8.3523    2.5958   22.2683 C   0  0  0  0  0  0  0  0  0  0  0  0
    7.1081    3.1989   22.3698 C   0  0  0  0  0  0  0  0  0  0  0  0
    7.1948    4.5181   22.6236 N   0  0  0  0  0  0  0  0  0  0  0  0
    8.4899    4.7775   22.6740 C   0  0  0  0  0  0  0  0  0  0  0  0
    9.2033    5.9999   22.9142 C   0  0  0  0  0  0  0  0  0  0  0  0
    8.4983    7.1061   23.1498 F   0  0  0  0  0  0  0  0  0  0  0  0
   10.5676    6.0355   22.9313 C   0  0  0  0  0  0  0  0  0  0  0  0
   11.3104    4.8244   22.6945 C   0  0  0  0  0  0  0  0  0  0  0  0
   10.6511    3.6455   22.4691 C   0  0  0  0  0  0  0  0  0  0  0  0
    9.2599    3.6372   22.4574 N   0  0  0  0  0  0  0  0  0  0  0  0
   11.1045    2.6951   22.2381 H   0  0  0  0  0  0  0  0  0  0  0  0
   12.3974    4.8652   22.6779 H   0  0  0  0  0  0  0  0  0  0  0  0
   11.0532    6.9817   23.1502 H   0  0  0  0  0  0  0  0  0  0  0  0
    6.1186    2.7543   22.2523 H   0  0  0  0  0  0  0  0  0  0  0  0
    7.6917    0.2709   22.0993 N   0  0  0  0  0  0  0  0  0  0  0  0
    7.0707    0.0911   23.4141 C   0  0  0  0  0  0  0  0  0  0  0  0
    7.6483   -1.1045   24.2183 C   0  0  0  0  0  0  0  0  0  0  0  0
    8.3207   -2.2103   23.3893 C   0  0  0  0  0  0  0  0  0  0  0  0
    7.4039   -2.9099   22.3766 C   0  0  0  0  0  0  0  0  0  0  0  0
    6.6401   -1.9596   21.4339 C   0  0  0  0  0  0  0  0  0  0  0  0
    7.4123   -0.6938   21.0087 C   0  0  0  0  0  0  0  0  0  0  0  0
    6.6658    0.0296   19.9072 C   0  0  0  0  0  0  0  0  0  0  0  0
    5.4407    0.6629   20.1529 C   0  0  0  0  0  0  0  0  0  0  0  0
    4.8045    1.3134   19.0978 C   0  0  0  0  0  0  0  0  0  0  0  0
    5.4003    1.2909   17.8316 C   0  0  0  0  0  0  0  0  0  0  0  0
    6.5603    0.6730   17.5743 N   0  0  0  0  0  0  0  0  0  0  0  0
    7.1720    0.0719   18.6062 C   0  0  0  0  0  0  0  0  0  0  0  0
    8.1180   -0.4156   18.3726 H   0  0  0  0  0  0  0  0  0  0  0  0
    4.9219    1.7852   16.9895 H   0  0  0  0  0  0  0  0  0  0  0  0
    3.8750    1.8430   19.2532 H   0  0  0  0  0  0  0  0  0  0  0  0
    4.9954    0.6518   21.1528 H   0  0  0  0  0  0  0  0  0  0  0  0
    8.3882   -1.0240   20.6288 H   0  0  0  0  0  0  0  0  0  0  0  0
    5.6855   -1.6560   21.8683 H   0  0  0  0  0  0  0  0  0  0  0  0
    6.3591   -2.4999   20.5247 H   0  0  0  0  0  0  0  0  0  0  0  0
    6.6762   -3.5377   22.9100 H   0  0  0  0  0  0  0  0  0  0  0  0
    8.0187   -3.5914   21.7726 H   0  0  0  0  0  0  0  0  0  0  0  0
    8.7518   -2.9608   24.0614 H   0  0  0  0  0  0  0  0  0  0  0  0
    9.1690   -1.7660   22.8521 H   0  0  0  0  0  0  0  0  0  0  0  0
    8.3794   -0.7237   24.9383 H   0  0  0  0  0  0  0  0  0  0  0  0
    6.8382   -1.5405   24.8174 H   0  0  0  0  0  0  0  0  0  0  0  0
    7.1958    1.0139   23.9890 H   0  0  0  0  0  0  0  0  0  0  0  0
    5.9868   -0.0278   23.2964 H   0  0  0  0  0  0  0  0  0  0  0  0
  1  2  2  0
  2  3  1  0
  3  4  2  0
  4  5  1  0
  5  6  2  0
  6  7  1  0
  7  8  1  0
  7  9  2  0
  9 10  1  0
 10 11  2  0
 11 12  1  0
 11 13  1  0
 10 14  1  0
  9 15  1  0
  4 16  1  0
  2 17  1  0
 17 18  1  0
 18 19  1  0
 19 20  1  0
 20 21  1  0
 21 22  1  0
 22 23  1  0
 23 24  1  0
 24 25  2  0
 25 26  1  0
 26 27  2  0
 27 28  1  0
 28 29  2  0
 29 30  1  0
 27 31  1  0
 26 32  1  0
 25 33  1  0
 23 34  1  0
 22 35  1  0
 22 36  1  0
 21 37  1  0
 21 38  1  0
 20 39  1  0
 20 40  1  0
 19 41  1  0
 19 42  1  0
 18 43  1  0
 18 44  1  0
 12  3  1  0
 23 17  1  0
 29 24  1  0
 12  6  1  0
M  END
>  <plip>  (1) 
-0.14285714285714285

>  <filename>  (1) 
[H][c]1[n][c]([H])[c]([C]2([H])[N]([C](=[O])[c]3[c]([H])[n][c]4[c]([F])[c]([H])[c]([H])[c]([H])[n]34)[C]([H])([H])[C]([H])([H])[C]([H])([H])[C]([H])([H])[C]2([H])[H])[c]([H])[c]1[H]

$$$$
