
     RDKit          3D

 48 50  0  0  0  0  0  0  0  0999 V2000
    3.1170   -8.9612   25.3002 C   0  0  0  0  0  0  0  0  0  0  0  0
    3.9153   -8.1295   24.4781 O   0  0  0  0  0  0  0  0  0  0  0  0
    3.5661   -6.8426   24.3015 C   0  0  0  0  0  0  0  0  0  0  0  0
    4.4932   -6.0071   23.6278 C   0  0  0  0  0  0  0  0  0  0  0  0
    5.7280   -6.5094   22.9853 C   0  0  0  0  0  0  0  0  0  0  0  0
    6.0289   -7.6777   22.8307 O   0  0  0  0  0  0  0  0  0  0  0  0
    6.6050   -5.4506   22.4713 C   0  0  0  0  0  0  0  0  0  0  0  0
    6.2570   -4.1499   22.4510 C   0  0  0  0  0  0  0  0  0  0  0  0
    7.1446   -3.0607   21.8195 C   0  0  0  0  0  0  0  0  0  0  0  0
    8.3070   -3.3194   21.5321 O   0  0  0  0  0  0  0  0  0  0  0  0
    6.5712   -1.8542   21.5476 N   0  0  0  0  0  0  0  0  0  0  0  0
    7.3404   -0.7177   21.0445 C   0  0  0  0  0  0  0  0  0  0  0  0
    6.5891   -0.0415   19.9179 C   0  0  0  0  0  0  0  0  0  0  0  0
    5.3873    0.6458   20.1297 C   0  0  0  0  0  0  0  0  0  0  0  0
    4.7922    1.3125   19.0569 C   0  0  0  0  0  0  0  0  0  0  0  0
    5.4209    1.2730   17.8069 C   0  0  0  0  0  0  0  0  0  0  0  0
    6.5636    0.6104   17.5768 N   0  0  0  0  0  0  0  0  0  0  0  0
    7.1224   -0.0209   18.6191 C   0  0  0  0  0  0  0  0  0  0  0  0
    8.0597   -0.5368   18.4051 H   0  0  0  0  0  0  0  0  0  0  0  0
    4.9870    1.7940   16.9547 H   0  0  0  0  0  0  0  0  0  0  0  0
    3.8728    1.8736   19.1814 H   0  0  0  0  0  0  0  0  0  0  0  0
    4.9282    0.6813   21.1217 H   0  0  0  0  0  0  0  0  0  0  0  0
    7.7824    0.2748   22.1698 C   0  0  0  0  0  0  0  0  0  0  0  0
    8.5805   -0.3890   23.1243 O   0  0  0  0  0  0  0  0  0  0  0  0
    7.9648   -0.6631   24.3659 C   0  0  0  0  0  0  0  0  0  0  0  0
    7.7300    0.2590   24.9214 H   0  0  0  0  0  0  0  0  0  0  0  0
    7.0452   -1.2593   24.2580 H   0  0  0  0  0  0  0  0  0  0  0  0
    8.6917   -1.2406   24.9422 H   0  0  0  0  0  0  0  0  0  0  0  0
    8.5334    1.2802   21.5723 O   0  0  0  0  0  0  0  0  0  0  0  0
    8.7803    2.3921   22.4184 C   0  0  0  0  0  0  0  0  0  0  0  0
    9.3986    3.0902   21.8509 H   0  0  0  0  0  0  0  0  0  0  0  0
    9.3118    2.0969   23.3335 H   0  0  0  0  0  0  0  0  0  0  0  0
    7.8421    2.8957   22.7029 H   0  0  0  0  0  0  0  0  0  0  0  0
    6.8824    0.7057   22.6507 H   0  0  0  0  0  0  0  0  0  0  0  0
    8.2921   -1.1152   20.6756 H   0  0  0  0  0  0  0  0  0  0  0  0
    5.6020   -1.7379   21.8057 H   0  0  0  0  0  0  0  0  0  0  0  0
    5.0520   -3.7294   22.9658 O   0  0  0  0  0  0  0  0  0  0  0  0
    4.2213   -4.6329   23.5907 C   0  0  0  0  0  0  0  0  0  0  0  0
    3.0653   -4.0886   24.1649 C   0  0  0  0  0  0  0  0  0  0  0  0
    2.1136   -4.9417   24.7115 C   0  0  0  0  0  0  0  0  0  0  0  0
    2.3589   -6.3164   24.7722 C   0  0  0  0  0  0  0  0  0  0  0  0
    1.6086   -6.9812   25.1814 H   0  0  0  0  0  0  0  0  0  0  0  0
    1.1668   -4.5617   25.0962 H   0  0  0  0  0  0  0  0  0  0  0  0
    2.9512   -3.0149   24.1627 H   0  0  0  0  0  0  0  0  0  0  0  0
    7.5444   -5.7966   22.0662 H   0  0  0  0  0  0  0  0  0  0  0  0
    2.8950   -8.4919   26.2664 H   0  0  0  0  0  0  0  0  0  0  0  0
    3.6877   -9.8673   25.4920 H   0  0  0  0  0  0  0  0  0  0  0  0
    2.1855   -9.2292   24.7905 H   0  0  0  0  0  0  0  0  0  0  0  0
  1  2  1  0
  2  3  1  0
  3  4  2  0
  4  5  1  0
  5  6  2  0
  5  7  1  0
  7  8  2  0
  8  9  1  0
  9 10  2  0
  9 11  1  0
 11 12  1  0
 12 13  1  0
 13 14  2  0
 14 15  1  0
 15 16  2  0
 16 17  1  0
 17 18  2  0
 18 19  1  0
 16 20  1  0
 15 21  1  0
 14 22  1  0
 12 23  1  0
 23 24  1  0
 24 25  1  0
 25 26  1  0
 25 27  1  0
 25 28  1  0
 23 29  1  0
 29 30  1  0
 30 31  1  0
 30 32  1  0
 30 33  1  0
 23 34  1  0
 12 35  1  0
 11 36  1  0
  8 37  1  0
 37 38  1  0
 38 39  2  0
 39 40  1  0
 40 41  2  0
 41 42  1  0
 40 43  1  0
 39 44  1  0
  7 45  1  0
  1 46  1  0
  1 47  1  0
  1 48  1  0
 41  3  1  0
 38  4  1  0
 18 13  1  0
M  END
>  <plip>  (1) 
-0.12903225806451613

>  <filename>  (1) 
[H][c]1[n][c]([H])[c]([C]([H])([N]([H])[C](=[O])[c]2[o][c]3[c]([H])[c]([H])[c]([H])[c]([O][C]([H])([H])[H])[c]3[c](=[O])[c]2[H])[C]([H])([O][C]([H])([H])[H])[O][C]([H])([H])[H])[c]([H])[c]1[H]

$$$$
