
     RDKit          3D

 29 30  0  0  0  0  0  0  0  0999 V2000
    8.6306    1.1512   22.6302 C   0  0  0  0  0  0  0  0  0  0  0  0
    8.8651    0.1633   21.4914 C   0  0  0  0  0  0  0  0  0  0  0  0
    7.5896   -0.4333   21.0552 N   0  0  0  0  0  0  0  0  0  0  0  0
    7.0642   -1.4203   21.8703 C   0  0  0  0  0  0  0  0  0  0  0  0
    7.6732   -1.8701   22.8277 O   0  0  0  0  0  0  0  0  0  0  0  0
    5.6967   -1.9752   21.5735 C   0  0  0  0  0  0  0  0  0  0  0  0
    5.6821   -2.8127   20.4107 N   0  0  0  0  0  0  0  0  0  0  0  0
    5.5367   -2.3027   19.2130 N   0  0  0  0  0  0  0  0  0  0  0  0
    5.5730   -3.3864   18.4705 C   0  0  0  0  0  0  0  0  0  0  0  0
    5.6739   -4.5154   19.2044 N   0  0  0  0  0  0  0  0  0  0  0  0
    5.7486   -4.1213   20.4410 N   0  0  0  0  0  0  0  0  0  0  0  0
    5.5094   -3.3754   17.3978 H   0  0  0  0  0  0  0  0  0  0  0  0
    5.3947   -2.5673   22.4339 H   0  0  0  0  0  0  0  0  0  0  0  0
    4.9900   -1.1754   21.3843 H   0  0  0  0  0  0  0  0  0  0  0  0
    6.8961    0.2716   20.0141 C   0  0  0  0  0  0  0  0  0  0  0  0
    5.7171    0.9957   20.2321 C   0  0  0  0  0  0  0  0  0  0  0  0
    5.0583    1.5601   19.1276 C   0  0  0  0  0  0  0  0  0  0  0  0
    5.6210    1.4259   17.8578 C   0  0  0  0  0  0  0  0  0  0  0  0
    6.7899    0.7990   17.6439 N   0  0  0  0  0  0  0  0  0  0  0  0
    7.4145    0.2686   18.7013 C   0  0  0  0  0  0  0  0  0  0  0  0
    8.3705   -0.2178   18.5053 H   0  0  0  0  0  0  0  0  0  0  0  0
    5.1261    1.8407   16.9803 H   0  0  0  0  0  0  0  0  0  0  0  0
    4.1152    2.0805   19.2462 H   0  0  0  0  0  0  0  0  0  0  0  0
    5.3464    1.1405   21.2481 H   0  0  0  0  0  0  0  0  0  0  0  0
    9.3212    0.6547   20.6232 H   0  0  0  0  0  0  0  0  0  0  0  0
    9.5243   -0.6549   21.7996 H   0  0  0  0  0  0  0  0  0  0  0  0
    8.2659    0.6209   23.5165 H   0  0  0  0  0  0  0  0  0  0  0  0
    9.5555    1.6707   22.8949 H   0  0  0  0  0  0  0  0  0  0  0  0
    7.8800    1.8959   22.3319 H   0  0  0  0  0  0  0  0  0  0  0  0
  1  2  1  0
  2  3  1  0
  3  4  1  0
  4  5  2  0
  4  6  1  0
  6  7  1  0
  7  8  1  0
  8  9  2  0
  9 10  1  0
 10 11  2  0
  9 12  1  0
  6 13  1  0
  6 14  1  0
  3 15  1  0
 15 16  2  0
 16 17  1  0
 17 18  2  0
 18 19  1  0
 19 20  2  0
 20 21  1  0
 18 22  1  0
 17 23  1  0
 16 24  1  0
  2 25  1  0
  2 26  1  0
  1 27  1  0
  1 28  1  0
  1 29  1  0
 11  7  1  0
 20 15  1  0
M  END
>  <plip>  (1) 
-0.14285714285714285

>  <filename>  (1) 
[H][c]1[n][n][n]([C]([H])([H])[C](=[O])[N]([c]2[c]([H])[n][c]([H])[c]([H])[c]2[H])[C]([H])([H])[C]([H])([H])[H])[n]1

$$$$
