
     RDKit          3D

 26 27  0  0  0  0  0  0  0  0999 V2000
    6.6092   -3.4005   23.3825 O   0  0  0  0  0  0  0  0  0  0  0  0
    7.3065   -2.4349   22.7318 C   0  0  0  0  0  0  0  0  0  0  0  0
    8.6449   -2.2280   23.0714 C   0  0  0  0  0  0  0  0  0  0  0  0
    9.3724   -1.2381   22.4198 C   0  0  0  0  0  0  0  0  0  0  0  0
    8.7803   -0.4442   21.4282 C   0  0  0  0  0  0  0  0  0  0  0  0
    9.4836    0.5980   20.8123 O   0  0  0  0  0  0  0  0  0  0  0  0
   10.6571    1.0517   21.3308 C   0  0  0  0  0  0  0  0  0  0  0  0
   11.6395    0.1384   21.2382 F   0  0  0  0  0  0  0  0  0  0  0  0
   11.0169    2.1317   20.6566 F   0  0  0  0  0  0  0  0  0  0  0  0
   10.5772    1.4014   22.6227 F   0  0  0  0  0  0  0  0  0  0  0  0
    7.4367   -0.6622   21.0377 C   0  0  0  0  0  0  0  0  0  0  0  0
    6.7330    0.0729   19.9291 C   0  0  0  0  0  0  0  0  0  0  0  0
    5.4787    0.6785   20.1360 C   0  0  0  0  0  0  0  0  0  0  0  0
    4.8373    1.3131   19.0722 C   0  0  0  0  0  0  0  0  0  0  0  0
    5.4374    1.2997   17.8120 C   0  0  0  0  0  0  0  0  0  0  0  0
    6.6094    0.6939   17.5729 N   0  0  0  0  0  0  0  0  0  0  0  0
    7.2360    0.1146   18.6129 C   0  0  0  0  0  0  0  0  0  0  0  0
    8.1741   -0.3776   18.3712 H   0  0  0  0  0  0  0  0  0  0  0  0
    4.9541    1.7888   16.9632 H   0  0  0  0  0  0  0  0  0  0  0  0
    3.8859    1.8193   19.2051 H   0  0  0  0  0  0  0  0  0  0  0  0
    5.0190    0.6578   21.1235 H   0  0  0  0  0  0  0  0  0  0  0  0
    6.7215   -1.6531   21.7355 C   0  0  0  0  0  0  0  0  0  0  0  0
    5.6852   -1.8263   21.4705 H   0  0  0  0  0  0  0  0  0  0  0  0
   10.4097   -1.0871   22.6981 H   0  0  0  0  0  0  0  0  0  0  0  0
    9.0999   -2.8294   23.8506 H   0  0  0  0  0  0  0  0  0  0  0  0
    5.6831   -3.2959   23.1262 H   0  0  0  0  0  0  0  0  0  0  0  0
  1  2  1  0
  2  3  2  0
  3  4  1  0
  4  5  2  0
  5  6  1  0
  6  7  1  0
  7  8  1  0
  7  9  1  0
  7 10  1  0
  5 11  1  0
 11 12  1  0
 12 13  2  0
 13 14  1  0
 14 15  2  0
 15 16  1  0
 16 17  2  0
 17 18  1  0
 15 19  1  0
 14 20  1  0
 13 21  1  0
 11 22  2  0
 22 23  1  0
  4 24  1  0
  3 25  1  0
  1 26  1  0
 22  2  1  0
 17 12  1  0
M  END
>  <plip>  (1) 
-0.10344827586206896

>  <filename>  (1) 
[H][O][c]1[c]([H])[c]([H])[c]([O][C]([F])([F])[F])[c](-[c]2[c]([H])[n][c]([H])[c]([H])[c]2[H])[c]1[H]

$$$$
