
     RDKit          3D

 25 26  0  0  0  0  0  0  0  0999 V2000
    8.1291   -2.4372   20.5889 H   0  0  0  0  0  0  0  0  0  0  0  0
    8.3326   -1.4884   20.5931 O   0  0  0  0  0  0  0  0  0  0  0  0
    7.0639   -0.9401   20.9320 N   0  0  0  0  0  0  0  0  0  0  0  0
    7.0896   -0.3488   22.5920 S   0  0  0  0  0  0  0  0  0  0  0  0
    8.3239    0.9604   22.5857 C   0  0  0  0  0  0  0  0  0  0  0  0
    9.6653    0.6933   22.9209 C   0  0  0  0  0  0  0  0  0  0  0  0
    9.9620   -0.3232   23.1655 H   0  0  0  0  0  0  0  0  0  0  0  0
   10.5954    1.7409   22.9647 C   0  0  0  0  0  0  0  0  0  0  0  0
   11.6329    1.5378   23.2150 H   0  0  0  0  0  0  0  0  0  0  0  0
   10.1991    3.0521   22.6945 C   0  0  0  0  0  0  0  0  0  0  0  0
   10.9269    3.8619   22.6937 H   0  0  0  0  0  0  0  0  0  0  0  0
    8.8621    3.3229   22.3907 C   0  0  0  0  0  0  0  0  0  0  0  0
    8.5483    4.3418   22.1861 H   0  0  0  0  0  0  0  0  0  0  0  0
    7.9279    2.2859   22.3497 C   0  0  0  0  0  0  0  0  0  0  0  0
    6.8752    2.4938   22.1663 H   0  0  0  0  0  0  0  0  0  0  0  0
    6.5705   -0.0435   19.9118 C   0  0  0  0  0  0  0  0  0  0  0  0
    7.1584    0.0344   18.6364 C   0  0  0  0  0  0  0  0  0  0  0  0
    8.1102   -0.4501   18.4403 H   0  0  0  0  0  0  0  0  0  0  0  0
    6.6002    0.6928   17.6117 N   0  0  0  0  0  0  0  0  0  0  0  0
    5.4342    1.3235   17.8295 C   0  0  0  0  0  0  0  0  0  0  0  0
    4.9786    1.8077   16.9679 H   0  0  0  0  0  0  0  0  0  0  0  0
    4.7967    1.3514   19.0757 C   0  0  0  0  0  0  0  0  0  0  0  0
    3.8613    1.8885   19.1991 H   0  0  0  0  0  0  0  0  0  0  0  0
    5.3862    0.6684   20.1483 C   0  0  0  0  0  0  0  0  0  0  0  0
    4.9447    0.6739   21.1457 H   0  0  0  0  0  0  0  0  0  0  0  0
  1  2  1  0
  2  3  1  0
  3  4  1  0
  4  5  1  0
  5  6  2  0
  6  7  1  0
  6  8  1  0
  8  9  1  0
  8 10  2  0
 10 11  1  0
 10 12  1  0
 12 13  1  0
 12 14  2  0
 14 15  1  0
  3 16  1  0
 16 17  2  0
 17 18  1  0
 17 19  1  0
 19 20  2  0
 20 21  1  0
 20 22  1  0
 22 23  1  0
 22 24  2  0
 24 25  1  0
 14  5  1  0
 24 16  1  0
M  END
>  <plip>  (1) 
-0.0

>  <filename>  (1) 
[H][O][N]([S][c]1[c]([H])[c]([H])[c]([H])[c]([H])[c]1[H])[c]1[c]([H])[n][c]([H])[c]([H])[c]1[H]

$$$$
