
     RDKit          3D

 36 39  0  0  0  0  0  0  0  0999 V2000
    4.9606    1.7724   17.0045 H   0  0  0  0  0  0  0  0  0  0  0  0
    5.4096    1.2746   17.8641 C   0  0  0  0  0  0  0  0  0  0  0  0
    6.5711    0.6487   17.6327 N   0  0  0  0  0  0  0  0  0  0  0  0
    7.1599    0.0284   18.6605 C   0  0  0  0  0  0  0  0  0  0  0  0
    8.1219   -0.4299   18.4397 H   0  0  0  0  0  0  0  0  0  0  0  0
    6.6163   -0.0360   19.9513 C   0  0  0  0  0  0  0  0  0  0  0  0
    7.4397   -0.7417   20.9781 C   0  0  0  0  0  0  0  0  0  0  0  0
    8.6564   -0.7984   20.9042 O   0  0  0  0  0  0  0  0  0  0  0  0
    6.7390   -1.3581   21.9769 N   0  0  0  0  0  0  0  0  0  0  0  0
    5.7400   -1.2558   21.9764 H   0  0  0  0  0  0  0  0  0  0  0  0
    7.3681   -1.7856   23.2063 C   0  0  0  0  0  0  0  0  0  0  0  0
    7.7314   -0.7147   24.2140 C   0  0  0  0  0  0  0  0  0  0  0  0
    9.0397   -0.1454   24.2363 C   0  0  0  0  0  0  0  0  0  0  0  0
    9.7615   -0.5123   23.5063 H   0  0  0  0  0  0  0  0  0  0  0  0
    9.3882    0.8403   25.1554 C   0  0  0  0  0  0  0  0  0  0  0  0
   10.3905    1.2616   25.1656 H   0  0  0  0  0  0  0  0  0  0  0  0
    8.3958    1.2689   26.0606 C   0  0  0  0  0  0  0  0  0  0  0  0
    7.0894    0.7163   26.0745 C   0  0  0  0  0  0  0  0  0  0  0  0
    6.7717   -0.2794   25.1338 C   0  0  0  0  0  0  0  0  0  0  0  0
    5.7803   -0.7254   25.1285 H   0  0  0  0  0  0  0  0  0  0  0  0
    6.3635    1.3809   27.1261 C   0  0  0  0  0  0  0  0  0  0  0  0
    5.3343    1.2013   27.4051 H   0  0  0  0  0  0  0  0  0  0  0  0
    7.2142    2.2866   27.6864 C   0  0  0  0  0  0  0  0  0  0  0  0
    7.0660    2.9783   28.5053 H   0  0  0  0  0  0  0  0  0  0  0  0
    8.4289    2.2311   27.0367 N   0  0  0  0  0  0  0  0  0  0  0  0
    9.2516    2.7500   27.2780 H   0  0  0  0  0  0  0  0  0  0  0  0
    8.2499   -3.0007   23.0756 C   0  0  0  0  0  0  0  0  0  0  0  0
    8.3583   -3.3858   22.0649 H   0  0  0  0  0  0  0  0  0  0  0  0
    9.1542   -3.0500   23.6841 H   0  0  0  0  0  0  0  0  0  0  0  0
    6.8971   -3.1190   23.7313 C   0  0  0  0  0  0  0  0  0  0  0  0
    6.8649   -3.2467   24.8135 H   0  0  0  0  0  0  0  0  0  0  0  0
    6.0930   -3.6292   23.2029 H   0  0  0  0  0  0  0  0  0  0  0  0
    5.4009    0.6301   20.1835 C   0  0  0  0  0  0  0  0  0  0  0  0
    4.9497    0.6795   21.1788 H   0  0  0  0  0  0  0  0  0  0  0  0
    4.7946    1.3008   19.1202 C   0  0  0  0  0  0  0  0  0  0  0  0
    3.8697    1.8515   19.2439 H   0  0  0  0  0  0  0  0  0  0  0  0
  1  2  1  0
  2  3  2  0
  3  4  1  0
  4  5  1  0
  4  6  2  0
  6  7  1  0
  7  8  2  0
  7  9  1  0
  9 10  1  0
  9 11  1  0
 11 12  1  0
 12 13  2  0
 13 14  1  0
 13 15  1  0
 15 16  1  0
 15 17  2  0
 17 18  1  0
 18 19  2  0
 19 20  1  0
 18 21  1  0
 21 22  1  0
 21 23  2  0
 23 24  1  0
 23 25  1  0
 25 26  1  0
 11 27  1  0
 27 28  1  0
 27 29  1  0
 27 30  1  0
 30 31  1  0
 30 32  1  0
  6 33  1  0
 33 34  1  0
 33 35  2  0
 35 36  1  0
 35  2  1  0
 30 11  1  0
 19 12  1  0
 25 17  1  0
M  END
>  <plip>  (1) 
-0.07142857142857142

>  <filename>  (1) 
[H][c]1[n][c]([H])[c]([C](=[O])[N]([H])[C]2([c]3[c]([H])[c]([H])[c]4[c]([c]3[H])[c]([H])[c]([H])[n]4[H])[C]([H])([H])[C]2([H])[H])[c]([H])[c]1[H]

$$$$
