
     RDKit          3D

 27 28  0  0  0  0  0  0  0  0999 V2000
    9.2941   -1.1142   21.8688 H   0  0  0  0  0  0  0  0  0  0  0  0
    8.7135   -0.6012   21.1035 C   0  0  0  0  0  0  0  0  0  0  0  0
    9.2997    0.0609   20.4688 H   0  0  0  0  0  0  0  0  0  0  0  0
    7.3845   -0.7264   20.9553 C   0  0  0  0  0  0  0  0  0  0  0  0
    6.5280   -1.6433   21.8436 C   0  0  0  0  0  0  0  0  0  0  0  0
    5.6325   -2.3241   21.3741 O   0  0  0  0  0  0  0  0  0  0  0  0
    6.8532   -1.7038   23.3071 C   0  0  0  0  0  0  0  0  0  0  0  0
    7.3965   -0.5987   23.9959 C   0  0  0  0  0  0  0  0  0  0  0  0
    7.6375    0.3262   23.4669 H   0  0  0  0  0  0  0  0  0  0  0  0
    7.6866   -0.7169   25.3509 C   0  0  0  0  0  0  0  0  0  0  0  0
    8.1154    0.0878   25.9317 H   0  0  0  0  0  0  0  0  0  0  0  0
    7.4544   -1.9264   25.9940 C   0  0  0  0  0  0  0  0  0  0  0  0
    7.9751   -2.0534   27.6238 Cl  0  0  0  0  0  0  0  0  0  0  0  0
    6.8819   -3.0193   25.3446 C   0  0  0  0  0  0  0  0  0  0  0  0
    6.6863   -3.9248   25.9060 H   0  0  0  0  0  0  0  0  0  0  0  0
    6.5763   -2.9032   23.9902 C   0  0  0  0  0  0  0  0  0  0  0  0
    6.1393   -3.7401   23.4410 H   0  0  0  0  0  0  0  0  0  0  0  0
    6.6596    0.0259   19.8818 C   0  0  0  0  0  0  0  0  0  0  0  0
    7.1699    0.0876   18.5687 C   0  0  0  0  0  0  0  0  0  0  0  0
    8.1082   -0.4111   18.3288 H   0  0  0  0  0  0  0  0  0  0  0  0
    6.5542    0.6964   17.5472 N   0  0  0  0  0  0  0  0  0  0  0  0
    5.3924    1.3124   17.8098 C   0  0  0  0  0  0  0  0  0  0  0  0
    4.9241    1.8136   16.9629 H   0  0  0  0  0  0  0  0  0  0  0  0
    4.7965    1.3300   19.0757 C   0  0  0  0  0  0  0  0  0  0  0  0
    3.8606    1.8569   19.2161 H   0  0  0  0  0  0  0  0  0  0  0  0
    5.4369    0.6685   20.1268 C   0  0  0  0  0  0  0  0  0  0  0  0
    5.0040    0.6343   21.1268 H   0  0  0  0  0  0  0  0  0  0  0  0
  1  2  1  0
  2  3  1  0
  2  4  2  3
  4  5  1  0
  5  6  2  0
  5  7  1  0
  7  8  2  0
  8  9  1  0
  8 10  1  0
 10 11  1  0
 10 12  2  0
 12 13  1  0
 12 14  1  0
 14 15  1  0
 14 16  2  0
 16 17  1  0
  4 18  1  0
 18 19  2  0
 19 20  1  0
 19 21  1  0
 21 22  2  0
 22 23  1  0
 22 24  1  0
 24 25  1  0
 24 26  2  0
 26 27  1  0
 16  7  1  0
 26 18  1  0
M  END
>  <plip>  (1) 
-0.07142857142857142

>  <filename>  (1) 
[H][C]([H])=[C]([C](=[O])[c]1[c]([H])[c]([H])[c]([Cl])[c]([H])[c]1[H])[c]1[c]([H])[n][c]([H])[c]([H])[c]1[H]

$$$$
