
     RDKit          3D

 40 43  0  0  0  0  0  0  0  0999 V2000
    5.0294    1.7737   16.8424 H   0  0  0  0  0  0  0  0  0  0  0  0
    5.4415    1.3242   17.7432 C   0  0  0  0  0  0  0  0  0  0  0  0
    6.6100    0.6854   17.6011 N   0  0  0  0  0  0  0  0  0  0  0  0
    7.1479    0.1301   18.7002 C   0  0  0  0  0  0  0  0  0  0  0  0
    8.0541   -0.4432   18.5198 H   0  0  0  0  0  0  0  0  0  0  0  0
    6.5963    0.2088   19.9942 C   0  0  0  0  0  0  0  0  0  0  0  0
    7.1934   -0.4071   21.2614 C   0  0  1  0  0  0  0  0  0  0  0  0
    6.3122   -0.6980   21.8546 H   0  0  0  0  0  0  0  0  0  0  0  0
    8.0219   -1.6888   21.0719 C   0  0  0  0  0  0  0  0  0  0  0  0
    7.4846   -2.3901   20.4307 H   0  0  0  0  0  0  0  0  0  0  0  0
    8.0934   -2.1525   22.0641 H   0  0  0  0  0  0  0  0  0  0  0  0
    9.4637   -1.4598   20.6155 C   0  0  0  0  0  0  0  0  0  0  0  0
    9.4775   -1.0772   19.5808 H   0  0  0  0  0  0  0  0  0  0  0  0
    9.9972   -2.4161   20.6273 H   0  0  0  0  0  0  0  0  0  0  0  0
   10.1251   -0.5622   21.5573 N   0  0  0  0  0  0  0  0  0  0  0  0
   11.1040   -0.4462   21.3139 H   0  0  0  0  0  0  0  0  0  0  0  0
    9.4606    0.7390   21.6438 C   0  0  0  0  0  0  0  0  0  0  0  0
   10.0178    1.3775   22.3418 H   0  0  0  0  0  0  0  0  0  0  0  0
    9.4166    1.2682   20.6707 H   0  0  0  0  0  0  0  0  0  0  0  0
    8.0229    0.5727   22.1646 C   0  0  2  0  0  0  0  0  0  0  0  0
    7.5552    1.5619   22.1062 H   0  0  0  0  0  0  0  0  0  0  0  0
    7.9679    0.1221   23.6090 C   0  0  0  0  0  0  0  0  0  0  0  0
    8.7020   -0.8343   24.2537 C   0  0  0  0  0  0  0  0  0  0  0  0
    9.5668   -1.3756   23.8919 H   0  0  0  0  0  0  0  0  0  0  0  0
    8.1909   -1.0326   25.5235 N   0  0  0  0  0  0  0  0  0  0  0  0
    8.4542   -1.7639   26.1576 H   0  0  0  0  0  0  0  0  0  0  0  0
    7.1100   -0.2088   25.7121 C   0  0  0  0  0  0  0  0  0  0  0  0
    6.2727   -0.0251   26.8225 C   0  0  0  0  0  0  0  0  0  0  0  0
    6.4088   -0.6214   27.7195 H   0  0  0  0  0  0  0  0  0  0  0  0
    5.2731    0.9336   26.7286 C   0  0  0  0  0  0  0  0  0  0  0  0
    4.6255    1.1163   27.5808 H   0  0  0  0  0  0  0  0  0  0  0  0
    5.0837    1.6815   25.5389 C   0  0  0  0  0  0  0  0  0  0  0  0
    4.2927    2.4203   25.4920 H   0  0  0  0  0  0  0  0  0  0  0  0
    5.9051    1.4798   24.4408 C   0  0  0  0  0  0  0  0  0  0  0  0
    5.7631    2.0356   23.5173 H   0  0  0  0  0  0  0  0  0  0  0  0
    6.9441    0.5358   24.5243 C   0  0  0  0  0  0  0  0  0  0  0  0
    5.3542    0.8681   20.0962 C   0  0  0  0  0  0  0  0  0  0  0  0
    4.8485    0.9154   21.0647 H   0  0  0  0  0  0  0  0  0  0  0  0
    4.7652    1.4275   18.9627 C   0  0  0  0  0  0  0  0  0  0  0  0
    3.8041    1.9295   19.0092 H   0  0  0  0  0  0  0  0  0  0  0  0
  1  2  1  0
  2  3  2  0
  3  4  1  0
  4  5  1  0
  4  6  2  0
  6  7  1  0
  7  8  1  1
  7  9  1  0
  9 10  1  0
  9 11  1  0
  9 12  1  0
 12 13  1  0
 12 14  1  0
 12 15  1  0
 15 16  1  0
 15 17  1  0
 17 18  1  0
 17 19  1  0
 17 20  1  0
 20 21  1  1
 20 22  1  0
 22 23  2  0
 23 24  1  0
 23 25  1  0
 25 26  1  0
 25 27  1  0
 27 28  2  0
 28 29  1  0
 28 30  1  0
 30 31  1  0
 30 32  2  0
 32 33  1  0
 32 34  1  0
 34 35  1  0
 34 36  2  0
  6 37  1  0
 37 38  1  0
 37 39  2  0
 39 40  1  0
 39  2  1  0
 20  7  1  0
 36 22  1  0
 36 27  1  0
M  END
>  <plip>  (1) 
-0.03571428571428571

>  <filename>  (1) 
[H][c]1[n][c]([H])[c]([C@@]2([H])[C]([H])([H])[C]([H])([H])[N]([H])[C]([H])([H])[C@]2([H])[c]2[c]([H])[n]([H])[c]3[c]([H])[c]([H])[c]([H])[c]([H])[c]23)[c]([H])[c]1[H]

$$$$
