
     RDKit          3D

 29 30  0  0  0  0  0  0  0  0999 V2000
    4.9121    1.7835   16.9973 H   0  0  0  0  0  0  0  0  0  0  0  0
    5.4028    1.2928   17.8384 C   0  0  0  0  0  0  0  0  0  0  0  0
    6.5681    0.6779   17.5757 N   0  0  0  0  0  0  0  0  0  0  0  0
    7.1794    0.0607   18.5957 C   0  0  0  0  0  0  0  0  0  0  0  0
    8.1250   -0.4238   18.3597 H   0  0  0  0  0  0  0  0  0  0  0  0
    6.6833   -0.0127   19.9289 C   0  0  0  0  0  0  0  0  0  0  0  0
    7.3733   -0.6894   20.9316 N   0  0  0  0  0  0  0  0  0  0  0  0
    8.2105   -1.1812   20.6628 H   0  0  0  0  0  0  0  0  0  0  0  0
    7.0278   -0.6860   22.3223 C   0  0  2  0  0  0  0  0  0  0  0  0
    5.9862   -1.0075   22.3906 H   0  0  0  0  0  0  0  0  0  0  0  0
    7.0652    0.6541   22.9164 N   0  0  0  0  0  0  0  0  0  0  0  0
    8.0373    1.6034   22.7490 C   0  0  0  0  0  0  0  0  0  0  0  0
    9.2300    1.5081   21.8447 C   0  0  0  0  0  0  0  0  0  0  0  0
    9.9492    2.2858   22.1162 H   0  0  0  0  0  0  0  0  0  0  0  0
    9.7161    0.5336   21.9174 H   0  0  0  0  0  0  0  0  0  0  0  0
    8.9255    1.6678   20.8071 H   0  0  0  0  0  0  0  0  0  0  0  0
    7.8039    2.6562   23.4917 N   0  0  0  0  0  0  0  0  0  0  0  0
    6.6356    2.3998   24.1656 C   0  0  0  0  0  0  0  0  0  0  0  0
    6.1932    3.1107   24.8525 H   0  0  0  0  0  0  0  0  0  0  0  0
    6.1629    1.1652   23.8336 C   0  0  0  0  0  0  0  0  0  0  0  0
    5.2932    0.6115   24.1673 H   0  0  0  0  0  0  0  0  0  0  0  0
    7.8926   -1.6666   23.0962 C   0  0  0  0  0  0  0  0  0  0  0  0
    8.9434   -1.3668   23.0723 H   0  0  0  0  0  0  0  0  0  0  0  0
    7.7958   -2.6759   22.6882 H   0  0  0  0  0  0  0  0  0  0  0  0
    7.5679   -1.6930   24.1380 H   0  0  0  0  0  0  0  0  0  0  0  0
    5.4596    0.6382   20.1724 C   0  0  0  0  0  0  0  0  0  0  0  0
    5.0341    0.6287   21.1776 H   0  0  0  0  0  0  0  0  0  0  0  0
    4.8235    1.2987   19.1132 C   0  0  0  0  0  0  0  0  0  0  0  0
    3.8902    1.8301   19.2672 H   0  0  0  0  0  0  0  0  0  0  0  0
  1  2  1  0
  2  3  2  0
  3  4  1  0
  4  5  1  0
  4  6  2  0
  6  7  1  0
  7  8  1  0
  7  9  1  0
  9 10  1  6
  9 11  1  0
 11 12  1  0
 12 13  1  0
 13 14  1  0
 13 15  1  0
 13 16  1  0
 12 17  2  0
 17 18  1  0
 18 19  1  0
 18 20  2  0
 20 21  1  0
  9 22  1  0
 22 23  1  0
 22 24  1  0
 22 25  1  0
  6 26  1  0
 26 27  1  0
 26 28  2  0
 28 29  1  0
 28  2  1  0
 20 11  1  0
M  END
>  <plip>  (1) 
-0.03571428571428571

>  <filename>  (1) 
[H][c]1[n][c]([H])[c]([N]([H])[C@]([H])([n]2[c]([C]([H])([H])[H])[n][c]([H])[c]2[H])[C]([H])([H])[H])[c]([H])[c]1[H]

$$$$
