
     RDKit          3D

 33 34  0  0  0  0  0  0  0  0999 V2000
    5.4161   -1.9069   20.1885 H   0  0  0  0  0  0  0  0  0  0  0  0
    5.7178   -2.4473   20.9975 N   0  0  0  0  0  0  0  0  0  0  0  0
    6.7746   -1.8910   21.4274 C   0  0  0  0  0  0  0  0  0  0  0  0
    7.7319   -2.5286   22.7676 S   0  0  0  0  0  0  0  0  0  0  0  0
    8.9811   -1.3310   22.4895 C   0  0  0  0  0  0  0  0  0  0  0  0
    9.8917   -1.2618   23.0667 H   0  0  0  0  0  0  0  0  0  0  0  0
    8.6297   -0.4770   21.5133 C   0  0  0  0  0  0  0  0  0  0  0  0
    9.3056    0.6447   21.0860 N   0  0  0  0  0  0  0  0  0  0  0  0
    8.6142    1.3792   20.9738 H   0  0  0  0  0  0  0  0  0  0  0  0
   10.5273    1.0504   21.7919 C   0  0  0  0  0  0  0  0  0  0  0  0
   10.3968    0.9706   22.8856 H   0  0  0  0  0  0  0  0  0  0  0  0
   11.3467    0.3641   21.5227 H   0  0  0  0  0  0  0  0  0  0  0  0
   10.9025    2.4768   21.4032 C   0  0  0  0  0  0  0  0  0  0  0  0
   10.8925    2.5343   20.3139 H   0  0  0  0  0  0  0  0  0  0  0  0
   10.1118    3.1565   21.7525 H   0  0  0  0  0  0  0  0  0  0  0  0
   12.2850    2.9670   21.8684 C   0  0  0  0  0  0  0  0  0  0  0  0
   12.9893    2.1234   21.8253 H   0  0  0  0  0  0  0  0  0  0  0  0
   12.6417    3.7009   21.1327 H   0  0  0  0  0  0  0  0  0  0  0  0
   12.3483    3.6262   23.2462 C   0  0  0  0  0  0  0  0  0  0  0  0
   11.6730    4.4884   23.3053 H   0  0  0  0  0  0  0  0  0  0  0  0
   12.0953    2.9392   24.0621 H   0  0  0  0  0  0  0  0  0  0  0  0
   13.3573    4.0112   23.4277 H   0  0  0  0  0  0  0  0  0  0  0  0
    7.3937   -0.7347   20.9137 N   0  0  0  0  0  0  0  0  0  0  0  0
    6.7596    0.0339   19.8732 C   0  0  0  0  0  0  0  0  0  0  0  0
    7.2774    0.0989   18.5657 C   0  0  0  0  0  0  0  0  0  0  0  0
    8.2279   -0.3927   18.3584 H   0  0  0  0  0  0  0  0  0  0  0  0
    6.6502    0.7125   17.5517 N   0  0  0  0  0  0  0  0  0  0  0  0
    5.4794    1.3188   17.8159 C   0  0  0  0  0  0  0  0  0  0  0  0
    4.9897    1.7963   16.9701 H   0  0  0  0  0  0  0  0  0  0  0  0
    4.8900    1.3353   19.0851 C   0  0  0  0  0  0  0  0  0  0  0  0
    3.9376    1.8322   19.2391 H   0  0  0  0  0  0  0  0  0  0  0  0
    5.5468    0.6793   20.1358 C   0  0  0  0  0  0  0  0  0  0  0  0
    5.1431    0.6155   21.1457 H   0  0  0  0  0  0  0  0  0  0  0  0
  1  2  1  0
  2  3  2  3
  3  4  1  0
  4  5  1  0
  5  6  1  0
  5  7  2  0
  7  8  1  0
  8  9  1  0
  8 10  1  0
 10 11  1  0
 10 12  1  0
 10 13  1  0
 13 14  1  0
 13 15  1  0
 13 16  1  0
 16 17  1  0
 16 18  1  0
 16 19  1  0
 19 20  1  0
 19 21  1  0
 19 22  1  0
  7 23  1  0
 23 24  1  0
 24 25  2  0
 25 26  1  0
 25 27  1  0
 27 28  2  0
 28 29  1  0
 28 30  1  0
 30 31  1  0
 30 32  2  0
 32 33  1  0
 23  3  1  0
 32 24  1  0
M  END
>  <plip>  (1) 
-0.14285714285714285

>  <filename>  (1) 
[H][N]=[c]1[s][c]([H])[c]([N]([H])[C]([H])([H])[C]([H])([H])[C]([H])([H])[C]([H])([H])[H])[n]1-[c]1[c]([H])[n][c]([H])[c]([H])[c]1[H]

$$$$
