
     RDKit          3D

 40 41  0  0  0  0  0  0  0  0999 V2000
    7.4718   -2.9334   22.2713 C   0  0  0  0  0  0  0  0  0  0  0  0
    6.7422   -2.0339   21.2746 C   0  0  0  0  0  0  0  0  0  0  0  0
    7.4135   -0.6861   21.0176 C   0  0  0  0  0  0  0  0  0  0  0  0
    7.4159    0.0615   22.2582 O   0  0  0  0  0  0  0  0  0  0  0  0
    8.1584    1.2000   22.2982 C   0  0  0  0  0  0  0  0  0  0  0  0
    8.8852    1.5296   21.3878 O   0  0  0  0  0  0  0  0  0  0  0  0
    7.9696    1.9633   23.5926 C   0  0  0  0  0  0  0  0  0  0  0  0
    6.7504    1.8731   24.2845 C   0  0  0  0  0  0  0  0  0  0  0  0
    6.5264    2.6091   25.4454 C   0  0  0  0  0  0  0  0  0  0  0  0
    7.5060    3.4763   25.9137 C   0  0  0  0  0  0  0  0  0  0  0  0
    8.7072    3.6396   25.2028 C   0  0  0  0  0  0  0  0  0  0  0  0
    9.6104    4.7345   25.7096 C   0  0  0  0  0  0  0  0  0  0  0  0
    9.5773    5.1551   26.8496 O   0  0  0  0  0  0  0  0  0  0  0  0
   10.5365    5.2968   24.8518 N   0  0  0  0  0  0  0  0  0  0  0  0
   10.1975    5.4948   23.9210 H   0  0  0  0  0  0  0  0  0  0  0  0
   10.8904    6.1039   25.3457 H   0  0  0  0  0  0  0  0  0  0  0  0
    9.0016    2.7961   24.0988 C   0  0  0  0  0  0  0  0  0  0  0  0
   10.3920    2.7426   23.5021 C   0  0  0  0  0  0  0  0  0  0  0  0
   10.6336    1.7358   23.1553 H   0  0  0  0  0  0  0  0  0  0  0  0
   11.1539    3.0476   24.2237 H   0  0  0  0  0  0  0  0  0  0  0  0
   10.4563    3.3886   22.6217 H   0  0  0  0  0  0  0  0  0  0  0  0
    7.3522    4.0436   26.8314 H   0  0  0  0  0  0  0  0  0  0  0  0
    5.5852    2.5096   25.9769 H   0  0  0  0  0  0  0  0  0  0  0  0
    5.9813    1.1999   23.9152 H   0  0  0  0  0  0  0  0  0  0  0  0
    6.6802    0.0756   19.9261 C   0  0  0  0  0  0  0  0  0  0  0  0
    5.4420    0.6980   20.1493 C   0  0  0  0  0  0  0  0  0  0  0  0
    4.7975    1.3274   19.0835 C   0  0  0  0  0  0  0  0  0  0  0  0
    5.4046    1.2931   17.8220 C   0  0  0  0  0  0  0  0  0  0  0  0
    6.5680    0.6742   17.5758 N   0  0  0  0  0  0  0  0  0  0  0  0
    7.1806    0.0935   18.6192 C   0  0  0  0  0  0  0  0  0  0  0  0
    8.1297   -0.3935   18.3900 H   0  0  0  0  0  0  0  0  0  0  0  0
    4.9332    1.7811   16.9714 H   0  0  0  0  0  0  0  0  0  0  0  0
    3.8516    1.8438   19.2170 H   0  0  0  0  0  0  0  0  0  0  0  0
    4.9927    0.6863   21.1443 H   0  0  0  0  0  0  0  0  0  0  0  0
    8.4548   -0.8525   20.7078 H   0  0  0  0  0  0  0  0  0  0  0  0
    6.6614   -2.5429   20.3047 H   0  0  0  0  0  0  0  0  0  0  0  0
    5.7144   -1.8442   21.6079 H   0  0  0  0  0  0  0  0  0  0  0  0
    7.5291   -2.4690   23.2600 H   0  0  0  0  0  0  0  0  0  0  0  0
    6.9566   -3.8927   22.3810 H   0  0  0  0  0  0  0  0  0  0  0  0
    8.4958   -3.1406   21.9409 H   0  0  0  0  0  0  0  0  0  0  0  0
  1  2  1  0
  2  3  1  0
  3  4  1  0
  4  5  1  0
  5  6  2  0
  5  7  1  0
  7  8  2  0
  8  9  1  0
  9 10  2  0
 10 11  1  0
 11 12  1  0
 12 13  2  0
 12 14  1  0
 14 15  1  0
 14 16  1  0
 11 17  2  0
 17 18  1  0
 18 19  1  0
 18 20  1  0
 18 21  1  0
 10 22  1  0
  9 23  1  0
  8 24  1  0
  3 25  1  0
 25 26  2  0
 26 27  1  0
 27 28  2  0
 28 29  1  0
 29 30  2  0
 30 31  1  0
 28 32  1  0
 27 33  1  0
 26 34  1  0
  3 35  1  0
  2 36  1  0
  2 37  1  0
  1 38  1  0
  1 39  1  0
  1 40  1  0
 17  7  1  0
 30 25  1  0
M  END
>  <plip>  (1) 
-0.14285714285714285

>  <filename>  (1) 
[H][c]1[n][c]([H])[c]([C]([H])([O][C](=[O])[c]2[c]([H])[c]([H])[c]([H])[c]([C](=[O])[N]([H])[H])[c]2[C]([H])([H])[H])[C]([H])([H])[C]([H])([H])[H])[c]([H])[c]1[H]

$$$$
