
     RDKit          3D

 38 39  0  0  0  0  0  0  0  0999 V2000
    7.3930    1.5583   24.7523 C   0  0  0  0  0  0  0  0  0  0  0  0
    7.5753    2.1862   23.3952 C   0  0  0  0  0  0  0  0  0  0  0  0
    7.6802    1.4447   22.2774 C   0  0  0  0  0  0  0  0  0  0  0  0
    7.6836   -0.0374   22.2184 C   0  0  0  0  0  0  0  0  0  0  0  0
    7.9791   -0.7500   23.1662 O   0  0  0  0  0  0  0  0  0  0  0  0
    7.3848   -0.6091   20.9798 N   0  0  0  0  0  0  0  0  0  0  0  0
    7.7570   -2.0120   20.7809 C   0  0  0  0  0  0  0  0  0  0  0  0
    8.8401   -2.1211   20.6157 H   0  0  0  0  0  0  0  0  0  0  0  0
    7.1852   -2.3518   19.9197 H   0  0  0  0  0  0  0  0  0  0  0  0
    7.4918   -2.6406   21.6401 H   0  0  0  0  0  0  0  0  0  0  0  0
    6.6744    0.0520   19.9217 C   0  0  0  0  0  0  0  0  0  0  0  0
    5.4372    0.6625   20.1566 C   0  0  0  0  0  0  0  0  0  0  0  0
    4.8008    1.3072   19.0925 C   0  0  0  0  0  0  0  0  0  0  0  0
    5.3944    1.2949   17.8268 C   0  0  0  0  0  0  0  0  0  0  0  0
    6.5582    0.6766   17.5726 N   0  0  0  0  0  0  0  0  0  0  0  0
    7.1695    0.0675   18.5974 C   0  0  0  0  0  0  0  0  0  0  0  0
    8.1151   -0.4263   18.3726 H   0  0  0  0  0  0  0  0  0  0  0  0
    4.9215    1.7936   16.9839 H   0  0  0  0  0  0  0  0  0  0  0  0
    3.8729    1.8381   19.2452 H   0  0  0  0  0  0  0  0  0  0  0  0
    5.0127    0.6330   21.1627 H   0  0  0  0  0  0  0  0  0  0  0  0
    7.7294    1.9294   21.3090 H   0  0  0  0  0  0  0  0  0  0  0  0
    7.6149    3.6766   23.2872 C   0  0  0  0  0  0  0  0  0  0  0  0
    8.6336    4.3297   22.5697 C   0  0  0  0  0  0  0  0  0  0  0  0
    8.6617    5.7239   22.4838 C   0  0  0  0  0  0  0  0  0  0  0  0
    7.6725    6.4890   23.1114 C   0  0  0  0  0  0  0  0  0  0  0  0
    6.6559    5.8556   23.8467 C   0  0  0  0  0  0  0  0  0  0  0  0
    5.5512    6.6698   24.4912 C   0  0  0  0  0  0  0  0  0  0  0  0
    5.0813    6.0823   25.6120 F   0  0  0  0  0  0  0  0  0  0  0  0
    5.9685    7.9068   24.8326 F   0  0  0  0  0  0  0  0  0  0  0  0
    4.5024    6.8208   23.6562 F   0  0  0  0  0  0  0  0  0  0  0  0
    6.6332    4.4547   23.9261 C   0  0  0  0  0  0  0  0  0  0  0  0
    5.8439    3.9375   24.4685 H   0  0  0  0  0  0  0  0  0  0  0  0
    7.6899    7.5737   23.0227 H   0  0  0  0  0  0  0  0  0  0  0  0
    9.4434    6.2126   21.9077 H   0  0  0  0  0  0  0  0  0  0  0  0
    9.4044    3.7267   22.0985 H   0  0  0  0  0  0  0  0  0  0  0  0
    8.2585    0.9384   25.0148 H   0  0  0  0  0  0  0  0  0  0  0  0
    6.5394    0.8712   24.7501 H   0  0  0  0  0  0  0  0  0  0  0  0
    7.2479    2.3260   25.5187 H   0  0  0  0  0  0  0  0  0  0  0  0
  1  2  1  0
  2  3  2  3
  3  4  1  0
  4  5  2  0
  4  6  1  0
  6  7  1  0
  7  8  1  0
  7  9  1  0
  7 10  1  0
  6 11  1  0
 11 12  2  0
 12 13  1  0
 13 14  2  0
 14 15  1  0
 15 16  2  0
 16 17  1  0
 14 18  1  0
 13 19  1  0
 12 20  1  0
  3 21  1  0
  2 22  1  0
 22 23  2  0
 23 24  1  0
 24 25  2  0
 25 26  1  0
 26 27  1  0
 27 28  1  0
 27 29  1  0
 27 30  1  0
 26 31  2  0
 31 32  1  0
 25 33  1  0
 24 34  1  0
 23 35  1  0
  1 36  1  0
  1 37  1  0
  1 38  1  0
 16 11  1  0
 31 22  1  0
M  END
>  <plip>  (1) 
-0.0

>  <filename>  (1) 
[H][C]([C](=[O])[N]([c]1[c]([H])[n][c]([H])[c]([H])[c]1[H])[C]([H])([H])[H])=[C]([c]1[c]([H])[c]([H])[c]([H])[c]([C]([F])([F])[F])[c]1[H])[C]([H])([H])[H]

$$$$
