
     RDKit          3D

 36 38  0  0  0  0  0  0  0  0999 V2000
    8.5367   -6.4563   24.1338 F   0  0  0  0  0  0  0  0  0  0  0  0
    8.8820   -6.0182   25.3473 C   0  0  0  0  0  0  0  0  0  0  0  0
   10.1011   -6.5091   25.6359 F   0  0  0  0  0  0  0  0  0  0  0  0
    8.0328   -6.5456   26.2537 F   0  0  0  0  0  0  0  0  0  0  0  0
    8.8757   -4.5087   25.4515 C   0  0  0  0  0  0  0  0  0  0  0  0
    9.1476   -3.9381   26.6979 C   0  0  0  0  0  0  0  0  0  0  0  0
    9.1794   -2.6015   26.8447 N   0  0  0  0  0  0  0  0  0  0  0  0
    8.9190   -1.8444   25.7717 C   0  0  0  0  0  0  0  0  0  0  0  0
    8.6172   -2.4310   24.4786 C   0  0  0  0  0  0  0  0  0  0  0  0
    8.3363   -1.7434   23.2949 N   0  0  0  0  0  0  0  0  0  0  0  0
    7.5874   -0.4692   23.3723 C   0  0  0  0  0  0  0  0  0  0  0  0
    7.5975    0.2745   22.0325 C   0  0  0  0  0  0  0  0  0  0  0  0
    6.9647   -0.5644   21.0001 N   0  0  0  0  0  0  0  0  0  0  0  0
    6.4813    0.0973   19.8446 C   0  0  0  0  0  0  0  0  0  0  0  0
    5.3229    0.8801   19.9966 C   0  0  0  0  0  0  0  0  0  0  0  0
    4.7901    1.5398   18.8878 C   0  0  0  0  0  0  0  0  0  0  0  0
    5.4386    1.4108   17.6522 C   0  0  0  0  0  0  0  0  0  0  0  0
    6.5549    0.6828   17.4779 N   0  0  0  0  0  0  0  0  0  0  0  0
    7.0611    0.0494   18.5496 C   0  0  0  0  0  0  0  0  0  0  0  0
    7.9784   -0.5181   18.3876 H   0  0  0  0  0  0  0  0  0  0  0  0
    5.0516    1.9244   16.7757 H   0  0  0  0  0  0  0  0  0  0  0  0
    3.9109    2.1693   18.9856 H   0  0  0  0  0  0  0  0  0  0  0  0
    4.8800    0.9229   20.9913 H   0  0  0  0  0  0  0  0  0  0  0  0
    7.7155   -1.8054   20.8377 C   0  0  0  0  0  0  0  0  0  0  0  0
    7.8439   -2.5715   22.1556 C   0  0  0  0  0  0  0  0  0  0  0  0
    8.5402   -3.3991   21.9929 H   0  0  0  0  0  0  0  0  0  0  0  0
    6.8713   -3.0216   22.4113 H   0  0  0  0  0  0  0  0  0  0  0  0
    8.7308   -1.6363   20.4286 H   0  0  0  0  0  0  0  0  0  0  0  0
    7.1579   -2.4406   20.1415 H   0  0  0  0  0  0  0  0  0  0  0  0
    7.0373    1.2106   22.1404 H   0  0  0  0  0  0  0  0  0  0  0  0
    8.6353    0.5309   21.7554 H   0  0  0  0  0  0  0  0  0  0  0  0
    8.0128    0.1743   24.1449 H   0  0  0  0  0  0  0  0  0  0  0  0
    6.5332   -0.6538   23.6322 H   0  0  0  0  0  0  0  0  0  0  0  0
    8.6351   -3.7661   24.3589 N   0  0  0  0  0  0  0  0  0  0  0  0
    8.9897   -0.7690   25.9143 H   0  0  0  0  0  0  0  0  0  0  0  0
    9.3362   -4.5367   27.5824 H   0  0  0  0  0  0  0  0  0  0  0  0
  1  2  1  0
  2  3  1  0
  2  4  1  0
  2  5  1  0
  5  6  2  0
  6  7  1  0
  7  8  2  0
  8  9  1  0
  9 10  1  0
 10 11  1  0
 11 12  1  0
 12 13  1  0
 13 14  1  0
 14 15  2  0
 15 16  1  0
 16 17  2  0
 17 18  1  0
 18 19  2  0
 19 20  1  0
 17 21  1  0
 16 22  1  0
 15 23  1  0
 13 24  1  0
 24 25  1  0
 25 26  1  0
 25 27  1  0
 24 28  1  0
 24 29  1  0
 12 30  1  0
 12 31  1  0
 11 32  1  0
 11 33  1  0
  9 34  2  0
  8 35  1  0
  6 36  1  0
 34  5  1  0
 25 10  1  0
 19 14  1  0
M  END
>  <plip>  (1) 
-0.034482758620689655

>  <filename>  (1) 
[H][c]1[n][c]([H])[c]([C]([F])([F])[F])[n][c]1[N]1[C]([H])([H])[C]([H])([H])[N]([c]2[c]([H])[n][c]([H])[c]([H])[c]2[H])[C]([H])([H])[C]1([H])[H]

$$$$
