
     RDKit          3D

 36 38  0  0  0  0  0  0  0  0999 V2000
    5.2236   -2.1271   25.1899 O   0  0  0  0  0  0  0  0  0  0  0  0
    6.4233   -1.3483   25.2843 C   0  0  0  0  0  0  0  0  0  0  0  0
    7.7507   -2.0769   25.0132 C   0  0  0  0  0  0  0  0  0  0  0  0
    8.4039   -2.8228   25.9966 C   0  0  0  0  0  0  0  0  0  0  0  0
    9.6250   -3.4303   25.6853 C   0  0  0  0  0  0  0  0  0  0  0  0
   10.1330   -3.2822   24.4087 C   0  0  0  0  0  0  0  0  0  0  0  0
   11.6710   -3.9703   24.0373 Cl  0  0  0  0  0  0  0  0  0  0  0  0
    9.3859   -2.5577   23.4405 C   0  0  0  0  0  0  0  0  0  0  0  0
    9.7670   -2.4856   22.1399 N   0  0  0  0  0  0  0  0  0  0  0  0
    9.0402   -1.7986   21.1003 C   0  0  0  0  0  0  0  0  0  0  0  0
    8.8149   -0.2841   21.2834 C   0  0  0  0  0  0  0  0  0  0  0  0
    7.2751   -0.4824   21.1547 C   0  0  0  0  0  0  0  0  0  0  0  0
    6.5590    0.1700   20.0061 C   0  0  0  0  0  0  0  0  0  0  0  0
    5.3200    0.8141   20.1482 C   0  0  0  0  0  0  0  0  0  0  0  0
    4.7328    1.3971   19.0213 C   0  0  0  0  0  0  0  0  0  0  0  0
    5.3998    1.3289   17.7944 C   0  0  0  0  0  0  0  0  0  0  0  0
    6.5701    0.6962   17.6278 N   0  0  0  0  0  0  0  0  0  0  0  0
    7.1145    0.1329   18.7142 C   0  0  0  0  0  0  0  0  0  0  0  0
    8.0549   -0.3963   18.5512 H   0  0  0  0  0  0  0  0  0  0  0  0
    4.9695    1.7921   16.9070 H   0  0  0  0  0  0  0  0  0  0  0  0
    3.7794    1.9087   19.0823 H   0  0  0  0  0  0  0  0  0  0  0  0
    4.8185    0.8618   21.1170 H   0  0  0  0  0  0  0  0  0  0  0  0
    7.5105   -2.0134   21.0146 C   0  0  0  0  0  0  0  0  0  0  0  0
    7.1105   -2.5927   21.8459 H   0  0  0  0  0  0  0  0  0  0  0  0
    7.1541   -2.4231   20.0684 H   0  0  0  0  0  0  0  0  0  0  0  0
    6.7834   -0.2408   22.1073 H   0  0  0  0  0  0  0  0  0  0  0  0
    9.1106    0.0312   22.2816 H   0  0  0  0  0  0  0  0  0  0  0  0
    9.3083    0.3520   20.5398 H   0  0  0  0  0  0  0  0  0  0  0  0
    9.5326   -2.0256   20.1488 H   0  0  0  0  0  0  0  0  0  0  0  0
   10.6680   -2.8858   21.9472 H   0  0  0  0  0  0  0  0  0  0  0  0
    8.2542   -1.9352   23.7791 N   0  0  0  0  0  0  0  0  0  0  0  0
   10.1743   -4.0171   26.4226 H   0  0  0  0  0  0  0  0  0  0  0  0
    7.9615   -2.9332   26.9768 H   0  0  0  0  0  0  0  0  0  0  0  0
    6.3914   -0.4870   24.5974 H   0  0  0  0  0  0  0  0  0  0  0  0
    6.4372   -0.9833   26.3184 H   0  0  0  0  0  0  0  0  0  0  0  0
    5.0106   -2.2380   24.2511 H   0  0  0  0  0  0  0  0  0  0  0  0
  1  2  1  0
  2  3  1  0
  3  4  2  0
  4  5  1  0
  5  6  2  0
  6  7  1  0
  6  8  1  0
  8  9  1  0
  9 10  1  0
 10 11  1  0
 11 12  1  0
 12 13  1  0
 13 14  2  0
 14 15  1  0
 15 16  2  0
 16 17  1  0
 17 18  2  0
 18 19  1  0
 16 20  1  0
 15 21  1  0
 14 22  1  0
 12 23  1  0
 23 24  1  0
 23 25  1  0
 12 26  1  0
 11 27  1  0
 11 28  1  0
 10 29  1  0
  9 30  1  0
  8 31  2  0
  5 32  1  0
  4 33  1  0
  2 34  1  0
  2 35  1  0
  1 36  1  0
 31  3  1  0
 23 10  1  0
 18 13  1  0
M  END
>  <plip>  (1) 
-0.06896551724137931

>  <filename>  (1) 
[H][O][C]([H])([H])[c]1[n][c]([N]([H])[C]2([H])[C]([H])([H])[C]([H])([c]3[c]([H])[n][c]([H])[c]([H])[c]3[H])[C]2([H])[H])[c]([Cl])[c]([H])[c]1[H]

$$$$
