
     RDKit          3D

 36 36  0  0  0  0  0  0  0  0999 V2000
    8.8768   -0.9939   20.8418 C   0  0  0  0  0  0  0  0  0  0  0  0
    7.3894   -0.7392   21.1384 C   0  0  0  0  0  0  0  0  0  0  0  0
    6.7335   -2.0827   21.1865 N   0  0  0  0  0  0  0  0  0  0  0  0
    7.1456   -3.4935   21.9335 S   0  0  0  0  0  0  0  0  0  0  0  0
    8.2559   -4.1506   21.2781 O   0  0  0  0  0  0  0  0  0  0  0  0
    5.8229   -4.0814   22.0353 O   0  0  0  0  0  0  0  0  0  0  0  0
    7.6558   -2.8918   23.5252 C   0  0  0  0  0  0  0  0  0  0  0  0
    8.2370   -3.9474   24.4813 C   0  0  0  0  0  0  0  0  0  0  0  0
    8.7410   -3.3445   25.8017 C   0  0  0  0  0  0  0  0  0  0  0  0
    7.6537   -2.6939   26.6460 C   0  0  0  0  0  0  0  0  0  0  0  0
    8.2372   -1.8287   27.5579 F   0  0  0  0  0  0  0  0  0  0  0  0
    6.9552   -2.1128   26.0308 H   0  0  0  0  0  0  0  0  0  0  0  0
    7.0688   -3.4325   27.2057 H   0  0  0  0  0  0  0  0  0  0  0  0
    9.2365   -4.1240   26.3987 H   0  0  0  0  0  0  0  0  0  0  0  0
    9.5031   -2.5769   25.6010 H   0  0  0  0  0  0  0  0  0  0  0  0
    7.4912   -4.7335   24.6757 H   0  0  0  0  0  0  0  0  0  0  0  0
    9.0794   -4.4399   23.9839 H   0  0  0  0  0  0  0  0  0  0  0  0
    8.3812   -2.1096   23.2846 H   0  0  0  0  0  0  0  0  0  0  0  0
    6.7508   -2.3998   23.8941 H   0  0  0  0  0  0  0  0  0  0  0  0
    5.7260   -2.1691   21.2358 H   0  0  0  0  0  0  0  0  0  0  0  0
    7.4630    0.6837   22.5252 C   0  0  0  0  0  0  0  0  0  0  0  0
    6.5327    0.6926   23.3225 O   0  0  0  0  0  0  0  0  0  0  0  0
    8.4561    1.3765   22.3580 O   0  0  0  0  0  1  0  0  0  0  0  0
    6.6566   -0.0527   20.0162 C   0  0  0  0  0  0  0  0  0  0  0  0
    5.4571    0.6405   20.2470 C   0  0  0  0  0  0  0  0  0  0  0  0
    4.8344    1.2718   19.1671 C   0  0  0  0  0  0  0  0  0  0  0  0
    5.4289    1.1869   17.9022 C   0  0  0  0  0  0  0  0  0  0  0  0
    6.5402    0.4839   17.6488 N   0  0  0  0  0  0  0  0  0  0  0  0
    7.1164   -0.1334   18.6866 C   0  0  0  0  0  0  0  0  0  0  0  0
    8.0171   -0.6957   18.4435 H   0  0  0  0  0  0  0  0  0  0  0  0
    4.9895    1.6962   17.0489 H   0  0  0  0  0  0  0  0  0  0  0  0
    3.9125    1.8301   19.2895 H   0  0  0  0  0  0  0  0  0  0  0  0
    5.0417    0.6757   21.2598 H   0  0  0  0  0  0  0  0  0  0  0  0
    8.9409   -1.7333   20.0432 H   0  0  0  0  0  0  0  0  0  0  0  0
    9.3851   -0.0761   20.5401 H   0  0  0  0  0  0  0  0  0  0  0  0
    9.4339   -1.4056   21.6855 H   0  0  0  0  0  0  0  0  0  0  0  0
  1  2  1  0
  2  3  1  0
  3  4  1  0
  4  5  2  0
  4  6  2  0
  4  7  1  0
  7  8  1  0
  8  9  1  0
  9 10  1  0
 10 11  1  0
 10 12  1  0
 10 13  1  0
  9 14  1  0
  9 15  1  0
  8 16  1  0
  8 17  1  0
  7 18  1  0
  7 19  1  0
  3 20  1  0
  2 21  1  0
 21 22  2  0
 21 23  1  0
  2 24  1  0
 24 25  2  0
 25 26  1  0
 26 27  2  0
 27 28  1  0
 28 29  2  0
 29 30  1  0
 27 31  1  0
 26 32  1  0
 25 33  1  0
  1 34  1  0
  1 35  1  0
  1 36  1  0
 29 24  1  0
M  CHG  1  23  -1
M  END
>  <plip>  (1) 
-0.13793103448275862

>  <filename>  (1) 
[H][c]1[n][c]([H])[c]([C]([C](=[O])[O-])([N]([H])[S](=[O])(=[O])[C]([H])([H])[C]([H])([H])[C]([H])([H])[C]([H])([H])[F])[C]([H])([H])[H])[c]([H])[c]1[H]

$$$$
