
     RDKit          3D

 27 28  0  0  0  0  0  0  0  0999 V2000
    4.9218    1.7842   16.9893 H   0  0  0  0  0  0  0  0  0  0  0  0
    5.4030    1.2906   17.8312 C   0  0  0  0  0  0  0  0  0  0  0  0
    6.5605    0.6717   17.5735 N   0  0  0  0  0  0  0  0  0  0  0  0
    7.1678    0.0618   18.6022 C   0  0  0  0  0  0  0  0  0  0  0  0
    8.1124   -0.4148   18.3588 H   0  0  0  0  0  0  0  0  0  0  0  0
    6.6679    0.0151   19.9108 C   0  0  0  0  0  0  0  0  0  0  0  0
    7.3434   -0.7682   21.0513 C   0  0  0  0  0  0  0  0  0  0  0  0
    7.2875    0.0555   22.3057 N   0  0  0  0  0  0  0  0  0  0  0  0
    6.8049   -0.4079   23.4778 N   0  0  0  0  0  0  0  0  0  0  0  0
    6.9524    0.5865   24.3365 C   0  0  0  0  0  0  0  0  0  0  0  0
    6.6335    0.4418   25.3635 H   0  0  0  0  0  0  0  0  0  0  0  0
    7.5485    1.7136   23.7300 C   0  0  0  0  0  0  0  0  0  0  0  0
    7.7904    2.6609   24.1963 H   0  0  0  0  0  0  0  0  0  0  0  0
    7.7539    1.3295   22.4256 C   0  0  0  0  0  0  0  0  0  0  0  0
    8.1580    1.8666   21.5714 H   0  0  0  0  0  0  0  0  0  0  0  0
    8.8295   -1.0702   20.7758 C   0  0  0  0  0  0  0  0  0  0  0  0
    8.9458   -1.7936   19.9684 H   0  0  0  0  0  0  0  0  0  0  0  0
    9.2940   -1.5018   21.6668 H   0  0  0  0  0  0  0  0  0  0  0  0
    9.3803   -0.1687   20.4922 H   0  0  0  0  0  0  0  0  0  0  0  0
    6.5830   -2.0975   21.2151 C   0  0  0  0  0  0  0  0  0  0  0  0
    7.0304   -2.7094   22.0022 H   0  0  0  0  0  0  0  0  0  0  0  0
    5.5362   -1.9157   21.4731 H   0  0  0  0  0  0  0  0  0  0  0  0
    6.6029   -2.6571   20.2740 H   0  0  0  0  0  0  0  0  0  0  0  0
    5.4380    0.6503   20.1500 C   0  0  0  0  0  0  0  0  0  0  0  0
    5.0125    0.6403   21.1570 H   0  0  0  0  0  0  0  0  0  0  0  0
    4.8045    1.3086   19.0974 C   0  0  0  0  0  0  0  0  0  0  0  0
    3.8741    1.8422   19.2519 H   0  0  0  0  0  0  0  0  0  0  0  0
  1  2  1  0
  2  3  2  0
  3  4  1  0
  4  5  1  0
  4  6  2  0
  6  7  1  0
  7  8  1  0
  8  9  1  0
  9 10  2  0
 10 11  1  0
 10 12  1  0
 12 13  1  0
 12 14  2  0
 14 15  1  0
  7 16  1  0
 16 17  1  0
 16 18  1  0
 16 19  1  0
  7 20  1  0
 20 21  1  0
 20 22  1  0
 20 23  1  0
  6 24  1  0
 24 25  1  0
 24 26  2  0
 26 27  1  0
 26  2  1  0
 14  8  1  0
M  END
>  <plip>  (1) 
-0.03571428571428571

>  <filename>  (1) 
[H][c]1[n][c]([H])[c]([C]([n]2[n][c]([H])[c]([H])[c]2[H])([C]([H])([H])[H])[C]([H])([H])[H])[c]([H])[c]1[H]

$$$$
