
     RDKit          3D

 27 28  0  0  0  0  0  0  0  0999 V2000
    5.0320    1.7252   16.9338 H   0  0  0  0  0  0  0  0  0  0  0  0
    5.5488    1.2752   17.7789 C   0  0  0  0  0  0  0  0  0  0  0  0
    6.7223    0.6786   17.5168 N   0  0  0  0  0  0  0  0  0  0  0  0
    7.4022    0.1443   18.5439 C   0  0  0  0  0  0  0  0  0  0  0  0
    8.3608   -0.3056   18.2930 H   0  0  0  0  0  0  0  0  0  0  0  0
    6.9328    0.1395   19.8775 C   0  0  0  0  0  0  0  0  0  0  0  0
    7.5764   -0.5635   20.9589 N   0  0  0  0  0  0  0  0  0  0  0  0
    8.8500   -0.3424   21.4667 C   0  0  0  0  0  0  0  0  0  0  0  0
    9.3477   -1.0301   22.3312 O   0  0  0  0  0  0  0  0  0  0  0  0
    9.4696    0.7266   20.8680 O   0  0  0  0  0  0  0  0  0  0  0  0
   10.5737    1.2874   21.4956 C   0  0  0  0  0  0  0  0  0  0  0  0
   11.2302    1.0628   22.6717 C   0  0  0  0  0  0  0  0  0  0  0  0
   11.0322    0.2416   23.3367 H   0  0  0  0  0  0  0  0  0  0  0  0
   12.2371    2.0712   22.7760 C   0  0  0  0  0  0  0  0  0  0  0  0
   12.9302    2.2151   23.5984 H   0  0  0  0  0  0  0  0  0  0  0  0
   12.1633    2.8481   21.6527 C   0  0  0  0  0  0  0  0  0  0  0  0
   12.7544    3.6975   21.3344 H   0  0  0  0  0  0  0  0  0  0  0  0
   11.1431    2.3505   20.8641 N   0  0  0  0  0  0  0  0  0  0  0  0
   10.7733    2.7849   20.0409 H   0  0  0  0  0  0  0  0  0  0  0  0
    6.7570   -1.5467   21.6927 C   0  0  0  0  0  0  0  0  0  0  0  0
    5.8789   -1.7977   21.0938 H   0  0  0  0  0  0  0  0  0  0  0  0
    7.3294   -2.4589   21.8771 H   0  0  0  0  0  0  0  0  0  0  0  0
    6.4259   -1.1605   22.6658 H   0  0  0  0  0  0  0  0  0  0  0  0
    5.7032    0.7657   20.1222 C   0  0  0  0  0  0  0  0  0  0  0  0
    5.3107    0.7769   21.1382 H   0  0  0  0  0  0  0  0  0  0  0  0
    5.0038    1.3435   19.0613 C   0  0  0  0  0  0  0  0  0  0  0  0
    4.0601    1.8483   19.2198 H   0  0  0  0  0  0  0  0  0  0  0  0
  1  2  1  0
  2  3  2  0
  3  4  1  0
  4  5  1  0
  4  6  2  0
  6  7  1  0
  7  8  1  0
  8  9  2  0
  8 10  1  0
 10 11  1  0
 11 12  2  0
 12 13  1  0
 12 14  1  0
 14 15  1  0
 14 16  2  0
 16 17  1  0
 16 18  1  0
 18 19  1  0
  7 20  1  0
 20 21  1  0
 20 22  1  0
 20 23  1  0
  6 24  1  0
 24 25  1  0
 24 26  2  0
 26 27  1  0
 26  2  1  0
 18 11  1  0
M  END
>  <plip>  (1) 
-0.10714285714285714

>  <filename>  (1) 
[H][c]1[n][c]([H])[c]([N]([C](=[O])[O][c]2[c]([H])[c]([H])[c]([H])[n]2[H])[C]([H])([H])[H])[c]([H])[c]1[H]

$$$$
