
     RDKit          3D

 33 35  0  0  0  0  0  0  0  0999 V2000
    4.9196    1.7902   16.9892 H   0  0  0  0  0  0  0  0  0  0  0  0
    5.3961    1.2998   17.8344 C   0  0  0  0  0  0  0  0  0  0  0  0
    6.5547    0.6793   17.5672 N   0  0  0  0  0  0  0  0  0  0  0  0
    7.1574    0.0666   18.5915 C   0  0  0  0  0  0  0  0  0  0  0  0
    8.1025   -0.4197   18.3627 H   0  0  0  0  0  0  0  0  0  0  0  0
    6.6434    0.0089   19.8965 C   0  0  0  0  0  0  0  0  0  0  0  0
    7.4150   -0.7068   20.9804 C   0  0  0  0  0  0  0  0  0  0  0  0
    7.5399   -1.7694   20.7547 H   0  0  0  0  0  0  0  0  0  0  0  0
    6.8843   -0.6313   21.9323 H   0  0  0  0  0  0  0  0  0  0  0  0
    8.7610   -0.1840   21.1739 N   0  0  0  0  0  0  0  0  0  0  0  0
    9.8387   -0.9579   20.9225 N   0  0  0  0  0  0  0  0  0  0  0  0
   10.8709   -0.1422   21.0488 C   0  0  0  0  0  0  0  0  0  0  0  0
   11.8581   -0.5319   20.8359 H   0  0  0  0  0  0  0  0  0  0  0  0
   10.4815    1.1821   21.3322 C   0  0  0  0  0  0  0  0  0  0  0  0
   11.0928    2.0619   21.4869 H   0  0  0  0  0  0  0  0  0  0  0  0
    9.1137    1.1140   21.4227 C   0  0  0  0  0  0  0  0  0  0  0  0
    8.2065    2.1298   21.6768 N   0  0  0  0  0  0  0  0  0  0  0  0
    8.4051    3.0082   21.2319 H   0  0  0  0  0  0  0  0  0  0  0  0
    7.2173    2.1707   22.6601 C   0  0  0  0  0  0  0  0  0  0  0  0
    7.2493    1.3058   23.7612 C   0  0  0  0  0  0  0  0  0  0  0  0
    8.0870    0.6204   23.8358 H   0  0  0  0  0  0  0  0  0  0  0  0
    6.2204    1.3156   24.7074 C   0  0  0  0  0  0  0  0  0  0  0  0
    6.2257    0.6471   25.5611 H   0  0  0  0  0  0  0  0  0  0  0  0
    5.1697    2.2131   24.5449 C   0  0  0  0  0  0  0  0  0  0  0  0
    4.1834    2.2309   25.4580 F   0  0  0  0  0  0  0  0  0  0  0  0
    5.1170    3.0987   23.4697 C   0  0  0  0  0  0  0  0  0  0  0  0
    4.2822    3.7897   23.3960 H   0  0  0  0  0  0  0  0  0  0  0  0
    6.1552    3.0832   22.5318 C   0  0  0  0  0  0  0  0  0  0  0  0
    6.1368    3.7567   21.6765 H   0  0  0  0  0  0  0  0  0  0  0  0
    5.4267    0.6470   20.1521 C   0  0  0  0  0  0  0  0  0  0  0  0
    5.0004    0.6314   21.1610 H   0  0  0  0  0  0  0  0  0  0  0  0
    4.7966    1.3177   19.0985 C   0  0  0  0  0  0  0  0  0  0  0  0
    3.8639    1.8519   19.2429 H   0  0  0  0  0  0  0  0  0  0  0  0
  1  2  1  0
  2  3  2  0
  3  4  1  0
  4  5  1  0
  4  6  2  0
  6  7  1  0
  7  8  1  0
  7  9  1  0
  7 10  1  0
 10 11  1  0
 11 12  2  0
 12 13  1  0
 12 14  1  0
 14 15  1  0
 14 16  2  0
 16 17  1  0
 17 18  1  0
 17 19  1  0
 19 20  2  0
 20 21  1  0
 20 22  1  0
 22 23  1  0
 22 24  2  0
 24 25  1  0
 24 26  1  0
 26 27  1  0
 26 28  2  0
 28 29  1  0
  6 30  1  0
 30 31  1  0
 30 32  2  0
 32 33  1  0
 32  2  1  0
 16 10  1  0
 28 19  1  0
M  END
>  <plip>  (1) 
-0.14285714285714285

>  <filename>  (1) 
[H][c]1[n][c]([H])[c]([C]([H])([H])[n]2[n][c]([H])[c]([H])[c]2[N]([H])[c]2[c]([H])[c]([H])[c]([F])[c]([H])[c]2[H])[c]([H])[c]1[H]

$$$$
