
     RDKit          3D

 35 36  0  0  0  0  0  0  0  0999 V2000
    8.6502   -0.1050   21.3101 N   0  0  0  0  0  4  0  0  0  0  0  0
    7.2212   -0.4861   21.2022 C   0  0  2  0  0  0  0  0  0  0  0  0
    7.2349   -1.9975   21.0067 C   0  0  0  0  0  0  0  0  0  0  0  0
    7.9238   -2.5892   22.1981 C   0  0  0  0  0  0  0  0  0  0  0  0
    9.1269   -2.4172   22.3616 O   0  0  0  0  0  0  0  0  0  0  0  0
    7.1125   -3.1762   23.1000 N   0  0  0  0  0  0  0  0  0  0  0  0
    7.5274   -3.8535   24.3256 C   0  0  0  0  0  0  0  0  0  0  0  0
    8.1041   -5.2186   24.0499 C   0  0  0  0  0  0  0  0  0  0  0  0
    9.3236   -5.3662   24.5598 C   0  0  0  0  0  0  0  0  0  0  0  0
    9.8638   -4.0869   25.1443 C   0  0  0  0  0  0  0  0  0  0  0  0
    8.6337   -3.1449   25.1504 C   0  0  0  0  0  0  0  0  0  0  0  0
    8.2627   -2.9863   26.1692 H   0  0  0  0  0  0  0  0  0  0  0  0
    8.8764   -2.1698   24.7276 H   0  0  0  0  0  0  0  0  0  0  0  0
   10.6748   -3.6861   24.5178 H   0  0  0  0  0  0  0  0  0  0  0  0
   10.2885   -4.2447   26.1427 H   0  0  0  0  0  0  0  0  0  0  0  0
    9.8861   -6.2966   24.5735 H   0  0  0  0  0  0  0  0  0  0  0  0
    7.5477   -5.9703   23.4979 H   0  0  0  0  0  0  0  0  0  0  0  0
    6.6103   -3.9494   24.9193 H   0  0  0  0  0  0  0  0  0  0  0  0
    6.1592   -3.2885   22.8119 H   0  0  0  0  0  0  0  0  0  0  0  0
    7.8428   -2.1774   20.1295 H   0  0  0  0  0  0  0  0  0  0  0  0
    6.2396   -2.3974   20.8385 H   0  0  0  0  0  0  0  0  0  0  0  0
    6.6044    0.2252   20.0296 C   0  0  0  0  0  0  0  0  0  0  0  0
    5.3668    0.8717   20.1404 C   0  0  0  0  0  0  0  0  0  0  0  0
    4.8046    1.4568   19.0046 C   0  0  0  0  0  0  0  0  0  0  0  0
    5.4862    1.3561   17.7872 C   0  0  0  0  0  0  0  0  0  0  0  0
    6.6604    0.7226   17.6557 N   0  0  0  0  0  0  0  0  0  0  0  0
    7.2031    0.1918   18.7601 C   0  0  0  0  0  0  0  0  0  0  0  0
    8.1512   -0.3206   18.5903 H   0  0  0  0  0  0  0  0  0  0  0  0
    5.0654    1.8002   16.8846 H   0  0  0  0  0  0  0  0  0  0  0  0
    3.8663    1.9977   19.0550 H   0  0  0  0  0  0  0  0  0  0  0  0
    4.8494    0.9067   21.1026 H   0  0  0  0  0  0  0  0  0  0  0  0
    6.6805   -0.2057   22.1197 H   0  0  0  0  0  0  0  0  0  0  0  0
    8.7477    0.7638   21.8536 H   0  0  0  0  0  0  0  0  0  0  0  0
    9.1808   -0.8886   21.7675 H   0  0  0  0  0  0  0  0  0  0  0  0
    9.0117    0.0448   20.3552 H   0  0  0  0  0  0  0  0  0  0  0  0
  1  2  1  0
  2  3  1  0
  3  4  1  0
  4  5  2  0
  4  6  1  0
  6  7  1  0
  7  8  1  0
  8  9  2  0
  9 10  1  0
 10 11  1  0
 11 12  1  0
 11 13  1  0
 10 14  1  0
 10 15  1  0
  9 16  1  0
  8 17  1  0
  7 18  1  0
  6 19  1  0
  3 20  1  0
  3 21  1  0
  2 22  1  0
 22 23  2  0
 23 24  1  0
 24 25  2  0
 25 26  1  0
 26 27  2  0
 27 28  1  0
 25 29  1  0
 24 30  1  0
 23 31  1  0
  2 32  1  1
  1 33  1  0
  1 34  1  0
  1 35  1  0
 11  7  1  0
 27 22  1  0
M  CHG  1   1   1
M  END
>  <plip>  (1) 
-0.13793103448275862

>  <filename>  (1) 
[H][C]1=[C]([H])[C]([H])([N]([H])[C](=[O])[C]([H])([H])[C@]([H])([c]2[c]([H])[n][c]([H])[c]([H])[c]2[H])[N+]([H])([H])[H])[C]([H])([H])[C]1([H])[H]

$$$$
