
     RDKit          3D

 41 43  0  0  0  0  0  0  0  0999 V2000
    6.6594    1.6729   24.9899 C   0  0  0  0  0  0  0  0  0  0  0  0
    6.6212    2.5826   23.7813 C   0  0  0  0  0  0  0  0  0  0  0  0
    5.3830    2.9260   23.2106 C   0  0  0  0  0  0  0  0  0  0  0  0
    5.2129    3.7730   22.1926 N   0  0  0  0  0  0  0  0  0  0  0  0
    6.3091    4.3649   21.6948 C   0  0  0  0  0  0  0  0  0  0  0  0
    7.5911    4.1039   22.1670 C   0  0  0  0  0  0  0  0  0  0  0  0
    7.7685    3.1365   23.1749 C   0  0  0  0  0  0  0  0  0  0  0  0
    9.1577    2.7284   23.5251 C   0  0  0  0  0  0  0  0  0  0  0  0
    9.6416    1.4768   23.5769 C   0  0  0  0  0  0  0  0  0  0  0  0
    9.0624    0.2595   22.9342 C   0  0  0  0  0  0  0  0  0  0  0  0
    9.3639   -0.8573   23.3314 O   0  0  0  0  0  0  0  0  0  0  0  0
    8.2519    0.5043   21.8688 N   0  0  0  0  0  0  0  0  0  0  0  0
    7.4099   -0.4485   21.1979 C   0  0  0  0  0  0  0  0  0  0  0  0
    6.7002    0.2663   20.0649 C   0  0  0  0  0  0  0  0  0  0  0  0
    5.4459    0.8757   20.2042 C   0  0  0  0  0  0  0  0  0  0  0  0
    4.8276    1.4367   19.0835 C   0  0  0  0  0  0  0  0  0  0  0  0
    5.4953    1.3934   17.8572 C   0  0  0  0  0  0  0  0  0  0  0  0
    6.7135    0.8529   17.7066 N   0  0  0  0  0  0  0  0  0  0  0  0
    7.2943    0.3270   18.7906 C   0  0  0  0  0  0  0  0  0  0  0  0
    8.2884   -0.0942   18.6248 H   0  0  0  0  0  0  0  0  0  0  0  0
    5.0314    1.7879   16.9544 H   0  0  0  0  0  0  0  0  0  0  0  0
    3.8467    1.8971   19.1483 H   0  0  0  0  0  0  0  0  0  0  0  0
    4.9570    0.9006   21.1782 H   0  0  0  0  0  0  0  0  0  0  0  0
    6.5154   -1.3198   22.1292 C   0  0  0  0  0  0  0  0  0  0  0  0
    7.4007   -2.5654   21.8569 C   0  0  0  0  0  0  0  0  0  0  0  0
    8.1346   -1.7440   20.7743 C   0  0  0  0  0  0  0  0  0  0  0  0
    9.2274   -1.7124   20.7775 H   0  0  0  0  0  0  0  0  0  0  0  0
    7.7523   -1.9790   19.7881 H   0  0  0  0  0  0  0  0  0  0  0  0
    6.8768   -3.4607   21.4963 H   0  0  0  0  0  0  0  0  0  0  0  0
    8.0406   -2.8451   22.6939 H   0  0  0  0  0  0  0  0  0  0  0  0
    6.4526   -0.9506   23.1583 H   0  0  0  0  0  0  0  0  0  0  0  0
    5.5152   -1.4378   21.7055 H   0  0  0  0  0  0  0  0  0  0  0  0
    8.0386    1.4758   21.7160 H   0  0  0  0  0  0  0  0  0  0  0  0
   10.5443    1.2516   24.1369 H   0  0  0  0  0  0  0  0  0  0  0  0
    9.8313    3.5741   23.6792 H   0  0  0  0  0  0  0  0  0  0  0  0
    8.4586    4.5799   21.7202 H   0  0  0  0  0  0  0  0  0  0  0  0
    6.1533    5.0848   20.8955 H   0  0  0  0  0  0  0  0  0  0  0  0
    4.4677    2.4954   23.6239 H   0  0  0  0  0  0  0  0  0  0  0  0
    5.6568    1.5644   25.4091 H   0  0  0  0  0  0  0  0  0  0  0  0
    7.0194    0.6659   24.7521 H   0  0  0  0  0  0  0  0  0  0  0  0
    7.3159    2.0702   25.7705 H   0  0  0  0  0  0  0  0  0  0  0  0
  1  2  1  0
  2  3  2  0
  3  4  1  0
  4  5  2  0
  5  6  1  0
  6  7  2  0
  7  8  1  0
  8  9  2  3
  9 10  1  0
 10 11  2  0
 10 12  1  0
 12 13  1  0
 13 14  1  0
 14 15  2  0
 15 16  1  0
 16 17  2  0
 17 18  1  0
 18 19  2  0
 19 20  1  0
 17 21  1  0
 16 22  1  0
 15 23  1  0
 13 24  1  0
 24 25  1  0
 25 26  1  0
 26 27  1  0
 26 28  1  0
 25 29  1  0
 25 30  1  0
 24 31  1  0
 24 32  1  0
 12 33  1  0
  9 34  1  0
  8 35  1  0
  6 36  1  0
  5 37  1  0
  3 38  1  0
  1 39  1  0
  1 40  1  0
  1 41  1  0
  7  2  1  0
 26 13  1  0
 19 14  1  0
M  END
>  <plip>  (1) 
-0.03571428571428571

>  <filename>  (1) 
[H][C]([C](=[O])[N]([H])[C]1([c]2[c]([H])[n][c]([H])[c]([H])[c]2[H])[C]([H])([H])[C]([H])([H])[C]1([H])[H])=[C]([H])[c]1[c]([H])[c]([H])[n][c]([H])[c]1[C]([H])([H])[H]

$$$$
