
     RDKit          3D

 36 37  0  0  0  0  0  0  0  0999 V2000
    4.9869    1.8938   16.9782 H   0  0  0  0  0  0  0  0  0  0  0  0
    5.4036    1.3246   17.8064 C   0  0  0  0  0  0  0  0  0  0  0  0
    6.5620    0.6940   17.5574 N   0  0  0  0  0  0  0  0  0  0  0  0
    7.1101    0.0159   18.5712 C   0  0  0  0  0  0  0  0  0  0  0  0
    8.0605   -0.4816   18.3662 H   0  0  0  0  0  0  0  0  0  0  0  0
    6.5403   -0.1023   19.8593 C   0  0  0  0  0  0  0  0  0  0  0  0
    7.2320   -0.8325   20.9379 C   0  0  0  0  0  0  0  0  0  0  0  0
    8.4948   -0.6447   21.3691 C   0  0  0  0  0  0  0  0  0  0  0  0
    9.5390    0.2815   20.8379 C   0  0  0  0  0  0  0  0  0  0  0  0
    9.0692    1.0560   20.2236 H   0  0  0  0  0  0  0  0  0  0  0  0
   10.1555   -0.3218   20.1562 H   0  0  0  0  0  0  0  0  0  0  0  0
   10.4416    0.9704   21.8749 C   0  0  0  0  0  0  0  0  0  0  0  0
    9.8457    1.3426   22.7210 H   0  0  0  0  0  0  0  0  0  0  0  0
   10.8939    1.8547   21.4035 H   0  0  0  0  0  0  0  0  0  0  0  0
   11.5729    0.0761   22.4130 C   0  0  0  0  0  0  0  0  0  0  0  0
   11.1618   -0.8634   22.8011 H   0  0  0  0  0  0  0  0  0  0  0  0
   12.2270   -0.2119   21.5755 H   0  0  0  0  0  0  0  0  0  0  0  0
   12.4225    0.6552   23.4442 N   0  0  0  0  0  0  0  0  0  0  0  0
   12.9377    1.9751   23.1392 C   0  0  0  0  0  0  0  0  0  0  0  0
   13.8322    2.1861   23.7322 H   0  0  0  0  0  0  0  0  0  0  0  0
   12.2183    2.7939   23.3336 H   0  0  0  0  0  0  0  0  0  0  0  0
   13.2246    2.0336   22.0854 H   0  0  0  0  0  0  0  0  0  0  0  0
   11.9603    0.5492   24.8146 C   0  0  0  0  0  0  0  0  0  0  0  0
   11.6014   -0.4621   25.0266 H   0  0  0  0  0  0  0  0  0  0  0  0
   12.8016    0.7285   25.4946 H   0  0  0  0  0  0  0  0  0  0  0  0
   11.1509    1.2542   25.0835 H   0  0  0  0  0  0  0  0  0  0  0  0
    8.7706   -1.6235   22.4676 C   0  0  0  0  0  0  0  0  0  0  0  0
    9.5961   -2.2994   22.2110 H   0  0  0  0  0  0  0  0  0  0  0  0
    9.0170   -1.1287   23.4172 H   0  0  0  0  0  0  0  0  0  0  0  0
    7.5828   -2.3774   22.6172 O   0  0  0  0  0  0  0  0  0  0  0  0
    6.6371   -1.9524   21.7268 C   0  0  0  0  0  0  0  0  0  0  0  0
    5.5671   -2.4934   21.6256 O   0  0  0  0  0  0  0  0  0  0  0  0
    5.3047    0.5290   20.0777 C   0  0  0  0  0  0  0  0  0  0  0  0
    4.8277    0.4573   21.0558 H   0  0  0  0  0  0  0  0  0  0  0  0
    4.7437    1.2744   19.0378 C   0  0  0  0  0  0  0  0  0  0  0  0
    3.8261    1.8370   19.1728 H   0  0  0  0  0  0  0  0  0  0  0  0
  1  2  1  0
  2  3  2  0
  3  4  1  0
  4  5  1  0
  4  6  2  0
  6  7  1  0
  7  8  2  0
  8  9  1  0
  9 10  1  0
  9 11  1  0
  9 12  1  0
 12 13  1  0
 12 14  1  0
 12 15  1  0
 15 16  1  0
 15 17  1  0
 15 18  1  0
 18 19  1  0
 19 20  1  0
 19 21  1  0
 19 22  1  0
 18 23  1  0
 23 24  1  0
 23 25  1  0
 23 26  1  0
  8 27  1  0
 27 28  1  0
 27 29  1  0
 27 30  1  0
 30 31  1  0
 31 32  2  0
  6 33  1  0
 33 34  1  0
 33 35  2  0
 35 36  1  0
 35  2  1  0
 31  7  1  0
M  END
>  <plip>  (1) 
-0.03571428571428571

>  <filename>  (1) 
[H][c]1[n][c]([H])[c]([C]2=[C]([C]([H])([H])[C]([H])([H])[C]([H])([H])[N]([C]([H])([H])[H])[C]([H])([H])[H])[C]([H])([H])[O][C]2=[O])[c]([H])[c]1[H]

$$$$
