
     RDKit          3D

 34 37  0  0  0  0  0  0  0  0999 V2000
    6.7945   -3.7574   20.5022 H   0  0  0  0  0  0  0  0  0  0  0  0
    6.6288   -2.7761   20.2986 N   0  0  0  0  0  0  0  0  0  0  0  0
    7.3405   -2.0516   21.0572 C   0  0  0  0  0  0  0  0  0  0  0  0
    8.4831   -2.5190   22.3393 S   0  0  0  0  0  0  0  0  0  0  0  0
    8.4129   -0.9125   22.9988 C   0  0  0  0  0  0  0  0  0  0  0  0
    8.8142   -0.6912   23.9764 H   0  0  0  0  0  0  0  0  0  0  0  0
    7.7542   -0.0450   22.2054 C   0  0  0  0  0  0  0  0  0  0  0  0
    7.5931    1.4011   22.4767 C   0  0  0  0  0  0  0  0  0  0  0  0
    8.1070    2.3663   21.6157 C   0  0  0  0  0  0  0  0  0  0  0  0
    8.5851    2.0450   20.6932 H   0  0  0  0  0  0  0  0  0  0  0  0
    7.9905    3.7465   21.8941 C   0  0  0  0  0  0  0  0  0  0  0  0
    8.4123    4.4751   21.2096 H   0  0  0  0  0  0  0  0  0  0  0  0
    7.3229    4.1927   23.0107 C   0  0  0  0  0  0  0  0  0  0  0  0
    7.1942    5.2610   23.1920 H   0  0  0  0  0  0  0  0  0  0  0  0
    6.7758    3.2547   23.9278 C   0  0  0  0  0  0  0  0  0  0  0  0
    6.0548    3.6448   25.0997 C   0  0  0  0  0  0  0  0  0  0  0  0
    5.9137    4.7060   25.3185 H   0  0  0  0  0  0  0  0  0  0  0  0
    5.5463    2.6736   25.9261 C   0  0  0  0  0  0  0  0  0  0  0  0
    4.9983    2.9158   26.8303 H   0  0  0  0  0  0  0  0  0  0  0  0
    5.7512    1.3071   25.5930 C   0  0  0  0  0  0  0  0  0  0  0  0
    5.3379    0.5317   26.2387 H   0  0  0  0  0  0  0  0  0  0  0  0
    6.4170    0.9001   24.5381 N   0  0  0  0  0  0  0  0  0  0  0  0
    6.9323    1.8397   23.6793 C   0  0  0  0  0  0  0  0  0  0  0  0
    7.2987   -0.6516   21.0155 N   0  0  0  0  0  0  0  0  0  0  0  0
    6.6307    0.0282   19.9338 C   0  0  0  0  0  0  0  0  0  0  0  0
    7.1749    0.0710   18.6287 C   0  0  0  0  0  0  0  0  0  0  0  0
    8.1149   -0.4457   18.4347 H   0  0  0  0  0  0  0  0  0  0  0  0
    6.5885    0.6984   17.5999 N   0  0  0  0  0  0  0  0  0  0  0  0
    5.4168    1.3121   17.8318 C   0  0  0  0  0  0  0  0  0  0  0  0
    4.9609    1.8008   16.9743 H   0  0  0  0  0  0  0  0  0  0  0  0
    4.7896    1.3239   19.0836 C   0  0  0  0  0  0  0  0  0  0  0  0
    3.8373    1.8272   19.2013 H   0  0  0  0  0  0  0  0  0  0  0  0
    5.4125    0.6780   20.1566 C   0  0  0  0  0  0  0  0  0  0  0  0
    4.9870    0.6661   21.1615 H   0  0  0  0  0  0  0  0  0  0  0  0
  1  2  1  0
  2  3  2  3
  3  4  1  0
  4  5  1  0
  5  6  1  0
  5  7  2  0
  7  8  1  0
  8  9  2  0
  9 10  1  0
  9 11  1  0
 11 12  1  0
 11 13  2  0
 13 14  1  0
 13 15  1  0
 15 16  2  0
 16 17  1  0
 16 18  1  0
 18 19  1  0
 18 20  2  0
 20 21  1  0
 20 22  1  0
 22 23  2  0
  7 24  1  0
 24 25  1  0
 25 26  2  0
 26 27  1  0
 26 28  1  0
 28 29  2  0
 29 30  1  0
 29 31  1  0
 31 32  1  0
 31 33  2  0
 33 34  1  0
 24  3  1  0
 33 25  1  0
 23  8  1  0
 23 15  1  0
M  END
>  <plip>  (1) 
-0.07142857142857142

>  <filename>  (1) 
[H][N]=[c]1[s][c]([H])[c](-[c]2[c]([H])[c]([H])[c]([H])[c]3[c]([H])[c]([H])[c]([H])[n][c]23)[n]1-[c]1[c]([H])[n][c]([H])[c]([H])[c]1[H]

$$$$
