
     RDKit          3D

 48 51  0  0  0  0  0  0  0  0999 V2000
    7.0044    1.2986   23.0106 O   0  0  0  0  0  0  0  0  0  0  0  0
    8.1088    1.1502   22.5186 C   0  0  0  0  0  0  0  0  0  0  0  0
    9.2822    2.0214   22.9588 C   0  0  0  0  0  0  0  0  0  0  0  0
   10.4527    2.4340   21.5882 S   0  0  0  0  0  0  0  0  0  0  0  0
   11.5197    3.6443   22.3359 C   0  0  0  0  0  0  0  0  0  0  0  0
   12.8036    3.4077   22.2096 N   0  0  0  0  0  0  0  0  0  0  0  0
   13.6596    4.1260   22.9779 C   0  0  0  0  0  0  0  0  0  0  0  0
   13.2584    5.0709   23.8925 C   0  0  0  0  0  0  0  0  0  0  0  0
   11.8795    5.4347   23.9536 C   0  0  0  0  0  0  0  0  0  0  0  0
   11.3820    6.4616   24.8171 C   0  0  0  0  0  0  0  0  0  0  0  0
   10.0708    6.8842   24.7200 C   0  0  0  0  0  0  0  0  0  0  0  0
    9.2076    6.3092   23.7482 C   0  0  0  0  0  0  0  0  0  0  0  0
    9.6388    5.2737   22.9448 C   0  0  0  0  0  0  0  0  0  0  0  0
   10.9774    4.7791   23.0594 C   0  0  0  0  0  0  0  0  0  0  0  0
    8.9585    4.8143   22.2309 H   0  0  0  0  0  0  0  0  0  0  0  0
    8.1912    6.6751   23.6282 H   0  0  0  0  0  0  0  0  0  0  0  0
    9.6947    7.6813   25.3635 H   0  0  0  0  0  0  0  0  0  0  0  0
   12.0591    6.9236   25.5304 H   0  0  0  0  0  0  0  0  0  0  0  0
   13.9770    5.5596   24.5358 H   0  0  0  0  0  0  0  0  0  0  0  0
   14.7097    3.8919   22.8343 H   0  0  0  0  0  0  0  0  0  0  0  0
    9.8172    1.4908   23.7490 H   0  0  0  0  0  0  0  0  0  0  0  0
    8.8852    2.9170   23.4286 H   0  0  0  0  0  0  0  0  0  0  0  0
    8.4825    0.1800   21.6429 N   0  0  0  0  0  0  0  0  0  0  0  0
    7.5548   -0.7601   21.0363 C   0  0  0  0  0  0  0  0  0  0  0  0
    6.7271   -0.0690   19.9635 C   0  0  0  0  0  0  0  0  0  0  0  0
    5.5171    0.6000   20.1983 C   0  0  0  0  0  0  0  0  0  0  0  0
    4.8930    1.2522   19.1311 C   0  0  0  0  0  0  0  0  0  0  0  0
    5.4959    1.2230   17.8702 C   0  0  0  0  0  0  0  0  0  0  0  0
    6.6561    0.5956   17.6230 N   0  0  0  0  0  0  0  0  0  0  0  0
    7.2460   -0.0162   18.6560 C   0  0  0  0  0  0  0  0  0  0  0  0
    8.1943   -0.5024   18.4229 H   0  0  0  0  0  0  0  0  0  0  0  0
    5.0286    1.7234   17.0235 H   0  0  0  0  0  0  0  0  0  0  0  0
    3.9580    1.7856   19.2649 H   0  0  0  0  0  0  0  0  0  0  0  0
    5.0750    0.6368   21.1973 H   0  0  0  0  0  0  0  0  0  0  0  0
    6.7869   -1.5043   22.1353 C   0  0  0  0  0  0  0  0  0  0  0  0
    5.8395   -2.6082   21.6737 C   0  0  0  0  0  0  0  0  0  0  0  0
    5.7141   -3.5023   22.9122 C   0  0  0  0  0  0  0  0  0  0  0  0
    6.8714   -3.2680   23.6997 O   0  0  0  0  0  0  0  0  0  0  0  0
    7.6890   -2.2802   23.0987 C   0  0  0  0  0  0  0  0  0  0  0  0
    8.1189   -1.6572   23.8873 H   0  0  0  0  0  0  0  0  0  0  0  0
    8.5151   -2.7620   22.5483 H   0  0  0  0  0  0  0  0  0  0  0  0
    4.8231   -3.2410   23.5024 H   0  0  0  0  0  0  0  0  0  0  0  0
    5.6536   -4.5714   22.6685 H   0  0  0  0  0  0  0  0  0  0  0  0
    4.8853   -2.1796   21.4087 H   0  0  0  0  0  0  0  0  0  0  0  0
    6.2348   -3.1568   20.8096 H   0  0  0  0  0  0  0  0  0  0  0  0
    6.2400   -0.7588   22.7200 H   0  0  0  0  0  0  0  0  0  0  0  0
    8.1808   -1.5063   20.5249 H   0  0  0  0  0  0  0  0  0  0  0  0
    9.2726    0.4763   21.0912 H   0  0  0  0  0  0  0  0  0  0  0  0
  1  2  2  0
  2  3  1  0
  3  4  1  0
  4  5  1  0
  5  6  2  0
  6  7  1  0
  7  8  2  0
  8  9  1  0
  9 10  2  0
 10 11  1  0
 11 12  2  0
 12 13  1  0
 13 14  2  0
 13 15  1  0
 12 16  1  0
 11 17  1  0
 10 18  1  0
  8 19  1  0
  7 20  1  0
  3 21  1  0
  3 22  1  0
  2 23  1  0
 23 24  1  0
 24 25  1  0
 25 26  2  0
 26 27  1  0
 27 28  2  0
 28 29  1  0
 29 30  2  0
 30 31  1  0
 28 32  1  0
 27 33  1  0
 26 34  1  0
 24 35  1  0
 35 36  1  0
 36 37  1  0
 37 38  1  0
 38 39  1  0
 39 40  1  0
 39 41  1  0
 37 42  1  0
 37 43  1  0
 36 44  1  0
 36 45  1  0
 35 46  1  0
 24 47  1  0
 23 48  1  0
 14  5  1  0
 30 25  1  0
 39 35  1  0
 14  9  1  0
M  END
>  <plip>  (1) 
-0.13793103448275862

>  <filename>  (1) 
[H][c]1[n][c]([H])[c]([C]([H])([N]([H])[C](=[O])[C]([H])([H])[S][c]2[n][c]([H])[c]([H])[c]3[c]([H])[c]([H])[c]([H])[c]([H])[c]23)[C]2([H])[C]([H])([H])[O][C]([H])([H])[C]2([H])[H])[c]([H])[c]1[H]

$$$$
