
     RDKit          3D

 32 34  0  0  0  0  0  0  0  0999 V2000
    6.0145   -2.4599   21.0873 H   0  0  0  0  0  0  0  0  0  0  0  0
    6.6198   -1.7765   21.6676 C   0  0  0  0  0  0  0  0  0  0  0  0
    6.7176   -1.7437   23.0076 C   0  0  0  0  0  0  0  0  0  0  0  0
    6.0198   -2.6138   23.9942 C   0  0  0  0  0  0  0  0  0  0  0  0
    6.4089   -2.6913   25.3590 C   0  0  0  0  0  0  0  0  0  0  0  0
    7.3337   -2.2129   25.6783 H   0  0  0  0  0  0  0  0  0  0  0  0
    5.6127   -3.3258   26.3184 C   0  0  0  0  0  0  0  0  0  0  0  0
    5.9472   -3.3824   27.3517 H   0  0  0  0  0  0  0  0  0  0  0  0
    4.3861   -3.8908   25.9565 C   0  0  0  0  0  0  0  0  0  0  0  0
    3.7295   -4.3217   26.7129 H   0  0  0  0  0  0  0  0  0  0  0  0
    4.0020   -3.8979   24.6137 C   0  0  0  0  0  0  0  0  0  0  0  0
    3.0616   -4.3214   24.2773 H   0  0  0  0  0  0  0  0  0  0  0  0
    4.8336   -3.3058   23.6696 C   0  0  0  0  0  0  0  0  0  0  0  0
    4.4104   -3.3506   22.3866 F   0  0  0  0  0  0  0  0  0  0  0  0
    7.5210   -0.5319   23.4444 C   0  0  0  0  0  0  0  0  0  0  0  0
    6.8973    0.1066   24.0865 H   0  0  0  0  0  0  0  0  0  0  0  0
    8.3956   -0.8096   24.0466 H   0  0  0  0  0  0  0  0  0  0  0  0
    7.9147    0.1915   22.1294 C   0  0  0  0  0  0  0  0  0  0  0  0
    8.9944    0.3689   22.0717 H   0  0  0  0  0  0  0  0  0  0  0  0
    7.4308    1.1733   22.0752 H   0  0  0  0  0  0  0  0  0  0  0  0
    7.4308   -0.7247   20.9572 C   0  0  2  0  0  0  0  0  0  0  0  0
    8.3077   -1.2072   20.4909 H   0  0  0  0  0  0  0  0  0  0  0  0
    6.6768   -0.0015   19.8294 C   0  0  0  0  0  0  0  0  0  0  0  0
    7.1662    0.0641   18.5085 C   0  0  0  0  0  0  0  0  0  0  0  0
    8.1078   -0.4178   18.2457 H   0  0  0  0  0  0  0  0  0  0  0  0
    6.5581    0.6993   17.4964 N   0  0  0  0  0  0  0  0  0  0  0  0
    5.4035    1.3227   17.7684 C   0  0  0  0  0  0  0  0  0  0  0  0
    4.9314    1.8518   16.9409 H   0  0  0  0  0  0  0  0  0  0  0  0
    4.8099    1.3127   19.0349 C   0  0  0  0  0  0  0  0  0  0  0  0
    3.8778    1.8433   19.1932 H   0  0  0  0  0  0  0  0  0  0  0  0
    5.4547    0.6396   20.0766 C   0  0  0  0  0  0  0  0  0  0  0  0
    5.0174    0.6080   21.0767 H   0  0  0  0  0  0  0  0  0  0  0  0
  1  2  1  0
  2  3  2  0
  3  4  1  0
  4  5  2  0
  5  6  1  0
  5  7  1  0
  7  8  1  0
  7  9  2  0
  9 10  1  0
  9 11  1  0
 11 12  1  0
 11 13  2  0
 13 14  1  0
  3 15  1  0
 15 16  1  0
 15 17  1  0
 15 18  1  0
 18 19  1  0
 18 20  1  0
 18 21  1  0
 21 22  1  6
 21 23  1  0
 23 24  2  0
 24 25  1  0
 24 26  1  0
 26 27  2  0
 27 28  1  0
 27 29  1  0
 29 30  1  0
 29 31  2  0
 31 32  1  0
 21  2  1  0
 31 23  1  0
 13  4  1  0
M  END
>  <plip>  (1) 
-0.034482758620689655

>  <filename>  (1) 
[H][C]1=[C]([c]2[c]([H])[c]([H])[c]([H])[c]([H])[c]2[F])[C]([H])([H])[C]([H])([H])[C@]1([H])[c]1[c]([H])[n][c]([H])[c]([H])[c]1[H]

$$$$
