
     RDKit          3D

 36 38  0  0  0  0  0  0  0  0999 V2000
    5.0565    1.8868   16.9009 H   0  0  0  0  0  0  0  0  0  0  0  0
    5.4710    1.3165   17.7278 C   0  0  0  0  0  0  0  0  0  0  0  0
    6.6086    0.6485   17.4830 N   0  0  0  0  0  0  0  0  0  0  0  0
    7.1105   -0.0916   18.4763 C   0  0  0  0  0  0  0  0  0  0  0  0
    8.0453   -0.6151   18.2801 H   0  0  0  0  0  0  0  0  0  0  0  0
    6.4953   -0.2318   19.7258 C   0  0  0  0  0  0  0  0  0  0  0  0
    7.1532   -1.1670   20.6767 C   0  0  0  0  0  0  0  0  0  0  0  0
    8.3046   -1.5336   20.5182 O   0  0  0  0  0  0  0  0  0  0  0  0
    6.3799   -1.6046   21.7335 N   0  0  0  0  0  0  0  0  0  0  0  0
    5.5575   -1.0359   21.8843 H   0  0  0  0  0  0  0  0  0  0  0  0
    7.0355   -2.0006   22.9981 C   0  0  1  0  0  0  0  0  0  0  0  0
    7.9071   -2.5942   22.7063 H   0  0  0  0  0  0  0  0  0  0  0  0
    7.5842   -0.8084   23.8212 C   0  0  0  0  0  0  0  0  0  0  0  0
    6.8023    0.2390   23.9973 N   0  0  0  0  0  0  0  0  0  0  0  0
    7.3041    1.3105   24.6828 C   0  0  0  0  0  0  0  0  0  0  0  0
    6.4909    2.4752   24.7922 C   0  0  0  0  0  0  0  0  0  0  0  0
    5.5330    2.4265   24.2820 H   0  0  0  0  0  0  0  0  0  0  0  0
    6.9422    3.5801   25.4813 C   0  0  0  0  0  0  0  0  0  0  0  0
    6.3222    4.4749   25.5675 H   0  0  0  0  0  0  0  0  0  0  0  0
    8.2364    3.5660   26.0868 C   0  0  0  0  0  0  0  0  0  0  0  0
    8.5744    4.4299   26.6509 H   0  0  0  0  0  0  0  0  0  0  0  0
    9.0467    2.4604   25.9723 C   0  0  0  0  0  0  0  0  0  0  0  0
   10.0309    2.3777   26.4165 H   0  0  0  0  0  0  0  0  0  0  0  0
    8.6068    1.3136   25.2644 C   0  0  0  0  0  0  0  0  0  0  0  0
    9.4128    0.1553   25.0891 C   0  0  0  0  0  0  0  0  0  0  0  0
   10.4037    0.1216   25.5449 H   0  0  0  0  0  0  0  0  0  0  0  0
    8.9179   -0.8876   24.3483 C   0  0  0  0  0  0  0  0  0  0  0  0
    9.5288   -1.7560   24.1224 H   0  0  0  0  0  0  0  0  0  0  0  0
    6.1028   -2.9112   23.8029 C   0  0  0  0  0  0  0  0  0  0  0  0
    5.2370   -2.3889   24.2307 H   0  0  0  0  0  0  0  0  0  0  0  0
    6.6416   -3.3673   24.6389 H   0  0  0  0  0  0  0  0  0  0  0  0
    5.7521   -3.7239   23.1580 H   0  0  0  0  0  0  0  0  0  0  0  0
    5.3485    0.5279   19.9925 C   0  0  0  0  0  0  0  0  0  0  0  0
    4.8823    0.5570   20.9825 H   0  0  0  0  0  0  0  0  0  0  0  0
    4.8174    1.2927   18.9632 C   0  0  0  0  0  0  0  0  0  0  0  0
    3.9157    1.8678   19.1188 H   0  0  0  0  0  0  0  0  0  0  0  0
  1  2  1  0
  2  3  2  0
  3  4  1  0
  4  5  1  0
  4  6  2  0
  6  7  1  0
  7  8  2  0
  7  9  1  0
  9 10  1  0
  9 11  1  0
 11 12  1  6
 11 13  1  0
 13 14  2  0
 14 15  1  0
 15 16  2  0
 16 17  1  0
 16 18  1  0
 18 19  1  0
 18 20  2  0
 20 21  1  0
 20 22  1  0
 22 23  1  0
 22 24  2  0
 24 25  1  0
 25 26  1  0
 25 27  2  0
 27 28  1  0
 11 29  1  0
 29 30  1  0
 29 31  1  0
 29 32  1  0
  6 33  1  0
 33 34  1  0
 33 35  2  0
 35 36  1  0
 35  2  1  0
 27 13  1  0
 24 15  1  0
M  END
>  <plip>  (1) 
-0.10714285714285714

>  <filename>  (1) 
[H][c]1[n][c]([H])[c]([C](=[O])[N]([H])[C@@]([H])([c]2[n][c]3[c]([H])[c]([H])[c]([H])[c]([H])[c]3[c]([H])[c]2[H])[C]([H])([H])[H])[c]([H])[c]1[H]

$$$$
