
     RDKit          3D

 51 55  0  0  0  0  0  0  0  0999 V2000
    7.7618   -4.4072   23.7512 O   0  0  0  0  0  0  0  0  0  0  0  0
    6.6994   -4.9986   23.7701 C   0  0  0  0  0  0  0  0  0  0  0  0
    6.2677   -5.7709   24.9927 C   0  0  0  0  0  0  0  0  0  0  0  0
    7.0154   -5.6693   26.1826 C   0  0  0  0  0  0  0  0  0  0  0  0
    6.6103   -6.3438   27.3283 C   0  0  0  0  0  0  0  0  0  0  0  0
    5.4687   -7.1559   27.2875 C   0  0  0  0  0  0  0  0  0  0  0  0
    4.7362   -7.2784   26.1061 C   0  0  0  0  0  0  0  0  0  0  0  0
    5.1326   -6.6085   24.9373 C   0  0  0  0  0  0  0  0  0  0  0  0
    4.3384   -6.7673   23.6462 C   0  0  0  0  0  0  0  0  0  0  0  0
    5.1506   -6.4089   22.3886 C   0  0  0  0  0  0  0  0  0  0  0  0
    5.7310   -4.9896   22.5624 C   0  0  0  0  0  0  0  0  0  0  0  0
    6.2729   -4.3190   21.2593 C   0  0  0  0  0  0  0  0  0  0  0  0
    6.2662   -2.7757   21.3327 C   0  0  0  0  0  0  0  0  0  0  0  0
    5.1954   -2.2198   21.4580 O   0  0  0  0  0  0  0  0  0  0  0  0
    7.4392   -2.0746   21.2354 N   0  0  0  0  0  0  0  0  0  0  0  0
    8.7416   -2.6158   21.6098 C   0  0  0  0  0  0  0  0  0  0  0  0
    9.6846   -1.5738   21.0475 C   0  0  0  0  0  0  0  0  0  0  0  0
    8.9732   -0.2700   21.3642 C   0  0  2  0  0  0  0  0  0  0  0  0
    8.7540    0.1292   22.8485 C   0  0  0  0  0  0  0  0  0  0  0  0
    7.2218    0.0691   22.6102 C   0  0  0  0  0  0  0  0  0  0  0  0
    7.4473   -0.5947   21.2232 C   0  0  2  0  0  0  0  0  0  0  0  0
    6.7390    0.0063   20.0325 C   0  0  0  0  0  0  0  0  0  0  0  0
    5.4717    0.6021   20.1182 C   0  0  0  0  0  0  0  0  0  0  0  0
    4.9302    1.2123   18.9867 C   0  0  0  0  0  0  0  0  0  0  0  0
    5.6540    1.1780   17.7912 C   0  0  0  0  0  0  0  0  0  0  0  0
    6.8466    0.5773   17.6744 N   0  0  0  0  0  0  0  0  0  0  0  0
    7.3633    0.0151   18.7744 C   0  0  0  0  0  0  0  0  0  0  0  0
    8.3483   -0.4351   18.6418 H   0  0  0  0  0  0  0  0  0  0  0  0
    5.2639    1.6480   16.8890 H   0  0  0  0  0  0  0  0  0  0  0  0
    3.9760    1.7249   19.0178 H   0  0  0  0  0  0  0  0  0  0  0  0
    4.9178    0.5558   21.0578 H   0  0  0  0  0  0  0  0  0  0  0  0
    6.8037    1.0710   22.4897 H   0  0  0  0  0  0  0  0  0  0  0  0
    6.6096   -0.5043   23.3117 H   0  0  0  0  0  0  0  0  0  0  0  0
    9.1247   -0.6164   23.5612 H   0  0  0  0  0  0  0  0  0  0  0  0
    9.1667    1.0979   23.1400 H   0  0  0  0  0  0  0  0  0  0  0  0
    9.2991    0.5739   20.7539 H   0  0  0  0  0  0  0  0  0  0  0  0
   10.7142   -1.6663   21.4106 H   0  0  0  0  0  0  0  0  0  0  0  0
    9.6358   -1.6983   19.9652 H   0  0  0  0  0  0  0  0  0  0  0  0
    8.8103   -2.7027   22.6986 H   0  0  0  0  0  0  0  0  0  0  0  0
    8.8887   -3.6013   21.1647 H   0  0  0  0  0  0  0  0  0  0  0  0
    7.2459   -4.7135   20.9600 H   0  0  0  0  0  0  0  0  0  0  0  0
    5.5699   -4.5463   20.4439 H   0  0  0  0  0  0  0  0  0  0  0  0
    4.8908   -4.3652   22.9034 H   0  0  0  0  0  0  0  0  0  0  0  0
    4.4967   -6.4549   21.5101 H   0  0  0  0  0  0  0  0  0  0  0  0
    5.9483   -7.1494   22.2284 H   0  0  0  0  0  0  0  0  0  0  0  0
    3.9305   -7.7825   23.5736 H   0  0  0  0  0  0  0  0  0  0  0  0
    3.4664   -6.0973   23.6989 H   0  0  0  0  0  0  0  0  0  0  0  0
    3.8469   -7.9100   26.0822 H   0  0  0  0  0  0  0  0  0  0  0  0
    5.1586   -7.7017   28.1746 H   0  0  0  0  0  0  0  0  0  0  0  0
    7.1763   -6.2399   28.2489 H   0  0  0  0  0  0  0  0  0  0  0  0
    7.9084   -5.0522   26.1850 H   0  0  0  0  0  0  0  0  0  0  0  0
  1  2  2  0
  2  3  1  0
  3  4  2  0
  4  5  1  0
  5  6  2  0
  6  7  1  0
  7  8  2  0
  8  9  1  0
  9 10  1  0
 10 11  1  0
 11 12  1  0
 12 13  1  0
 13 14  2  0
 13 15  1  0
 15 16  1  0
 16 17  1  0
 17 18  1  0
 18 19  1  0
 19 20  1  0
 20 21  1  0
 21 22  1  6
 22 23  2  0
 23 24  1  0
 24 25  2  0
 25 26  1  0
 26 27  2  0
 27 28  1  0
 25 29  1  0
 24 30  1  0
 23 31  1  0
 20 32  1  0
 20 33  1  0
 19 34  1  0
 19 35  1  0
 18 36  1  6
 17 37  1  0
 17 38  1  0
 16 39  1  0
 16 40  1  0
 12 41  1  0
 12 42  1  0
 11 43  1  0
 10 44  1  0
 10 45  1  0
  9 46  1  0
  9 47  1  0
  7 48  1  0
  6 49  1  0
  5 50  1  0
  4 51  1  0
 11  2  1  0
 21 15  1  0
 27 22  1  0
  8  3  1  0
 21 18  1  0
M  END
>  <plip>  (1) 
-0.10344827586206896

>  <filename>  (1) 
[H][c]1[n][c]([H])[c]([C@@]23[N]([C](=[O])[C]([H])([H])[C]4([H])[C](=[O])[c]5[c]([H])[c]([H])[c]([H])[c]([H])[c]5[C]([H])([H])[C]4([H])[H])[C]([H])([H])[C]([H])([H])[C@]2([H])[C]([H])([H])[C]3([H])[H])[c]([H])[c]1[H]

$$$$
