
     RDKit          3D

 28 30  0  0  0  0  0  0  0  0999 V2000
    4.9287    1.8164   16.9748 H   0  0  0  0  0  0  0  0  0  0  0  0
    5.3875    1.2968   17.8153 C   0  0  0  0  0  0  0  0  0  0  0  0
    6.5475    0.6751   17.5615 N   0  0  0  0  0  0  0  0  0  0  0  0
    7.1499    0.0479   18.5774 C   0  0  0  0  0  0  0  0  0  0  0  0
    8.0989   -0.4302   18.3386 H   0  0  0  0  0  0  0  0  0  0  0  0
    6.6365   -0.0075   19.8836 C   0  0  0  0  0  0  0  0  0  0  0  0
    7.3954   -0.7207   20.9925 C   0  0  0  0  0  0  0  0  0  0  0  0
    6.8707   -0.6013   21.9446 H   0  0  0  0  0  0  0  0  0  0  0  0
    7.4900   -1.7928   20.7832 H   0  0  0  0  0  0  0  0  0  0  0  0
    8.7774   -0.2747   21.1702 N   0  0  0  0  0  0  0  0  0  0  0  0
    9.7438   -1.1011   20.7548 N   0  0  0  0  0  0  0  0  0  0  0  0
   10.8794   -0.4480   20.9224 C   0  0  0  0  0  0  0  0  0  0  0  0
   11.8027   -0.9023   20.5776 H   0  0  0  0  0  0  0  0  0  0  0  0
   10.6560    0.8309   21.4531 C   0  0  0  0  0  0  0  0  0  0  0  0
   11.3763    1.6037   21.6848 H   0  0  0  0  0  0  0  0  0  0  0  0
    9.2804    0.9103   21.6298 C   0  0  0  0  0  0  0  0  0  0  0  0
    8.4707    1.9844   22.2183 C   0  0  0  0  0  0  0  0  0  0  0  0
    7.1702    1.8637   22.5135 N   0  0  0  0  0  0  0  0  0  0  0  0
    6.8333    3.0507   23.0296 N   0  0  0  0  0  0  0  0  0  0  0  0
    5.8765    3.2217   23.3093 H   0  0  0  0  0  0  0  0  0  0  0  0
    7.8673    3.9241   23.0858 C   0  0  0  0  0  0  0  0  0  0  0  0
    7.7523    4.9198   23.4883 H   0  0  0  0  0  0  0  0  0  0  0  0
    8.9524    3.2659   22.5653 C   0  0  0  0  0  0  0  0  0  0  0  0
    9.9712    3.6060   22.4077 H   0  0  0  0  0  0  0  0  0  0  0  0
    5.4220    0.6460   20.1266 C   0  0  0  0  0  0  0  0  0  0  0  0
    5.0103    0.6610   21.1374 H   0  0  0  0  0  0  0  0  0  0  0  0
    4.7813    1.3080   19.0740 C   0  0  0  0  0  0  0  0  0  0  0  0
    3.8512    1.8508   19.2185 H   0  0  0  0  0  0  0  0  0  0  0  0
  1  2  1  0
  2  3  2  0
  3  4  1  0
  4  5  1  0
  4  6  2  0
  6  7  1  0
  7  8  1  0
  7  9  1  0
  7 10  1  0
 10 11  1  0
 11 12  2  0
 12 13  1  0
 12 14  1  0
 14 15  1  0
 14 16  2  0
 16 17  1  0
 17 18  2  0
 18 19  1  0
 19 20  1  0
 19 21  1  0
 21 22  1  0
 21 23  2  0
 23 24  1  0
  6 25  1  0
 25 26  1  0
 25 27  2  0
 27 28  1  0
 27  2  1  0
 16 10  1  0
 23 17  1  0
M  END
>  <plip>  (1) 
-0.03571428571428571

>  <filename>  (1) 
[H][c]1[n][c]([H])[c]([C]([H])([H])[n]2[n][c]([H])[c]([H])[c]2-[c]2[n][n]([H])[c]([H])[c]2[H])[c]([H])[c]1[H]

$$$$
