
     RDKit          3D

 30 30  0  0  0  0  0  0  0  0999 V2000
    5.6560   -1.6072   21.7144 H   0  0  0  0  0  0  0  0  0  0  0  0
    6.7296   -1.4906   21.8307 C   0  0  0  0  0  0  0  0  0  0  0  0
    7.3987   -0.6775   20.9525 C   0  0  0  0  0  0  0  0  0  0  0  0
    9.2922   -0.4333   21.0679 Br  0  0  0  0  0  0  0  0  0  0  0  0
    6.6623    0.0131   19.8974 C   0  0  0  0  0  0  0  0  0  0  0  0
    7.1920    0.0638   18.6003 C   0  0  0  0  0  0  0  0  0  0  0  0
    8.1335   -0.4381   18.3940 H   0  0  0  0  0  0  0  0  0  0  0  0
    6.5681    0.6810   17.5806 N   0  0  0  0  0  0  0  0  0  0  0  0
    5.4012    1.2930   17.8372 C   0  0  0  0  0  0  0  0  0  0  0  0
    4.8919    1.7814   17.0128 H   0  0  0  0  0  0  0  0  0  0  0  0
    4.8106    1.3077   19.1096 C   0  0  0  0  0  0  0  0  0  0  0  0
    3.8762    1.8399   19.2662 H   0  0  0  0  0  0  0  0  0  0  0  0
    5.4426    0.6406   20.1592 C   0  0  0  0  0  0  0  0  0  0  0  0
    5.0105    0.6302   21.1575 H   0  0  0  0  0  0  0  0  0  0  0  0
    7.4051   -2.2394   22.9443 C   0  0  0  0  0  0  0  0  0  0  0  0
    8.1449   -1.5925   23.4293 H   0  0  0  0  0  0  0  0  0  0  0  0
    6.6470   -2.4977   23.6893 H   0  0  0  0  0  0  0  0  0  0  0  0
    8.0595   -3.5224   22.4126 C   0  0  0  0  0  0  0  0  0  0  0  0
    7.2910   -4.1250   21.9163 H   0  0  0  0  0  0  0  0  0  0  0  0
    8.8196   -3.2808   21.6612 H   0  0  0  0  0  0  0  0  0  0  0  0
    8.6889   -4.3621   23.5322 C   0  0  0  0  0  0  0  0  0  0  0  0
    7.9651   -4.4968   24.3434 H   0  0  0  0  0  0  0  0  0  0  0  0
    8.9185   -5.3541   23.1315 H   0  0  0  0  0  0  0  0  0  0  0  0
    9.9754   -3.7370   24.0830 C   0  0  0  0  0  0  0  0  0  0  0  0
    9.7572   -2.7769   24.5608 H   0  0  0  0  0  0  0  0  0  0  0  0
   10.6798   -3.5524   23.2654 H   0  0  0  0  0  0  0  0  0  0  0  0
   10.6256   -4.6622   25.1024 C   0  0  0  0  0  0  0  0  0  0  0  0
    9.9612   -4.8444   25.9480 H   0  0  0  0  0  0  0  0  0  0  0  0
   10.9020   -5.6154   24.6519 H   0  0  0  0  0  0  0  0  0  0  0  0
   11.5268   -4.2064   25.4839 H   0  0  0  0  0  0  0  0  0  0  0  0
  1  2  1  0
  2  3  2  3
  3  4  1  0
  3  5  1  0
  5  6  2  0
  6  7  1  0
  6  8  1  0
  8  9  2  0
  9 10  1  0
  9 11  1  0
 11 12  1  0
 11 13  2  0
 13 14  1  0
  2 15  1  0
 15 16  1  0
 15 17  1  0
 15 18  1  0
 18 19  1  0
 18 20  1  0
 18 21  1  0
 21 22  1  0
 21 23  1  0
 21 24  1  0
 24 25  1  0
 24 26  1  0
 24 27  1  0
 27 28  1  0
 27 29  1  0
 27 30  1  0
 13  5  1  0
M  END
>  <plip>  (1) 
-0.07142857142857142

>  <filename>  (1) 
[H][C](=[C]([Br])[c]1[c]([H])[n][c]([H])[c]([H])[c]1[H])[C]([H])([H])[C]([H])([H])[C]([H])([H])[C]([H])([H])[C]([H])([H])[H]

$$$$
