
     RDKit          3D

 51 53  0  0  0  0  0  0  0  0999 V2000
    1.7834   -7.4972   27.2363 C   0  0  0  0  0  0  0  0  0  0  0  0
    1.3929   -7.1865   25.9148 O   0  0  0  0  0  0  0  0  0  0  0  0
    2.1937   -6.3826   25.1727 C   0  0  0  0  0  0  0  0  0  0  0  0
    1.6022   -5.9811   23.9326 C   0  0  0  0  0  0  0  0  0  0  0  0
    2.2810   -5.1739   23.0605 C   0  0  0  0  0  0  0  0  0  0  0  0
    3.5998   -4.7268   23.3896 C   0  0  0  0  0  0  0  0  0  0  0  0
    4.3984   -3.9277   22.5311 C   0  0  0  0  0  0  0  0  0  0  0  0
    5.6742   -3.6001   22.9265 C   0  0  0  0  0  0  0  0  0  0  0  0
    6.6782   -2.9535   22.0441 C   0  0  0  0  0  0  0  0  0  0  0  0
    7.4357   -3.6047   21.3453 O   0  0  0  0  0  0  0  0  0  0  0  0
    6.7423   -1.5972   22.1550 N   0  0  0  0  0  0  0  0  0  0  0  0
    7.5245   -0.7711   21.2482 C   0  0  0  0  0  0  0  0  0  0  0  0
    6.6944   -0.2541   20.0838 C   0  0  0  0  0  0  0  0  0  0  0  0
    5.5383    0.5079   20.2820 C   0  0  0  0  0  0  0  0  0  0  0  0
    4.9503    1.1308   19.1778 C   0  0  0  0  0  0  0  0  0  0  0  0
    5.5190    0.9409   17.9120 C   0  0  0  0  0  0  0  0  0  0  0  0
    6.5848    0.1612   17.6905 N   0  0  0  0  0  0  0  0  0  0  0  0
    7.1413   -0.4242   18.7612 C   0  0  0  0  0  0  0  0  0  0  0  0
    8.0117   -1.0439   18.5536 H   0  0  0  0  0  0  0  0  0  0  0  0
    5.1054    1.4532   17.0433 H   0  0  0  0  0  0  0  0  0  0  0  0
    4.0869    1.7767   19.2926 H   0  0  0  0  0  0  0  0  0  0  0  0
    5.1302    0.6421   21.2860 H   0  0  0  0  0  0  0  0  0  0  0  0
    8.3340    0.3921   21.9436 C   0  0  0  0  0  0  0  0  0  0  0  0
    9.3156   -0.1060   22.8240 O   0  0  0  0  0  0  0  0  0  0  0  0
   10.4720   -0.6268   22.2119 C   0  0  0  0  0  0  0  0  0  0  0  0
   11.0715    0.1521   21.7168 H   0  0  0  0  0  0  0  0  0  0  0  0
   11.0664   -1.0786   23.0093 H   0  0  0  0  0  0  0  0  0  0  0  0
   10.2377   -1.4087   21.4766 H   0  0  0  0  0  0  0  0  0  0  0  0
    7.4998    1.2520   22.6509 O   0  0  0  0  0  0  0  0  0  0  0  0
    8.1294    2.4469   23.0874 C   0  0  0  0  0  0  0  0  0  0  0  0
    8.9272    2.2382   23.8083 H   0  0  0  0  0  0  0  0  0  0  0  0
    7.3548    3.0503   23.5630 H   0  0  0  0  0  0  0  0  0  0  0  0
    8.5503    3.0227   22.2486 H   0  0  0  0  0  0  0  0  0  0  0  0
    8.8204    0.9501   21.1187 H   0  0  0  0  0  0  0  0  0  0  0  0
    8.2738   -1.4491   20.8243 H   0  0  0  0  0  0  0  0  0  0  0  0
    6.0813   -1.1533   22.7699 H   0  0  0  0  0  0  0  0  0  0  0  0
    6.1572   -3.9925   24.2163 C   0  0  0  0  0  0  0  0  0  0  0  0
    7.5229   -3.5979   24.7254 C   0  0  0  0  0  0  0  0  0  0  0  0
    7.7206   -4.1343   25.6543 H   0  0  0  0  0  0  0  0  0  0  0  0
    8.3097   -3.8304   24.0008 H   0  0  0  0  0  0  0  0  0  0  0  0
    7.5742   -2.5218   24.9302 H   0  0  0  0  0  0  0  0  0  0  0  0
    5.4253   -4.7233   25.0278 N   0  0  0  0  0  0  0  0  0  0  0  0
    4.1752   -5.1194   24.6353 C   0  0  0  0  0  0  0  0  0  0  0  0
    3.4556   -5.9568   25.5228 C   0  0  0  0  0  0  0  0  0  0  0  0
    3.9810   -6.2325   26.4285 H   0  0  0  0  0  0  0  0  0  0  0  0
    3.9751   -3.5780   21.5927 H   0  0  0  0  0  0  0  0  0  0  0  0
    1.8133   -4.8706   22.1223 H   0  0  0  0  0  0  0  0  0  0  0  0
    0.6018   -6.3496   23.7300 H   0  0  0  0  0  0  0  0  0  0  0  0
    2.6799   -8.1293   27.2401 H   0  0  0  0  0  0  0  0  0  0  0  0
    1.9771   -6.5812   27.8090 H   0  0  0  0  0  0  0  0  0  0  0  0
    0.9479   -8.0430   27.6821 H   0  0  0  0  0  0  0  0  0  0  0  0
  1  2  1  0
  2  3  1  0
  3  4  2  0
  4  5  1  0
  5  6  2  0
  6  7  1  0
  7  8  2  0
  8  9  1  0
  9 10  2  0
  9 11  1  0
 11 12  1  0
 12 13  1  0
 13 14  2  0
 14 15  1  0
 15 16  2  0
 16 17  1  0
 17 18  2  0
 18 19  1  0
 16 20  1  0
 15 21  1  0
 14 22  1  0
 12 23  1  0
 23 24  1  0
 24 25  1  0
 25 26  1  0
 25 27  1  0
 25 28  1  0
 23 29  1  0
 29 30  1  0
 30 31  1  0
 30 32  1  0
 30 33  1  0
 23 34  1  0
 12 35  1  0
 11 36  1  0
  8 37  1  0
 37 38  1  0
 38 39  1  0
 38 40  1  0
 38 41  1  0
 37 42  2  0
 42 43  1  0
 43 44  2  0
 44 45  1  0
  7 46  1  0
  5 47  1  0
  4 48  1  0
  1 49  1  0
  1 50  1  0
  1 51  1  0
 44  3  1  0
 43  6  1  0
 18 13  1  0
M  END
>  <plip>  (1) 
-0.03333333333333333

>  <filename>  (1) 
[H][c]1[n][c]([H])[c]([C]([H])([N]([H])[C](=[O])[c]2[c]([C]([H])([H])[H])[n][c]3[c]([H])[c]([O][C]([H])([H])[H])[c]([H])[c]([H])[c]3[c]2[H])[C]([H])([O][C]([H])([H])[H])[O][C]([H])([H])[H])[c]([H])[c]1[H]

$$$$
