
     RDKit          3D

 44 45  0  0  0  0  0  0  0  0999 V2000
    9.7834   -3.5237   23.3154 C   0  0  0  0  0  0  0  0  0  0  0  0
    9.2683   -2.8943   22.1244 O   0  0  0  0  0  0  0  0  0  0  0  0
    9.5232   -1.5822   21.9642 C   0  0  0  0  0  0  0  0  0  0  0  0
   10.1746   -0.9350   22.7520 O   0  0  0  0  0  0  0  0  0  0  0  0
    8.8588   -1.0159   20.7562 C   0  0  0  0  0  0  0  0  0  0  0  0
    7.4138   -0.6049   21.1036 C   0  0  0  0  0  0  0  0  0  0  0  0
    6.5590   -1.8329   21.4436 C   0  0  0  0  0  0  0  0  0  0  0  0
    5.5215   -1.5386   21.5965 H   0  0  0  0  0  0  0  0  0  0  0  0
    6.9136   -2.3245   22.3487 H   0  0  0  0  0  0  0  0  0  0  0  0
    6.5823   -2.5484   20.6156 H   0  0  0  0  0  0  0  0  0  0  0  0
    7.4598    0.2404   22.3152 N   0  0  0  0  0  0  0  0  0  0  0  0
    8.1742    1.7539   22.2172 S   0  0  0  0  0  0  0  0  0  0  0  0
    9.1427    1.6859   23.2961 O   0  0  0  0  0  0  0  0  0  0  0  0
    8.5669    2.0722   20.8587 O   0  0  0  0  0  0  0  0  0  0  0  0
    6.8586    2.7894   22.7852 C   0  0  0  0  0  0  0  0  0  0  0  0
    7.1389    4.2596   22.5359 C   0  0  0  0  0  0  0  0  0  0  0  0
    8.4910    4.7753   22.9712 C   0  0  0  0  0  0  0  0  0  0  0  0
    8.6189    5.8224   22.6717 H   0  0  0  0  0  0  0  0  0  0  0  0
    9.2952    4.1867   22.5166 H   0  0  0  0  0  0  0  0  0  0  0  0
    8.6040    4.7072   24.0593 H   0  0  0  0  0  0  0  0  0  0  0  0
    5.9488    5.1667   22.6407 C   0  0  0  0  0  0  0  0  0  0  0  0
    6.5035    4.7965   21.2915 C   0  0  0  0  0  0  0  0  0  0  0  0
    7.0264    5.5592   20.7151 H   0  0  0  0  0  0  0  0  0  0  0  0
    5.9679    4.0578   20.6981 H   0  0  0  0  0  0  0  0  0  0  0  0
    4.9979    4.7435   22.9551 H   0  0  0  0  0  0  0  0  0  0  0  0
    6.1253    6.1822   22.9916 H   0  0  0  0  0  0  0  0  0  0  0  0
    5.9670    2.4317   22.2614 H   0  0  0  0  0  0  0  0  0  0  0  0
    6.7785    2.5485   23.8479 H   0  0  0  0  0  0  0  0  0  0  0  0
    8.1481   -0.0934   22.9855 H   0  0  0  0  0  0  0  0  0  0  0  0
    6.7196    0.1179   19.9666 C   0  0  0  0  0  0  0  0  0  0  0  0
    5.4631    0.7225   20.1424 C   0  0  0  0  0  0  0  0  0  0  0  0
    4.8395    1.3429   19.0590 C   0  0  0  0  0  0  0  0  0  0  0  0
    5.4665    1.2908   17.8097 C   0  0  0  0  0  0  0  0  0  0  0  0
    6.6287    0.6667   17.6015 N   0  0  0  0  0  0  0  0  0  0  0  0
    7.2253    0.1070   18.6654 C   0  0  0  0  0  0  0  0  0  0  0  0
    8.1600   -0.4015   18.4368 H   0  0  0  0  0  0  0  0  0  0  0  0
    5.0062    1.7539   16.9387 H   0  0  0  0  0  0  0  0  0  0  0  0
    3.8849    1.8465   19.1620 H   0  0  0  0  0  0  0  0  0  0  0  0
    4.9717    0.6992   21.1173 H   0  0  0  0  0  0  0  0  0  0  0  0
    8.8774   -1.7517   19.9544 H   0  0  0  0  0  0  0  0  0  0  0  0
    9.4188   -0.1301   20.4566 H   0  0  0  0  0  0  0  0  0  0  0  0
   10.8752   -3.6016   23.2724 H   0  0  0  0  0  0  0  0  0  0  0  0
    9.3351   -4.5178   23.3381 H   0  0  0  0  0  0  0  0  0  0  0  0
    9.5167   -2.9584   24.2168 H   0  0  0  0  0  0  0  0  0  0  0  0
  1  2  1  0
  2  3  1  0
  3  4  2  0
  3  5  1  0
  5  6  1  0
  6  7  1  0
  7  8  1  0
  7  9  1  0
  7 10  1  0
  6 11  1  0
 11 12  1  0
 12 13  2  0
 12 14  2  0
 12 15  1  0
 15 16  1  0
 16 17  1  0
 17 18  1  0
 17 19  1  0
 17 20  1  0
 16 21  1  0
 21 22  1  0
 22 23  1  0
 22 24  1  0
 21 25  1  0
 21 26  1  0
 15 27  1  0
 15 28  1  0
 11 29  1  0
  6 30  1  0
 30 31  2  0
 31 32  1  0
 32 33  2  0
 33 34  1  0
 34 35  2  0
 35 36  1  0
 33 37  1  0
 32 38  1  0
 31 39  1  0
  5 40  1  0
  5 41  1  0
  1 42  1  0
  1 43  1  0
  1 44  1  0
 22 16  1  0
 35 30  1  0
M  END
>  <plip>  (1) 
-0.07142857142857142

>  <filename>  (1) 
[H][c]1[n][c]([H])[c]([C]([N]([H])[S](=[O])(=[O])[C]([H])([H])[C]2([C]([H])([H])[H])[C]([H])([H])[C]2([H])[H])([C]([H])([H])[H])[C]([H])([H])[C](=[O])[O][C]([H])([H])[H])[c]([H])[c]1[H]

$$$$
