
     RDKit          3D

 24 25  0  0  0  0  0  0  0  0999 V2000
    4.9100    1.7836   16.9952 H   0  0  0  0  0  0  0  0  0  0  0  0
    5.3974    1.2952   17.8364 C   0  0  0  0  0  0  0  0  0  0  0  0
    6.5612    0.6821   17.5713 N   0  0  0  0  0  0  0  0  0  0  0  0
    7.1757    0.0636   18.5884 C   0  0  0  0  0  0  0  0  0  0  0  0
    8.1212   -0.4228   18.3593 H   0  0  0  0  0  0  0  0  0  0  0  0
    6.6773   -0.0047   19.9196 C   0  0  0  0  0  0  0  0  0  0  0  0
    7.3210   -0.6624   20.9580 N   0  0  0  0  0  0  0  0  0  0  0  0
    6.8929   -0.6599   21.8732 H   0  0  0  0  0  0  0  0  0  0  0  0
    8.5850   -1.3518   20.8418 C   0  0  0  0  0  0  0  0  0  0  0  0
    9.3632   -0.6685   20.4772 H   0  0  0  0  0  0  0  0  0  0  0  0
    8.4974   -2.1342   20.0914 H   0  0  0  0  0  0  0  0  0  0  0  0
    8.9947   -1.9471   22.0912 N   0  0  0  0  0  0  0  0  0  0  0  0
    8.6381   -3.2000   22.5449 C   0  0  0  0  0  0  0  0  0  0  0  0
    8.0259   -3.8732   21.9538 H   0  0  0  0  0  0  0  0  0  0  0  0
    9.1474   -3.3569   23.8055 C   0  0  0  0  0  0  0  0  0  0  0  0
    9.0274   -4.2280   24.4414 H   0  0  0  0  0  0  0  0  0  0  0  0
    9.8445   -2.1599   24.1293 C   0  0  0  0  0  0  0  0  0  0  0  0
   10.3528   -1.9322   25.0538 H   0  0  0  0  0  0  0  0  0  0  0  0
    9.7391   -1.3161   23.0603 C   0  0  0  0  0  0  0  0  0  0  0  0
   10.1147   -0.3060   22.9262 H   0  0  0  0  0  0  0  0  0  0  0  0
    5.4500    0.6440   20.1669 C   0  0  0  0  0  0  0  0  0  0  0  0
    5.0180    0.6242   21.1693 H   0  0  0  0  0  0  0  0  0  0  0  0
    4.8157    1.3038   19.1106 C   0  0  0  0  0  0  0  0  0  0  0  0
    3.8837    1.8356   19.2646 H   0  0  0  0  0  0  0  0  0  0  0  0
  1  2  1  0
  2  3  2  0
  3  4  1  0
  4  5  1  0
  4  6  2  0
  6  7  1  0
  7  8  1  0
  7  9  1  0
  9 10  1  0
  9 11  1  0
  9 12  1  0
 12 13  1  0
 13 14  1  0
 13 15  2  0
 15 16  1  0
 15 17  1  0
 17 18  1  0
 17 19  2  0
 19 20  1  0
  6 21  1  0
 21 22  1  0
 21 23  2  0
 23 24  1  0
 23  2  1  0
 19 12  1  0
M  END
>  <plip>  (1) 
-0.07142857142857142

>  <filename>  (1) 
[H][c]1[n][c]([H])[c]([N]([H])[C]([H])([H])[n]2[c]([H])[c]([H])[c]([H])[c]2[H])[c]([H])[c]1[H]

$$$$
