
     RDKit          3D

 42 44  0  0  0  0  0  0  0  0999 V2000
    4.9421    1.7955   17.0071 H   0  0  0  0  0  0  0  0  0  0  0  0
    5.4097    1.2963   17.8525 C   0  0  0  0  0  0  0  0  0  0  0  0
    6.5765    0.6787   17.6030 N   0  0  0  0  0  0  0  0  0  0  0  0
    7.1852    0.0651   18.6259 C   0  0  0  0  0  0  0  0  0  0  0  0
    8.1378   -0.4182   18.4019 H   0  0  0  0  0  0  0  0  0  0  0  0
    6.6619    0.0367   19.9442 C   0  0  0  0  0  0  0  0  0  0  0  0
    7.3156   -0.6642   21.0144 N   0  0  0  0  0  0  0  0  0  0  0  0
    7.6986   -1.9842   21.0315 C   0  0  0  0  0  0  0  0  0  0  0  0
    7.3865   -2.6903   20.2739 H   0  0  0  0  0  0  0  0  0  0  0  0
    8.3818   -2.2707   22.1010 N   0  0  0  0  0  0  0  0  0  0  0  0
    8.4339   -1.1301   22.8655 N   0  0  0  0  0  0  0  0  0  0  0  0
    7.7568   -0.1979   22.2476 C   0  0  0  0  0  0  0  0  0  0  0  0
    7.4166    1.1499   22.8211 C   0  0  0  0  0  0  0  0  0  0  0  0
    7.4211    1.8998   22.0140 H   0  0  0  0  0  0  0  0  0  0  0  0
    8.1956    1.4274   23.5484 H   0  0  0  0  0  0  0  0  0  0  0  0
    6.1434    1.1021   23.4633 O   0  0  0  0  0  0  0  0  0  0  0  0
    5.7367    2.3332   24.0497 C   0  0  0  0  0  0  0  0  0  0  0  0
    5.5416    3.0798   23.2592 H   0  0  0  0  0  0  0  0  0  0  0  0
    6.5246    2.7490   24.7034 H   0  0  0  0  0  0  0  0  0  0  0  0
    4.4586    2.1140   24.8465 C   0  0  0  0  0  0  0  0  0  0  0  0
    4.1523    3.0783   25.2693 H   0  0  0  0  0  0  0  0  0  0  0  0
    3.6632    1.8002   24.1660 H   0  0  0  0  0  0  0  0  0  0  0  0
    4.5709    1.1193   26.0022 C   0  0  0  0  0  0  0  0  0  0  0  0
    4.8363    0.1192   25.6183 H   0  0  0  0  0  0  0  0  0  0  0  0
    3.5799    1.0190   26.4681 H   0  0  0  0  0  0  0  0  0  0  0  0
    5.5395    1.6233   26.9788 N   0  0  0  0  0  0  0  0  0  0  0  0
    6.8744    1.0096   26.8892 C   0  0  0  0  0  0  0  0  0  0  0  0
    7.1083    0.6900   25.8670 H   0  0  0  0  0  0  0  0  0  0  0  0
    7.6197    1.7669   27.1686 H   0  0  0  0  0  0  0  0  0  0  0  0
    6.9034   -0.1546   27.9038 C   0  0  0  0  0  0  0  0  0  0  0  0
    6.8170   -1.1232   27.4025 H   0  0  0  0  0  0  0  0  0  0  0  0
    7.8603   -0.1435   28.4286 H   0  0  0  0  0  0  0  0  0  0  0  0
    5.6947    0.1056   28.8315 C   0  0  0  0  0  0  0  0  0  0  0  0
    4.9095   -0.6381   28.6601 H   0  0  0  0  0  0  0  0  0  0  0  0
    5.9476    0.0792   29.8956 H   0  0  0  0  0  0  0  0  0  0  0  0
    5.1934    1.4884   28.3943 C   0  0  0  0  0  0  0  0  0  0  0  0
    5.7149    2.2817   28.9469 H   0  0  0  0  0  0  0  0  0  0  0  0
    4.1216    1.6430   28.5628 H   0  0  0  0  0  0  0  0  0  0  0  0
    5.4462    0.6855   20.1866 C   0  0  0  0  0  0  0  0  0  0  0  0
    5.0287    0.6815   21.1939 H   0  0  0  0  0  0  0  0  0  0  0  0
    4.8067    1.3176   19.1137 C   0  0  0  0  0  0  0  0  0  0  0  0
    3.8594    1.8260   19.2491 H   0  0  0  0  0  0  0  0  0  0  0  0
  1  2  1  0
  2  3  2  0
  3  4  1  0
  4  5  1  0
  4  6  2  0
  6  7  1  0
  7  8  1  0
  8  9  1  0
  8 10  2  0
 10 11  1  0
 11 12  2  0
 12 13  1  0
 13 14  1  0
 13 15  1  0
 13 16  1  0
 16 17  1  0
 17 18  1  0
 17 19  1  0
 17 20  1  0
 20 21  1  0
 20 22  1  0
 20 23  1  0
 23 24  1  0
 23 25  1  0
 23 26  1  0
 26 27  1  0
 27 28  1  0
 27 29  1  0
 27 30  1  0
 30 31  1  0
 30 32  1  0
 30 33  1  0
 33 34  1  0
 33 35  1  0
 33 36  1  0
 36 37  1  0
 36 38  1  0
  6 39  1  0
 39 40  1  0
 39 41  2  0
 41 42  1  0
 41  2  1  0
 12  7  1  0
 36 26  1  0
M  END
>  <plip>  (1) 
-0.06896551724137931

>  <filename>  (1) 
[H][c]1[n][c]([H])[c](-[n]2[c]([H])[n][n][c]2[C]([H])([H])[O][C]([H])([H])[C]([H])([H])[C]([H])([H])[N]2[C]([H])([H])[C]([H])([H])[C]([H])([H])[C]2([H])[H])[c]([H])[c]1[H]

$$$$
