
     RDKit          3D

 28 30  0  0  0  0  0  0  0  0999 V2000
    5.3445    1.8314   17.1639 H   0  0  0  0  0  0  0  0  0  0  0  0
    5.6484    1.2147   18.0087 C   0  0  0  0  0  0  0  0  0  0  0  0
    6.7881    0.5188   17.8605 N   0  0  0  0  0  0  0  0  0  0  0  0
    7.2053   -0.2133   18.8979 C   0  0  0  0  0  0  0  0  0  0  0  0
    8.1124   -0.7920   18.7346 H   0  0  0  0  0  0  0  0  0  0  0  0
    6.5402   -0.2826   20.1426 C   0  0  0  0  0  0  0  0  0  0  0  0
    7.0927   -1.0235   21.2971 C   0  0  0  0  0  0  0  0  0  0  0  0
    7.9688   -2.5092   21.1820 S   0  0  0  0  0  0  0  0  0  0  0  0
    8.0522   -2.7778   22.8189 N   0  0  0  0  0  0  0  0  0  0  0  0
    7.4668   -1.8004   23.4560 C   0  0  0  0  0  0  0  0  0  0  0  0
    7.4300   -1.8104   24.5452 H   0  0  0  0  0  0  0  0  0  0  0  0
    6.9415   -0.7540   22.6437 C   0  0  0  0  0  0  0  0  0  0  0  0
    6.3384    0.3539   23.1880 O   0  0  0  0  0  0  0  0  0  0  0  0
    6.8219    1.6223   22.9223 C   0  0  0  0  0  0  0  0  0  0  0  0
    5.9639    2.6910   23.2210 C   0  0  0  0  0  0  0  0  0  0  0  0
    5.0177    2.4779   23.7047 H   0  0  0  0  0  0  0  0  0  0  0  0
    6.3514    4.0033   22.9255 C   0  0  0  0  0  0  0  0  0  0  0  0
    5.6779    4.8416   23.0948 H   0  0  0  0  0  0  0  0  0  0  0  0
    7.6173    4.2399   22.3821 C   0  0  0  0  0  0  0  0  0  0  0  0
    8.0997    5.8656   21.9827 Cl  0  0  0  0  0  0  0  0  0  0  0  0
    8.5030    3.1880   22.1402 C   0  0  0  0  0  0  0  0  0  0  0  0
    9.5050    3.3975   21.7794 H   0  0  0  0  0  0  0  0  0  0  0  0
    8.1024    1.8756   22.4185 C   0  0  0  0  0  0  0  0  0  0  0  0
    8.7636    1.0414   22.2177 H   0  0  0  0  0  0  0  0  0  0  0  0
    5.3187    0.4036   20.2487 C   0  0  0  0  0  0  0  0  0  0  0  0
    4.7373    0.3258   21.1643 H   0  0  0  0  0  0  0  0  0  0  0  0
    4.8696    1.1637   19.1674 C   0  0  0  0  0  0  0  0  0  0  0  0
    3.9386    1.7174   19.2093 H   0  0  0  0  0  0  0  0  0  0  0  0
  1  2  1  0
  2  3  2  0
  3  4  1  0
  4  5  1  0
  4  6  2  0
  6  7  1  0
  7  8  1  0
  8  9  1  0
  9 10  2  0
 10 11  1  0
 10 12  1  0
 12 13  1  0
 13 14  1  0
 14 15  2  0
 15 16  1  0
 15 17  1  0
 17 18  1  0
 17 19  2  0
 19 20  1  0
 19 21  1  0
 21 22  1  0
 21 23  2  0
 23 24  1  0
  6 25  1  0
 25 26  1  0
 25 27  2  0
 27 28  1  0
 27  2  1  0
 12  7  2  0
 23 14  1  0
M  END
>  <plip>  (1) 
-0.06896551724137931

>  <filename>  (1) 
[H][c]1[n][c]([H])[c](-[c]2[s][n][c]([H])[c]2[O][c]2[c]([H])[c]([H])[c]([Cl])[c]([H])[c]2[H])[c]([H])[c]1[H]

$$$$
