
     RDKit          3D

 39 40  0  0  0  0  0  0  0  0999 V2000
    1.8365   -7.2780   26.5325 C   0  0  0  0  0  0  0  0  0  0  0  0
    2.3305   -6.0235   25.8139 C   0  0  0  0  0  0  0  0  0  0  0  0
    3.7459   -6.1745   25.5495 N   0  0  0  0  0  0  0  0  0  0  0  0
    4.4943   -5.4221   24.6718 C   0  0  0  0  0  0  0  0  0  0  0  0
    3.9392   -4.4273   23.8422 C   0  0  0  0  0  0  0  0  0  0  0  0
    4.7576   -3.6805   22.9994 C   0  0  0  0  0  0  0  0  0  0  0  0
    6.1536   -3.8723   22.9784 C   0  0  0  0  0  0  0  0  0  0  0  0
    7.1141   -2.9764   22.2512 C   0  0  0  0  0  0  0  0  0  0  0  0
    8.3253   -3.1580   22.2769 O   0  0  0  0  0  0  0  0  0  0  0  0
    6.5756   -1.9272   21.5755 N   0  0  0  0  0  0  0  0  0  0  0  0
    7.3824   -0.8487   21.0453 C   0  0  0  0  0  0  0  0  0  0  0  0
    7.8473    0.1349   22.1247 C   0  0  0  0  0  0  0  0  0  0  0  0
    6.9934    0.5900   22.6405 H   0  0  0  0  0  0  0  0  0  0  0  0
    8.4324    0.9324   21.6579 H   0  0  0  0  0  0  0  0  0  0  0  0
    8.4749   -0.3781   22.8577 H   0  0  0  0  0  0  0  0  0  0  0  0
    6.6055   -0.1539   19.9589 C   0  0  0  0  0  0  0  0  0  0  0  0
    5.4000    0.5288   20.1812 C   0  0  0  0  0  0  0  0  0  0  0  0
    4.8275    1.2260   19.1161 C   0  0  0  0  0  0  0  0  0  0  0  0
    5.4643    1.2064   17.8694 C   0  0  0  0  0  0  0  0  0  0  0  0
    6.6019    0.5386   17.6323 N   0  0  0  0  0  0  0  0  0  0  0  0
    7.1381   -0.1208   18.6664 C   0  0  0  0  0  0  0  0  0  0  0  0
    8.0568   -0.6664   18.4518 H   0  0  0  0  0  0  0  0  0  0  0  0
    5.0478    1.7663   17.0344 H   0  0  0  0  0  0  0  0  0  0  0  0
    3.9118    1.7892   19.2476 H   0  0  0  0  0  0  0  0  0  0  0  0
    4.9232    0.5276   21.1673 H   0  0  0  0  0  0  0  0  0  0  0  0
    8.2801   -1.3099   20.6149 H   0  0  0  0  0  0  0  0  0  0  0  0
    5.5880   -1.7713   21.6355 H   0  0  0  0  0  0  0  0  0  0  0  0
    6.6962   -4.9004   23.7794 C   0  0  0  0  0  0  0  0  0  0  0  0
    5.8837   -5.6539   24.6135 C   0  0  0  0  0  0  0  0  0  0  0  0
    6.3177   -6.3884   25.2814 H   0  0  0  0  0  0  0  0  0  0  0  0
    7.7714   -5.0838   23.7442 H   0  0  0  0  0  0  0  0  0  0  0  0
    4.2650   -2.9353   22.3694 H   0  0  0  0  0  0  0  0  0  0  0  0
    2.8801   -4.2027   23.9203 H   0  0  0  0  0  0  0  0  0  0  0  0
    4.1585   -7.0642   25.7890 H   0  0  0  0  0  0  0  0  0  0  0  0
    2.1505   -5.1301   26.4413 H   0  0  0  0  0  0  0  0  0  0  0  0
    1.7588   -5.8853   24.8756 H   0  0  0  0  0  0  0  0  0  0  0  0
    1.8837   -8.1561   25.8770 H   0  0  0  0  0  0  0  0  0  0  0  0
    0.7981   -7.1729   26.8557 H   0  0  0  0  0  0  0  0  0  0  0  0
    2.4353   -7.4832   27.4279 H   0  0  0  0  0  0  0  0  0  0  0  0
  1  2  1  0
  2  3  1  0
  3  4  1  0
  4  5  2  0
  5  6  1  0
  6  7  2  0
  7  8  1  0
  8  9  2  0
  8 10  1  0
 10 11  1  0
 11 12  1  0
 12 13  1  0
 12 14  1  0
 12 15  1  0
 11 16  1  0
 16 17  2  0
 17 18  1  0
 18 19  2  0
 19 20  1  0
 20 21  2  0
 21 22  1  0
 19 23  1  0
 18 24  1  0
 17 25  1  0
 11 26  1  0
 10 27  1  0
  7 28  1  0
 28 29  2  0
 29 30  1  0
 28 31  1  0
  6 32  1  0
  5 33  1  0
  3 34  1  0
  2 35  1  0
  2 36  1  0
  1 37  1  0
  1 38  1  0
  1 39  1  0
 29  4  1  0
 21 16  1  0
M  END
>  <plip>  (1) 
-0.1

>  <filename>  (1) 
[H][c]1[n][c]([H])[c]([C]([H])([N]([H])[C](=[O])[c]2[c]([H])[c]([H])[c]([N]([H])[C]([H])([H])[C]([H])([H])[H])[c]([H])[c]2[H])[C]([H])([H])[H])[c]([H])[c]1[H]

$$$$
