
     RDKit          3D

 32 34  0  0  0  0  0  0  0  0999 V2000
    4.9632    1.8107   16.9713 H   0  0  0  0  0  0  0  0  0  0  0  0
    5.4261    1.3157   17.8261 C   0  0  0  0  0  0  0  0  0  0  0  0
    6.5963    0.6976   17.6061 N   0  0  0  0  0  0  0  0  0  0  0  0
    7.1707    0.0748   18.6459 C   0  0  0  0  0  0  0  0  0  0  0  0
    8.1236   -0.4054   18.4382 H   0  0  0  0  0  0  0  0  0  0  0  0
    6.6394    0.0200   19.9563 C   0  0  0  0  0  0  0  0  0  0  0  0
    7.3201   -0.6890   21.0811 C   0  0  0  0  0  0  0  0  0  0  0  0
    8.0457   -1.8510   21.1780 C   0  0  0  0  0  0  0  0  0  0  0  0
    8.1860   -2.6219   20.4451 H   0  0  0  0  0  0  0  0  0  0  0  0
    8.5911   -2.0331   22.4227 N   0  0  0  0  0  0  0  0  0  0  0  0
    8.1890   -0.9903   23.1032 C   0  0  0  0  0  0  0  0  0  0  0  0
    8.4047   -0.7775   24.1382 H   0  0  0  0  0  0  0  0  0  0  0  0
    7.3914   -0.1555   22.3676 N   0  0  0  0  0  0  0  0  0  0  0  0
    6.7588    1.0226   22.7871 N   0  0  0  0  0  0  0  0  0  0  0  0
    7.4134    2.2606   22.2950 C   0  0  0  0  0  0  0  0  0  0  0  0
    6.6226    2.9369   21.9364 H   0  0  0  0  0  0  0  0  0  0  0  0
    8.0331    2.0138   21.4249 H   0  0  0  0  0  0  0  0  0  0  0  0
    8.3079    2.9666   23.3481 C   0  0  0  0  0  0  0  0  0  0  0  0
    9.2301    2.3748   23.4554 H   0  0  0  0  0  0  0  0  0  0  0  0
    8.5899    3.9558   22.9684 H   0  0  0  0  0  0  0  0  0  0  0  0
    7.7206    3.1085   24.6859 N   0  0  0  0  0  0  0  0  0  0  0  0
    6.9615    3.7894   24.6737 H   0  0  0  0  0  0  0  0  0  0  0  0
    7.2451    1.8051   25.1627 C   0  0  0  0  0  0  0  0  0  0  0  0
    8.1326    1.1788   25.3426 H   0  0  0  0  0  0  0  0  0  0  0  0
    6.7490    1.9410   26.1294 H   0  0  0  0  0  0  0  0  0  0  0  0
    6.2881    1.0630   24.1921 C   0  0  0  0  0  0  0  0  0  0  0  0
    6.1199    0.0418   24.5521 H   0  0  0  0  0  0  0  0  0  0  0  0
    5.3126    1.5668   24.1892 H   0  0  0  0  0  0  0  0  0  0  0  0
    5.4308    0.7146   20.1559 C   0  0  0  0  0  0  0  0  0  0  0  0
    5.0187    0.7680   21.1606 H   0  0  0  0  0  0  0  0  0  0  0  0
    4.8081    1.3396   19.0785 C   0  0  0  0  0  0  0  0  0  0  0  0
    3.8617    1.8537   19.2036 H   0  0  0  0  0  0  0  0  0  0  0  0
  1  2  1  0
  2  3  2  0
  3  4  1  0
  4  5  1  0
  4  6  2  0
  6  7  1  0
  7  8  2  0
  8  9  1  0
  8 10  1  0
 10 11  2  0
 11 12  1  0
 11 13  1  0
 13 14  1  0
 14 15  1  0
 15 16  1  0
 15 17  1  0
 15 18  1  0
 18 19  1  0
 18 20  1  0
 18 21  1  0
 21 22  1  0
 21 23  1  0
 23 24  1  0
 23 25  1  0
 23 26  1  0
 26 27  1  0
 26 28  1  0
  6 29  1  0
 29 30  1  0
 29 31  2  0
 31 32  1  0
 31  2  1  0
 13  7  1  0
 26 14  1  0
M  END
>  <plip>  (1) 
-0.03571428571428571

>  <filename>  (1) 
[H][c]1[n][c]([H])[c](-[c]2[c]([H])[n][c]([H])[n]2[N]2[C]([H])([H])[C]([H])([H])[N]([H])[C]([H])([H])[C]2([H])[H])[c]([H])[c]1[H]

$$$$
