
     RDKit          3D

 22 23  0  0  0  0  0  0  0  0999 V2000
    4.9250    1.7861   16.9903 H   0  0  0  0  0  0  0  0  0  0  0  0
    5.4016    1.2971   17.8349 C   0  0  0  0  0  0  0  0  0  0  0  0
    6.5646    0.6829   17.5774 N   0  0  0  0  0  0  0  0  0  0  0  0
    7.1602    0.0486   18.5936 C   0  0  0  0  0  0  0  0  0  0  0  0
    8.1099   -0.4323   18.3723 H   0  0  0  0  0  0  0  0  0  0  0  0
    6.6200   -0.0258   19.8824 C   0  0  0  0  0  0  0  0  0  0  0  0
    7.3953   -0.6931   20.9902 C   0  0  1  0  0  0  0  0  0  0  0  0
    6.7089   -0.9672   21.8059 H   0  0  0  0  0  0  0  0  0  0  0  0
    7.9838   -1.8691   20.5215 F   0  0  0  0  0  0  0  0  0  0  0  0
    8.4435    0.2170   21.5592 C   0  0  0  0  0  0  0  0  0  0  0  0
    8.3026    1.1344   22.5748 C   0  0  0  0  0  0  0  0  0  0  0  0
    7.4087    1.2879   23.1655 H   0  0  0  0  0  0  0  0  0  0  0  0
    9.5285    1.8397   22.6782 C   0  0  0  0  0  0  0  0  0  0  0  0
    9.7526    2.6167   23.3911 H   0  0  0  0  0  0  0  0  0  0  0  0
   10.3750    1.3496   21.7204 C   0  0  0  0  0  0  0  0  0  0  0  0
   11.4031    1.6083   21.4802 H   0  0  0  0  0  0  0  0  0  0  0  0
    9.7000    0.3723   21.0354 N   0  0  0  0  0  0  0  0  0  0  0  0
   10.0675   -0.1845   20.2845 H   0  0  0  0  0  0  0  0  0  0  0  0
    5.4214    0.6443   20.1488 C   0  0  0  0  0  0  0  0  0  0  0  0
    4.9894    0.6416   21.1550 H   0  0  0  0  0  0  0  0  0  0  0  0
    4.7990    1.3176   19.0986 C   0  0  0  0  0  0  0  0  0  0  0  0
    3.8684    1.8513   19.2486 H   0  0  0  0  0  0  0  0  0  0  0  0
  1  2  1  0
  2  3  2  0
  3  4  1  0
  4  5  1  0
  4  6  2  0
  6  7  1  0
  7  8  1  1
  7  9  1  0
  7 10  1  0
 10 11  2  0
 11 12  1  0
 11 13  1  0
 13 14  1  0
 13 15  2  0
 15 16  1  0
 15 17  1  0
 17 18  1  0
  6 19  1  0
 19 20  1  0
 19 21  2  0
 21 22  1  0
 21  2  1  0
 17 10  1  0
M  END
>  <plip>  (1) 
-0.06896551724137931

>  <filename>  (1) 
[H][c]1[n][c]([H])[c]([C@@]([H])([F])[c]2[c]([H])[c]([H])[c]([H])[n]2[H])[c]([H])[c]1[H]

$$$$
