
     RDKit          3D

 33 35  0  0  0  0  0  0  0  0999 V2000
    5.5017   -0.8131   25.5481 N   0  0  0  0  0  0  0  0  0  0  0  0
    6.4977   -1.3234   25.2520 C   0  0  0  0  0  0  0  0  0  0  0  0
    7.7660   -2.0091   24.9878 C   0  0  0  0  0  0  0  0  0  0  0  0
    8.3895   -2.7337   26.0026 C   0  0  0  0  0  0  0  0  0  0  0  0
    9.5915   -3.3763   25.6926 C   0  0  0  0  0  0  0  0  0  0  0  0
   10.1009   -3.2662   24.4063 C   0  0  0  0  0  0  0  0  0  0  0  0
   11.6317   -3.9799   24.0501 Cl  0  0  0  0  0  0  0  0  0  0  0  0
    9.3636   -2.5573   23.4178 C   0  0  0  0  0  0  0  0  0  0  0  0
    9.7275   -2.5263   22.1108 N   0  0  0  0  0  0  0  0  0  0  0  0
    9.0058   -1.8091   21.0833 C   0  0  0  0  0  0  0  0  0  0  0  0
    8.7981   -0.2941   21.2939 C   0  0  0  0  0  0  0  0  0  0  0  0
    7.2551   -0.4779   21.1784 C   0  0  0  0  0  0  0  0  0  0  0  0
    6.5453    0.1773   20.0290 C   0  0  0  0  0  0  0  0  0  0  0  0
    5.3067    0.8215   20.1618 C   0  0  0  0  0  0  0  0  0  0  0  0
    4.7223    1.4029   19.0333 C   0  0  0  0  0  0  0  0  0  0  0  0
    5.3954    1.3290   17.8089 C   0  0  0  0  0  0  0  0  0  0  0  0
    6.5688    0.6954   17.6498 N   0  0  0  0  0  0  0  0  0  0  0  0
    7.1060    0.1330   18.7408 C   0  0  0  0  0  0  0  0  0  0  0  0
    8.0469   -0.3987   18.5845 H   0  0  0  0  0  0  0  0  0  0  0  0
    4.9724    1.7914   16.9193 H   0  0  0  0  0  0  0  0  0  0  0  0
    3.7663    1.9130   19.0866 H   0  0  0  0  0  0  0  0  0  0  0  0
    4.8014    0.8704   21.1302 H   0  0  0  0  0  0  0  0  0  0  0  0
    7.4738   -2.0110   21.0220 C   0  0  0  0  0  0  0  0  0  0  0  0
    7.0794   -2.5756   21.8634 H   0  0  0  0  0  0  0  0  0  0  0  0
    7.1050   -2.4300   20.0855 H   0  0  0  0  0  0  0  0  0  0  0  0
    6.7644   -0.2427   22.1329 H   0  0  0  0  0  0  0  0  0  0  0  0
    9.1006    0.0038   22.2949 H   0  0  0  0  0  0  0  0  0  0  0  0
    9.2844    0.3537   20.5563 H   0  0  0  0  0  0  0  0  0  0  0  0
    9.4906   -2.0268   20.1260 H   0  0  0  0  0  0  0  0  0  0  0  0
   10.6586   -2.8510   21.9270 H   0  0  0  0  0  0  0  0  0  0  0  0
    8.2454   -1.9038   23.7467 N   0  0  0  0  0  0  0  0  0  0  0  0
   10.1352   -3.9580   26.4386 H   0  0  0  0  0  0  0  0  0  0  0  0
    7.9516   -2.7874   26.9922 H   0  0  0  0  0  0  0  0  0  0  0  0
  1  2  3  0
  2  3  1  0
  3  4  2  0
  4  5  1  0
  5  6  2  0
  6  7  1  0
  6  8  1  0
  8  9  1  0
  9 10  1  0
 10 11  1  0
 11 12  1  0
 12 13  1  0
 13 14  2  0
 14 15  1  0
 15 16  2  0
 16 17  1  0
 17 18  2  0
 18 19  1  0
 16 20  1  0
 15 21  1  0
 14 22  1  0
 12 23  1  0
 23 24  1  0
 23 25  1  0
 12 26  1  0
 11 27  1  0
 11 28  1  0
 10 29  1  0
  9 30  1  0
  8 31  2  0
  5 32  1  0
  4 33  1  0
 31  3  1  0
 23 10  1  0
 18 13  1  0
M  END
>  <plip>  (1) 
-0.034482758620689655

>  <filename>  (1) 
[H][c]1[n][c]([H])[c]([C]2([H])[C]([H])([H])[C]([H])([N]([H])[c]3[n][c]([C]#[N])[c]([H])[c]([H])[c]3[Cl])[C]2([H])[H])[c]([H])[c]1[H]

$$$$
