
     RDKit          3D

 36 37  0  0  0  0  0  0  0  0999 V2000
    4.9126    1.7877   16.9916 H   0  0  0  0  0  0  0  0  0  0  0  0
    5.3970    1.2969   17.8332 C   0  0  0  0  0  0  0  0  0  0  0  0
    6.5619    0.6869   17.5668 N   0  0  0  0  0  0  0  0  0  0  0  0
    7.1802    0.0770   18.5896 C   0  0  0  0  0  0  0  0  0  0  0  0
    8.1177   -0.4224   18.3566 H   0  0  0  0  0  0  0  0  0  0  0  0
    6.6825   -0.0095   19.9140 C   0  0  0  0  0  0  0  0  0  0  0  0
    7.3715   -0.7333   20.9029 N   0  0  0  0  0  0  0  0  0  0  0  0
    6.6252   -1.4600   21.9148 C   0  0  0  0  0  0  0  0  0  0  0  0
    5.6878   -1.8206   21.4769 H   0  0  0  0  0  0  0  0  0  0  0  0
    6.3831   -0.8720   22.8175 H   0  0  0  0  0  0  0  0  0  0  0  0
    7.1947   -2.3472   22.2243 H   0  0  0  0  0  0  0  0  0  0  0  0
    8.7842   -0.4533   21.1447 C   0  0  0  0  0  0  0  0  0  0  0  0
    9.1259   -1.0859   21.9748 H   0  0  0  0  0  0  0  0  0  0  0  0
    9.3624   -0.7724   20.2660 H   0  0  0  0  0  0  0  0  0  0  0  0
    9.1228    1.0204   21.4705 C   0  0  0  0  0  0  0  0  0  0  0  0
    8.8654    1.6310   20.5990 H   0  0  0  0  0  0  0  0  0  0  0  0
   10.2088    1.1080   21.5962 H   0  0  0  0  0  0  0  0  0  0  0  0
    8.3947    1.5249   22.6978 C   0  0  0  0  0  0  0  0  0  0  0  0
    7.2828    2.3708   22.5662 C   0  0  0  0  0  0  0  0  0  0  0  0
    6.9760    2.6937   21.5703 H   0  0  0  0  0  0  0  0  0  0  0  0
    6.5869    2.7913   23.6978 C   0  0  0  0  0  0  0  0  0  0  0  0
    5.7365    3.4621   23.5877 H   0  0  0  0  0  0  0  0  0  0  0  0
    6.9756    2.3690   24.9759 C   0  0  0  0  0  0  0  0  0  0  0  0
    6.4274    2.7022   25.8514 H   0  0  0  0  0  0  0  0  0  0  0  0
    8.0740    1.5116   25.1198 C   0  0  0  0  0  0  0  0  0  0  0  0
    8.5421    1.0289   26.3067 O   0  0  0  0  0  0  0  0  0  0  0  0
    7.9081    1.3855   27.5233 C   0  0  0  0  0  0  0  0  0  0  0  0
    7.9495    2.4649   27.7213 H   0  0  0  0  0  0  0  0  0  0  0  0
    8.4578    0.8683   28.3084 H   0  0  0  0  0  0  0  0  0  0  0  0
    6.8619    1.0566   27.5713 H   0  0  0  0  0  0  0  0  0  0  0  0
    8.7714    1.0898   23.9727 C   0  0  0  0  0  0  0  0  0  0  0  0
    9.6120    0.4160   24.0980 H   0  0  0  0  0  0  0  0  0  0  0  0
    5.4511    0.6383   20.1627 C   0  0  0  0  0  0  0  0  0  0  0  0
    5.0334    0.6283   21.1701 H   0  0  0  0  0  0  0  0  0  0  0  0
    4.8154    1.3056   19.1053 C   0  0  0  0  0  0  0  0  0  0  0  0
    3.8824    1.8344   19.2592 H   0  0  0  0  0  0  0  0  0  0  0  0
  1  2  1  0
  2  3  2  0
  3  4  1  0
  4  5  1  0
  4  6  2  0
  6  7  1  0
  7  8  1  0
  8  9  1  0
  8 10  1  0
  8 11  1  0
  7 12  1  0
 12 13  1  0
 12 14  1  0
 12 15  1  0
 15 16  1  0
 15 17  1  0
 15 18  1  0
 18 19  2  0
 19 20  1  0
 19 21  1  0
 21 22  1  0
 21 23  2  0
 23 24  1  0
 23 25  1  0
 25 26  1  0
 26 27  1  0
 27 28  1  0
 27 29  1  0
 27 30  1  0
 25 31  2  0
 31 32  1  0
  6 33  1  0
 33 34  1  0
 33 35  2  0
 35 36  1  0
 35  2  1  0
 31 18  1  0
M  END
>  <plip>  (1) 
-0.03571428571428571

>  <filename>  (1) 
[H][c]1[n][c]([H])[c]([N]([C]([H])([H])[H])[C]([H])([H])[C]([H])([H])[c]2[c]([H])[c]([H])[c]([H])[c]([O][C]([H])([H])[H])[c]2[H])[c]([H])[c]1[H]

$$$$
