
     RDKit          3D

 38 41  0  0  0  0  0  0  0  0999 V2000
    4.9676    1.7879   16.7946 H   0  0  0  0  0  0  0  0  0  0  0  0
    5.4184    1.3143   17.6613 C   0  0  0  0  0  0  0  0  0  0  0  0
    6.5491    0.6274   17.4354 N   0  0  0  0  0  0  0  0  0  0  0  0
    7.1232    0.0207   18.4796 C   0  0  0  0  0  0  0  0  0  0  0  0
    8.0187   -0.5665   18.2722 H   0  0  0  0  0  0  0  0  0  0  0  0
    6.6245    0.0907   19.8028 C   0  0  0  0  0  0  0  0  0  0  0  0
    7.2697   -0.5947   20.8563 N   0  0  0  0  0  0  0  0  0  0  0  0
    7.1347   -0.2902   22.1952 C   0  0  0  0  0  0  0  0  0  0  0  0
    6.5690    0.6779   22.6657 O   0  0  0  0  0  0  0  0  0  0  0  0
    7.8093   -1.3959   23.0045 C   0  0  2  0  0  0  0  0  0  0  0  0
    6.9764   -1.8701   23.5421 H   0  0  0  0  0  0  0  0  0  0  0  0
    8.7939   -0.8461   24.0104 C   0  0  0  0  0  0  0  0  0  0  0  0
    8.5595   -1.0774   25.3486 C   0  0  0  0  0  0  0  0  0  0  0  0
    7.6461   -1.5923   25.6471 H   0  0  0  0  0  0  0  0  0  0  0  0
    9.4857   -0.6728   26.3398 C   0  0  0  0  0  0  0  0  0  0  0  0
    9.2684   -0.8701   27.3883 H   0  0  0  0  0  0  0  0  0  0  0  0
   10.6466   -0.0409   25.9700 C   0  0  0  0  0  0  0  0  0  0  0  0
   11.3306    0.3185   26.7265 H   0  0  0  0  0  0  0  0  0  0  0  0
   10.9425    0.2251   24.5968 C   0  0  0  0  0  0  0  0  0  0  0  0
   12.1640    0.8569   24.1916 C   0  0  0  0  0  0  0  0  0  0  0  0
   12.9356    1.0260   24.9331 H   0  0  0  0  0  0  0  0  0  0  0  0
   12.3727    1.2520   22.8922 C   0  0  0  0  0  0  0  0  0  0  0  0
   13.2744    1.7855   22.5970 H   0  0  0  0  0  0  0  0  0  0  0  0
   11.3893    0.9818   21.9093 C   0  0  0  0  0  0  0  0  0  0  0  0
   11.5426    1.3223   20.8893 H   0  0  0  0  0  0  0  0  0  0  0  0
   10.2457    0.2929   22.2457 C   0  0  0  0  0  0  0  0  0  0  0  0
    9.5203    0.0686   21.4716 H   0  0  0  0  0  0  0  0  0  0  0  0
    9.9757   -0.1214   23.5998 C   0  0  0  0  0  0  0  0  0  0  0  0
    8.4256   -2.3696   21.9738 C   0  0  0  0  0  0  0  0  0  0  0  0
    8.1158   -3.4048   22.1276 H   0  0  0  0  0  0  0  0  0  0  0  0
    9.5213   -2.3745   22.0275 H   0  0  0  0  0  0  0  0  0  0  0  0
    7.9642   -1.8560   20.6094 C   0  0  0  0  0  0  0  0  0  0  0  0
    8.8220   -1.7098   19.9396 H   0  0  0  0  0  0  0  0  0  0  0  0
    7.2510   -2.5366   20.1364 H   0  0  0  0  0  0  0  0  0  0  0  0
    5.4432    0.8203   20.0241 C   0  0  0  0  0  0  0  0  0  0  0  0
    5.0360    0.9142   21.0261 H   0  0  0  0  0  0  0  0  0  0  0  0
    4.8259    1.4191   18.9245 C   0  0  0  0  0  0  0  0  0  0  0  0
    3.8967    1.9684   19.0440 H   0  0  0  0  0  0  0  0  0  0  0  0
  1  2  1  0
  2  3  2  0
  3  4  1  0
  4  5  1  0
  4  6  2  0
  6  7  1  0
  7  8  1  0
  8  9  2  0
  8 10  1  0
 10 11  1  1
 10 12  1  0
 12 13  2  0
 13 14  1  0
 13 15  1  0
 15 16  1  0
 15 17  2  0
 17 18  1  0
 17 19  1  0
 19 20  2  0
 20 21  1  0
 20 22  1  0
 22 23  1  0
 22 24  2  0
 24 25  1  0
 24 26  1  0
 26 27  1  0
 26 28  2  0
 10 29  1  0
 29 30  1  0
 29 31  1  0
 29 32  1  0
 32 33  1  0
 32 34  1  0
  6 35  1  0
 35 36  1  0
 35 37  2  0
 37 38  1  0
 37  2  1  0
 32  7  1  0
 28 12  1  0
 28 19  1  0
M  END
>  <plip>  (1) 
-0.13793103448275862

>  <filename>  (1) 
[H][c]1[n][c]([H])[c]([N]2[C](=[O])[C@]([H])([c]3[c]([H])[c]([H])[c]([H])[c]4[c]([H])[c]([H])[c]([H])[c]([H])[c]34)[C]([H])([H])[C]2([H])[H])[c]([H])[c]1[H]

$$$$
