
     RDKit          3D

 43 43  0  0  0  0  0  0  0  0999 V2000
    9.8857    5.8974   23.7390 C   0  0  0  0  0  0  0  0  0  0  0  0
    8.4649    5.7565   23.1934 C   0  0  0  0  0  0  0  0  0  0  0  0
    8.1462    4.3776   22.6145 C   0  0  0  0  0  0  0  0  0  0  0  0
    8.1663    3.2142   23.6080 C   0  0  0  0  0  0  0  0  0  0  0  0
    7.8023    1.8844   22.9417 C   0  0  0  0  0  0  0  0  0  0  0  0
    8.8652    1.4680   21.5738 S   0  0  0  0  0  0  0  0  0  0  0  0
    8.3762    2.1712   20.4156 O   0  0  0  0  0  0  0  0  0  0  0  0
   10.2438    1.6094   21.9995 O   0  0  0  0  0  0  0  0  0  0  0  0
    8.5764   -0.1553   21.3501 N   0  0  0  0  0  0  0  0  0  0  0  0
    9.5617   -1.0584   21.9717 C   0  0  0  0  0  0  0  0  0  0  0  0
    9.4105   -1.2272   23.4788 C   0  0  0  0  0  0  0  0  0  0  0  0
    9.6781   -0.3095   24.0114 H   0  0  0  0  0  0  0  0  0  0  0  0
    8.3848   -1.4972   23.7543 H   0  0  0  0  0  0  0  0  0  0  0  0
   10.0656   -2.0279   23.8363 H   0  0  0  0  0  0  0  0  0  0  0  0
   10.5638   -0.7008   21.7178 H   0  0  0  0  0  0  0  0  0  0  0  0
    9.4586   -2.0266   21.4752 H   0  0  0  0  0  0  0  0  0  0  0  0
    7.1474   -0.5420   21.2395 C   0  0  0  0  0  0  0  0  0  0  0  0
    7.0454   -2.0542   21.0625 C   0  0  0  0  0  0  0  0  0  0  0  0
    7.7329   -2.3468   20.2732 H   0  0  0  0  0  0  0  0  0  0  0  0
    7.3302   -2.5767   21.9797 H   0  0  0  0  0  0  0  0  0  0  0  0
    6.0429   -2.3733   20.7790 H   0  0  0  0  0  0  0  0  0  0  0  0
    6.4848    0.1619   20.0812 C   0  0  0  0  0  0  0  0  0  0  0  0
    5.2409    0.8021   20.1632 C   0  0  0  0  0  0  0  0  0  0  0  0
    4.6891    1.3530   18.9992 C   0  0  0  0  0  0  0  0  0  0  0  0
    5.3918    1.2265   17.7978 C   0  0  0  0  0  0  0  0  0  0  0  0
    6.5722    0.5954   17.7014 N   0  0  0  0  0  0  0  0  0  0  0  0
    7.1004    0.0992   18.8283 C   0  0  0  0  0  0  0  0  0  0  0  0
    8.0831   -0.3655   18.7354 H   0  0  0  0  0  0  0  0  0  0  0  0
    5.0013    1.6605   16.8776 H   0  0  0  0  0  0  0  0  0  0  0  0
    3.7479    1.8932   19.0155 H   0  0  0  0  0  0  0  0  0  0  0  0
    4.7013    0.8665   21.1106 H   0  0  0  0  0  0  0  0  0  0  0  0
    6.5953   -0.2916   22.1632 H   0  0  0  0  0  0  0  0  0  0  0  0
    7.8910    1.0414   23.6310 H   0  0  0  0  0  0  0  0  0  0  0  0
    6.8043    1.9120   22.4934 H   0  0  0  0  0  0  0  0  0  0  0  0
    9.1544    3.1096   24.0778 H   0  0  0  0  0  0  0  0  0  0  0  0
    7.4403    3.3782   24.4152 H   0  0  0  0  0  0  0  0  0  0  0  0
    8.8604    4.1507   21.8165 H   0  0  0  0  0  0  0  0  0  0  0  0
    7.1606    4.4032   22.1276 H   0  0  0  0  0  0  0  0  0  0  0  0
    8.3271    6.4877   22.3878 H   0  0  0  0  0  0  0  0  0  0  0  0
    7.7337    6.0157   23.9717 H   0  0  0  0  0  0  0  0  0  0  0  0
   10.0919    5.1830   24.5435 H   0  0  0  0  0  0  0  0  0  0  0  0
   10.6320    5.7280   22.9532 H   0  0  0  0  0  0  0  0  0  0  0  0
   10.0457    6.9021   24.1415 H   0  0  0  0  0  0  0  0  0  0  0  0
  1  2  1  0
  2  3  1  0
  3  4  1  0
  4  5  1  0
  5  6  1  0
  6  7  2  0
  6  8  2  0
  6  9  1  0
  9 10  1  0
 10 11  1  0
 11 12  1  0
 11 13  1  0
 11 14  1  0
 10 15  1  0
 10 16  1  0
  9 17  1  0
 17 18  1  0
 18 19  1  0
 18 20  1  0
 18 21  1  0
 17 22  1  0
 22 23  2  0
 23 24  1  0
 24 25  2  0
 25 26  1  0
 26 27  2  0
 27 28  1  0
 25 29  1  0
 24 30  1  0
 23 31  1  0
 17 32  1  0
  5 33  1  0
  5 34  1  0
  4 35  1  0
  4 36  1  0
  3 37  1  0
  3 38  1  0
  2 39  1  0
  2 40  1  0
  1 41  1  0
  1 42  1  0
  1 43  1  0
 27 22  1  0
M  END
>  <plip>  (1) 
-0.10714285714285714

>  <filename>  (1) 
[H][c]1[n][c]([H])[c]([C]([H])([N]([C]([H])([H])[C]([H])([H])[H])[S](=[O])(=[O])[C]([H])([H])[C]([H])([H])[C]([H])([H])[C]([H])([H])[C]([H])([H])[H])[C]([H])([H])[H])[c]([H])[c]1[H]

$$$$
