
     RDKit          3D

 44 46  0  0  0  0  0  0  0  0999 V2000
    9.5721    1.0860   21.3452 O   0  0  0  0  0  0  0  0  0  0  0  0
    8.7805    0.8764   22.2451 C   0  0  0  0  0  0  0  0  0  0  0  0
    8.9775    1.4416   23.6686 C   0  0  0  0  0  0  0  0  0  0  0  0
    8.6714    0.5101   24.7584 N   0  0  0  0  0  0  0  0  0  0  0  0
    7.7234    0.6119   25.7605 C   0  0  0  0  0  0  0  0  0  0  0  0
    7.6172   -0.4512   26.5131 N   0  0  0  0  0  0  0  0  0  0  0  0
    8.5498   -1.3396   25.9970 C   0  0  0  0  0  0  0  0  0  0  0  0
    8.8282   -2.6730   26.3634 C   0  0  0  0  0  0  0  0  0  0  0  0
    9.7374   -3.4027   25.5948 C   0  0  0  0  0  0  0  0  0  0  0  0
   10.3972   -2.8013   24.4932 C   0  0  0  0  0  0  0  0  0  0  0  0
   10.1847   -1.4633   24.1587 C   0  0  0  0  0  0  0  0  0  0  0  0
    9.2346   -0.7501   24.9127 C   0  0  0  0  0  0  0  0  0  0  0  0
   10.7454   -0.9802   23.3606 H   0  0  0  0  0  0  0  0  0  0  0  0
   11.0798   -3.3923   23.8844 H   0  0  0  0  0  0  0  0  0  0  0  0
    9.9347   -4.4431   25.8541 H   0  0  0  0  0  0  0  0  0  0  0  0
    8.3214   -3.0824   27.2326 H   0  0  0  0  0  0  0  0  0  0  0  0
    7.1241    1.5117   25.8660 H   0  0  0  0  0  0  0  0  0  0  0  0
   10.0078    1.7989   23.7246 H   0  0  0  0  0  0  0  0  0  0  0  0
    8.3263    2.3139   23.7675 H   0  0  0  0  0  0  0  0  0  0  0  0
    7.6492    0.1477   22.0996 N   0  0  0  0  0  0  0  0  0  0  0  0
    7.4122   -0.7082   20.9565 C   0  0  0  0  0  0  0  0  0  0  0  0
    6.6919   -1.9946   21.3884 C   0  0  0  0  0  0  0  0  0  0  0  0
    7.4223   -2.8702   22.4267 C   0  0  0  0  0  0  0  0  0  0  0  0
    6.6803   -4.1667   22.7604 C   0  0  0  0  0  0  0  0  0  0  0  0
    6.5576   -5.0486   21.6573 O   0  0  0  0  0  0  0  0  0  0  0  0
    7.4492   -5.3282   21.4176 H   0  0  0  0  0  0  0  0  0  0  0  0
    7.1672   -4.6698   23.6130 H   0  0  0  0  0  0  0  0  0  0  0  0
    5.6520   -3.9414   23.0728 H   0  0  0  0  0  0  0  0  0  0  0  0
    7.5530   -2.3379   23.3787 H   0  0  0  0  0  0  0  0  0  0  0  0
    8.4354   -3.1232   22.0712 H   0  0  0  0  0  0  0  0  0  0  0  0
    6.5104   -2.5967   20.4903 H   0  0  0  0  0  0  0  0  0  0  0  0
    5.6995   -1.7156   21.7730 H   0  0  0  0  0  0  0  0  0  0  0  0
    6.6470    0.0499   19.8815 C   0  0  0  0  0  0  0  0  0  0  0  0
    5.4231    0.6996   20.1087 C   0  0  0  0  0  0  0  0  0  0  0  0
    4.7924    1.3347   19.0355 C   0  0  0  0  0  0  0  0  0  0  0  0
    5.4023    1.3108   17.7755 C   0  0  0  0  0  0  0  0  0  0  0  0
    6.5697    0.6972   17.5347 N   0  0  0  0  0  0  0  0  0  0  0  0
    7.1616    0.0980   18.5778 C   0  0  0  0  0  0  0  0  0  0  0  0
    8.1149   -0.3851   18.3617 H   0  0  0  0  0  0  0  0  0  0  0  0
    4.9353    1.8070   16.9253 H   0  0  0  0  0  0  0  0  0  0  0  0
    3.8484    1.8528   19.1611 H   0  0  0  0  0  0  0  0  0  0  0  0
    4.9736    0.7321   21.1048 H   0  0  0  0  0  0  0  0  0  0  0  0
    8.3924   -0.9766   20.5340 H   0  0  0  0  0  0  0  0  0  0  0  0
    7.1175   -0.0350   22.9352 H   0  0  0  0  0  0  0  0  0  0  0  0
  1  2  2  0
  2  3  1  0
  3  4  1  0
  4  5  1  0
  5  6  2  0
  6  7  1  0
  7  8  2  0
  8  9  1  0
  9 10  2  0
 10 11  1  0
 11 12  2  0
 11 13  1  0
 10 14  1  0
  9 15  1  0
  8 16  1  0
  5 17  1  0
  3 18  1  0
  3 19  1  0
  2 20  1  0
 20 21  1  0
 21 22  1  0
 22 23  1  0
 23 24  1  0
 24 25  1  0
 25 26  1  0
 24 27  1  0
 24 28  1  0
 23 29  1  0
 23 30  1  0
 22 31  1  0
 22 32  1  0
 21 33  1  0
 33 34  2  0
 34 35  1  0
 35 36  2  0
 36 37  1  0
 37 38  2  0
 38 39  1  0
 36 40  1  0
 35 41  1  0
 34 42  1  0
 21 43  1  0
 20 44  1  0
 12  4  1  0
 38 33  1  0
 12  7  1  0
M  END
>  <plip>  (1) 
-0.14285714285714285

>  <filename>  (1) 
[H][O][C]([H])([H])[C]([H])([H])[C]([H])([H])[C]([H])([c]1[c]([H])[n][c]([H])[c]([H])[c]1[H])[N]([H])[C](=[O])[C]([H])([H])[n]1[c]([H])[n][c]2[c]([H])[c]([H])[c]([H])[c]([H])[c]21

$$$$
