
     RDKit          3D

 27 28  0  0  0  0  0  0  0  0999 V2000
    4.9836    1.8222   16.8664 H   0  0  0  0  0  0  0  0  0  0  0  0
    5.4460    1.3218   17.7139 C   0  0  0  0  0  0  0  0  0  0  0  0
    6.6005    0.6811   17.4605 N   0  0  0  0  0  0  0  0  0  0  0  0
    7.1860    0.0559   18.4896 C   0  0  0  0  0  0  0  0  0  0  0  0
    8.1178   -0.4578   18.2683 H   0  0  0  0  0  0  0  0  0  0  0  0
    6.6684    0.0238   19.8056 C   0  0  0  0  0  0  0  0  0  0  0  0
    7.3430   -0.6448   20.8756 C   0  0  0  0  0  0  0  0  0  0  0  0
    7.8804   -1.1810   21.8269 C   0  0  0  0  0  0  0  0  0  0  0  0
    8.4494   -1.8330   22.8227 N   0  0  0  0  0  0  0  0  0  0  0  0
    9.3168   -1.4844   23.2308 H   0  0  0  0  0  0  0  0  0  0  0  0
    7.7573   -2.8192   23.6490 C   0  0  0  0  0  0  0  0  0  0  0  0
    6.9117   -2.3736   24.1945 H   0  0  0  0  0  0  0  0  0  0  0  0
    7.3305   -3.6083   23.0115 H   0  0  0  0  0  0  0  0  0  0  0  0
    8.7115   -3.4358   24.6574 C   0  0  0  0  0  0  0  0  0  0  0  0
    8.3314   -3.5820   25.9997 C   0  0  0  0  0  0  0  0  0  0  0  0
    7.4035   -3.1481   26.3657 H   0  0  0  0  0  0  0  0  0  0  0  0
    9.1768   -4.2685   26.8797 C   0  0  0  0  0  0  0  0  0  0  0  0
    8.8927   -4.3912   27.9229 H   0  0  0  0  0  0  0  0  0  0  0  0
   10.3441   -4.8182   26.5231 N   0  0  0  0  0  0  0  0  0  0  0  0
   10.7258   -4.6458   25.2492 C   0  0  0  0  0  0  0  0  0  0  0  0
   11.6820   -5.0869   24.9733 H   0  0  0  0  0  0  0  0  0  0  0  0
    9.9724   -3.9411   24.3036 C   0  0  0  0  0  0  0  0  0  0  0  0
   10.3603   -3.7698   23.3069 H   0  0  0  0  0  0  0  0  0  0  0  0
    5.4522    0.6935   20.0384 C   0  0  0  0  0  0  0  0  0  0  0  0
    5.0112    0.6922   21.0352 H   0  0  0  0  0  0  0  0  0  0  0  0
    4.8335    1.3493   18.9725 C   0  0  0  0  0  0  0  0  0  0  0  0
    3.8955    1.8801   19.1057 H   0  0  0  0  0  0  0  0  0  0  0  0
  1  2  1  0
  2  3  2  0
  3  4  1  0
  4  5  1  0
  4  6  2  0
  6  7  1  0
  7  8  3  0
  8  9  1  0
  9 10  1  0
  9 11  1  0
 11 12  1  0
 11 13  1  0
 11 14  1  0
 14 15  2  0
 15 16  1  0
 15 17  1  0
 17 18  1  0
 17 19  2  0
 19 20  1  0
 20 21  1  0
 20 22  2  0
 22 23  1  0
  6 24  1  0
 24 25  1  0
 24 26  2  0
 26 27  1  0
 26  2  1  0
 22 14  1  0
M  END
>  <plip>  (1) 
-0.03571428571428571

>  <filename>  (1) 
[H][c]1[n][c]([H])[c]([C]#[C][N]([H])[C]([H])([H])[c]2[c]([H])[c]([H])[n][c]([H])[c]2[H])[c]([H])[c]1[H]

$$$$
