
     RDKit          3D

 39 41  0  0  0  0  0  0  0  0999 V2000
    8.0052    2.4433   21.7585 C   0  0  0  0  0  0  0  0  0  0  0  0
    9.4000    1.8985   21.7982 N   0  0  0  0  0  4  0  0  0  0  0  0
    9.8854    1.6600   23.2336 C   0  0  0  0  0  0  0  0  0  0  0  0
   11.3771    1.5011   23.2537 C   0  0  0  0  0  0  0  0  0  0  0  0
   12.2260    2.4587   22.8818 C   0  0  0  0  0  0  0  0  0  0  0  0
   13.6676    2.2577   23.2352 C   0  0  0  0  0  0  0  0  0  0  0  0
   13.7964    0.5716   23.9290 S   0  0  0  0  0  0  0  0  0  0  0  0
   12.0179    0.2219   23.7416 C   0  0  0  0  0  0  0  0  0  0  0  0
   11.6069   -0.1148   24.6961 H   0  0  0  0  0  0  0  0  0  0  0  0
   11.8672   -0.5870   23.0180 H   0  0  0  0  0  0  0  0  0  0  0  0
   13.9600    2.9948   23.9752 H   0  0  0  0  0  0  0  0  0  0  0  0
   14.3714    2.3881   22.4103 H   0  0  0  0  0  0  0  0  0  0  0  0
   11.9031    3.4080   22.4508 H   0  0  0  0  0  0  0  0  0  0  0  0
    9.5717    2.5126   23.8472 H   0  0  0  0  0  0  0  0  0  0  0  0
    9.3745    0.7813   23.6292 H   0  0  0  0  0  0  0  0  0  0  0  0
    9.5493    0.6015   20.9604 C   0  0  0  0  0  0  0  0  0  0  0  0
    8.6525   -0.5118   21.4006 C   0  0  0  0  0  0  0  0  0  0  0  0
    8.8408   -1.4839   22.3639 C   0  0  0  0  0  0  0  0  0  0  0  0
    7.6057   -2.1576   22.4424 C   0  0  0  0  0  0  0  0  0  0  0  0
    6.7218   -1.6618   21.5956 N   0  0  0  0  0  0  0  0  0  0  0  0
    7.3630   -0.6657   20.9510 N   0  0  0  0  0  0  0  0  0  0  0  0
    6.6737    0.0113   19.9129 C   0  0  0  0  0  0  0  0  0  0  0  0
    5.4424    0.6341   20.1634 C   0  0  0  0  0  0  0  0  0  0  0  0
    4.8170    1.3065   19.1117 C   0  0  0  0  0  0  0  0  0  0  0  0
    5.4188    1.2965   17.8486 C   0  0  0  0  0  0  0  0  0  0  0  0
    6.5702    0.6568   17.5918 N   0  0  0  0  0  0  0  0  0  0  0  0
    7.1799    0.0276   18.6042 C   0  0  0  0  0  0  0  0  0  0  0  0
    8.1069   -0.4918   18.3569 H   0  0  0  0  0  0  0  0  0  0  0  0
    4.9520    1.8138   17.0128 H   0  0  0  0  0  0  0  0  0  0  0  0
    3.8815    1.8358   19.2593 H   0  0  0  0  0  0  0  0  0  0  0  0
    4.9909    0.5821   21.1564 H   0  0  0  0  0  0  0  0  0  0  0  0
    7.3153   -2.9773   23.0865 H   0  0  0  0  0  0  0  0  0  0  0  0
    9.7308   -1.6417   22.9569 H   0  0  0  0  0  0  0  0  0  0  0  0
    9.3777    0.8554   19.9143 H   0  0  0  0  0  0  0  0  0  0  0  0
   10.5883    0.2835   21.0582 H   0  0  0  0  0  0  0  0  0  0  0  0
   10.0732    2.6044   21.4254 H   0  0  0  0  0  0  0  0  0  0  0  0
    7.3318    1.7663   22.2997 H   0  0  0  0  0  0  0  0  0  0  0  0
    7.6483    2.5409   20.7295 H   0  0  0  0  0  0  0  0  0  0  0  0
    7.9513    3.4306   22.2352 H   0  0  0  0  0  0  0  0  0  0  0  0
  1  2  1  0
  2  3  1  0
  3  4  1  0
  4  5  2  0
  5  6  1  0
  6  7  1  0
  7  8  1  0
  8  9  1  0
  8 10  1  0
  6 11  1  0
  6 12  1  0
  5 13  1  0
  3 14  1  0
  3 15  1  0
  2 16  1  0
 16 17  1  0
 17 18  2  0
 18 19  1  0
 19 20  2  0
 20 21  1  0
 21 22  1  0
 22 23  2  0
 23 24  1  0
 24 25  2  0
 25 26  1  0
 26 27  2  0
 27 28  1  0
 25 29  1  0
 24 30  1  0
 23 31  1  0
 19 32  1  0
 18 33  1  0
 16 34  1  0
 16 35  1  0
  2 36  1  0
  1 37  1  0
  1 38  1  0
  1 39  1  0
  8  4  1  0
 21 17  1  0
 27 22  1  0
M  CHG  1   2   1
M  END
>  <plip>  (1) 
-0.10714285714285714

>  <filename>  (1) 
[H][C]1=[C]([C]([H])([H])[N+]([H])([C]([H])([H])[H])[C]([H])([H])[c]2[c]([H])[c]([H])[n][n]2-[c]2[c]([H])[n][c]([H])[c]([H])[c]2[H])[C]([H])([H])[S][C]1([H])[H]

$$$$
