
     RDKit          3D

 24 25  0  0  0  0  0  0  0  0999 V2000
    4.9169    1.8186   16.9720 H   0  0  0  0  0  0  0  0  0  0  0  0
    5.3826    1.3092   17.8154 C   0  0  0  0  0  0  0  0  0  0  0  0
    6.5453    0.6937   17.5519 N   0  0  0  0  0  0  0  0  0  0  0  0
    7.1574    0.0749   18.5691 C   0  0  0  0  0  0  0  0  0  0  0  0
    8.1046   -0.4066   18.3388 H   0  0  0  0  0  0  0  0  0  0  0  0
    6.6508    0.0056   19.8832 C   0  0  0  0  0  0  0  0  0  0  0  0
    7.3878   -0.7167   20.9732 C   0  0  0  0  0  0  0  0  0  0  0  0
    6.7745   -1.7863   21.6578 C   0  0  0  0  0  0  0  0  0  0  0  0
    5.7652   -2.0917   21.3816 H   0  0  0  0  0  0  0  0  0  0  0  0
    7.3487   -2.5053   22.6263 N   0  0  0  0  0  0  0  0  0  0  0  0
    8.5898   -2.1706   22.9958 C   0  0  0  0  0  0  0  0  0  0  0  0
    9.0222   -2.7577   23.8059 H   0  0  0  0  0  0  0  0  0  0  0  0
    9.2968   -1.1287   22.4065 C   0  0  0  0  0  0  0  0  0  0  0  0
   10.2820   -0.8552   22.7582 H   0  0  0  0  0  0  0  0  0  0  0  0
    8.6973   -0.3840   21.3859 C   0  0  0  0  0  0  0  0  0  0  0  0
    9.5701    1.0432   20.7871 S   0  0  0  0  0  0  0  0  0  0  0  0
    8.8125    2.2851   21.8733 C   0  0  0  0  0  0  0  0  0  0  0  0
    7.7280    2.2798   21.7360 H   0  0  0  0  0  0  0  0  0  0  0  0
    9.0488    2.0767   22.9190 H   0  0  0  0  0  0  0  0  0  0  0  0
    9.2149    3.2634   21.6035 H   0  0  0  0  0  0  0  0  0  0  0  0
    5.4251    0.6418   20.1296 C   0  0  0  0  0  0  0  0  0  0  0  0
    5.0140    0.6273   21.1409 H   0  0  0  0  0  0  0  0  0  0  0  0
    4.7863    1.3147   19.0821 C   0  0  0  0  0  0  0  0  0  0  0  0
    3.8565    1.8541   19.2290 H   0  0  0  0  0  0  0  0  0  0  0  0
  1  2  1  0
  2  3  2  0
  3  4  1  0
  4  5  1  0
  4  6  2  0
  6  7  1  0
  7  8  2  0
  8  9  1  0
  8 10  1  0
 10 11  2  0
 11 12  1  0
 11 13  1  0
 13 14  1  0
 13 15  2  0
 15 16  1  0
 16 17  1  0
 17 18  1  0
 17 19  1  0
 17 20  1  0
  6 21  1  0
 21 22  1  0
 21 23  2  0
 23 24  1  0
 23  2  1  0
 15  7  1  0
M  END
>  <plip>  (1) 
-0.0

>  <filename>  (1) 
[H][c]1[n][c]([H])[c](-[c]2[c]([H])[n][c]([H])[c]([H])[c]2[S][C]([H])([H])[H])[c]([H])[c]1[H]

$$$$
