
     RDKit          3D

 28 29  0  0  0  0  0  0  0  0999 V2000
    6.4494    0.9611   24.3188 H   0  0  0  0  0  0  0  0  0  0  0  0
    7.2875    1.4260   24.1879 O   0  0  0  0  0  0  0  0  0  0  0  0
    7.7349    0.9984   22.9247 C   0  0  2  0  0  0  0  0  0  0  0  0
    7.4342    1.7010   22.1348 H   0  0  0  0  0  0  0  0  0  0  0  0
    6.8384   -0.5669   22.5455 S   0  0  0  0  0  0  0  0  0  0  0  0
    7.1764   -0.8272   20.9067 N   0  0  0  0  0  0  0  0  0  0  0  0
    8.0723   -1.2577   20.7264 H   0  0  0  0  0  0  0  0  0  0  0  0
    6.5843   -0.0859   19.8626 C   0  0  0  0  0  0  0  0  0  0  0  0
    7.1434   -0.0154   18.5588 C   0  0  0  0  0  0  0  0  0  0  0  0
    8.0796   -0.5326   18.3432 H   0  0  0  0  0  0  0  0  0  0  0  0
    6.6041    0.6700   17.5396 N   0  0  0  0  0  0  0  0  0  0  0  0
    5.4584    1.3351   17.7681 C   0  0  0  0  0  0  0  0  0  0  0  0
    5.0402    1.8979   16.9337 H   0  0  0  0  0  0  0  0  0  0  0  0
    4.8239    1.3339   19.0134 C   0  0  0  0  0  0  0  0  0  0  0  0
    3.9093    1.8991   19.1562 H   0  0  0  0  0  0  0  0  0  0  0  0
    5.3912    0.6203   20.0725 C   0  0  0  0  0  0  0  0  0  0  0  0
    4.9312    0.6056   21.0564 H   0  0  0  0  0  0  0  0  0  0  0  0
    9.2387    0.8455   22.8800 C   0  0  0  0  0  0  0  0  0  0  0  0
    9.9479    1.2668   21.7427 C   0  0  0  0  0  0  0  0  0  0  0  0
    9.4285    1.7928   20.9436 H   0  0  0  0  0  0  0  0  0  0  0  0
   11.3314    1.0655   21.6524 C   0  0  0  0  0  0  0  0  0  0  0  0
   11.8643    1.3769   20.7611 H   0  0  0  0  0  0  0  0  0  0  0  0
   12.0223    0.4618   22.7057 C   0  0  0  0  0  0  0  0  0  0  0  0
   13.0996    0.3148   22.6607 H   0  0  0  0  0  0  0  0  0  0  0  0
   11.3264    0.0489   23.8483 C   0  0  0  0  0  0  0  0  0  0  0  0
   11.8650   -0.3859   24.6830 H   0  0  0  0  0  0  0  0  0  0  0  0
    9.9410    0.2354   23.9296 C   0  0  0  0  0  0  0  0  0  0  0  0
    9.3957   -0.1034   24.8064 H   0  0  0  0  0  0  0  0  0  0  0  0
  1  2  1  0
  2  3  1  0
  3  4  1  6
  3  5  1  0
  5  6  1  0
  6  7  1  0
  6  8  1  0
  8  9  2  0
  9 10  1  0
  9 11  1  0
 11 12  2  0
 12 13  1  0
 12 14  1  0
 14 15  1  0
 14 16  2  0
 16 17  1  0
  3 18  1  0
 18 19  2  0
 19 20  1  0
 19 21  1  0
 21 22  1  0
 21 23  2  0
 23 24  1  0
 23 25  1  0
 25 26  1  0
 25 27  2  0
 27 28  1  0
 16  8  1  0
 27 18  1  0
M  END
>  <plip>  (1) 
-0.07142857142857142

>  <filename>  (1) 
[H][O][C@]([H])([S][N]([H])[c]1[c]([H])[n][c]([H])[c]([H])[c]1[H])[c]1[c]([H])[c]([H])[c]([H])[c]([H])[c]1[H]

$$$$
