
     RDKit          3D

 31 33  0  0  0  0  0  0  0  0999 V2000
    4.9256    1.8620   16.9746 H   0  0  0  0  0  0  0  0  0  0  0  0
    5.3734    1.3029   17.7918 C   0  0  0  0  0  0  0  0  0  0  0  0
    6.5159    0.6592   17.5081 N   0  0  0  0  0  0  0  0  0  0  0  0
    7.1189    0.0252   18.5199 C   0  0  0  0  0  0  0  0  0  0  0  0
    8.0656   -0.4631   18.2826 H   0  0  0  0  0  0  0  0  0  0  0  0
    6.6267   -0.0261   19.8415 C   0  0  0  0  0  0  0  0  0  0  0  0
    7.4485   -0.7019   20.9424 C   0  0  0  0  0  0  0  0  0  0  0  0
    6.8299   -0.9133   21.8241 H   0  0  0  0  0  0  0  0  0  0  0  0
    7.8927   -1.6496   20.6112 H   0  0  0  0  0  0  0  0  0  0  0  0
    8.5799    0.1574   21.4222 C   0  0  0  0  0  0  0  0  0  0  0  0
    9.8224    0.1141   21.0333 N   0  0  0  0  0  0  0  0  0  0  0  0
   10.4943    1.1502   21.6456 N   0  0  0  0  0  0  0  0  0  0  0  0
    9.6382    1.7886   22.3857 C   0  0  0  0  0  0  0  0  0  0  0  0
    9.8177    2.6853   22.9712 H   0  0  0  0  0  0  0  0  0  0  0  0
    8.3967    1.2021   22.3018 N   0  0  0  0  0  0  0  0  0  0  0  0
    7.0312    1.5332   23.2831 S   0  0  0  0  0  0  0  0  0  0  0  0
    7.3624    0.4952   24.7331 C   0  0  0  0  0  0  0  0  0  0  0  0
    8.1859    0.9708   25.7682 C   0  0  0  0  0  0  0  0  0  0  0  0
    8.5489    1.9933   25.7413 H   0  0  0  0  0  0  0  0  0  0  0  0
    8.5374    0.1220   26.8228 C   0  0  0  0  0  0  0  0  0  0  0  0
    9.2141    0.4596   27.5903 H   0  0  0  0  0  0  0  0  0  0  0  0
    8.0373   -1.1786   26.8931 C   0  0  0  0  0  0  0  0  0  0  0  0
    8.3502   -1.8406   27.6973 H   0  0  0  0  0  0  0  0  0  0  0  0
    7.1571   -1.6253   25.9041 C   0  0  0  0  0  0  0  0  0  0  0  0
    6.7531   -2.6306   25.9538 H   0  0  0  0  0  0  0  0  0  0  0  0
    6.8061   -0.7877   24.8401 C   0  0  0  0  0  0  0  0  0  0  0  0
    6.0992   -1.1342   24.0894 H   0  0  0  0  0  0  0  0  0  0  0  0
    5.4214    0.6442   20.1044 C   0  0  0  0  0  0  0  0  0  0  0  0
    5.0135    0.6807   21.1195 H   0  0  0  0  0  0  0  0  0  0  0  0
    4.7801    1.3126   19.0562 C   0  0  0  0  0  0  0  0  0  0  0  0
    3.8628    1.8692   19.2104 H   0  0  0  0  0  0  0  0  0  0  0  0
  1  2  1  0
  2  3  2  0
  3  4  1  0
  4  5  1  0
  4  6  2  0
  6  7  1  0
  7  8  1  0
  7  9  1  0
  7 10  1  0
 10 11  2  0
 11 12  1  0
 12 13  2  0
 13 14  1  0
 13 15  1  0
 15 16  1  0
 16 17  1  0
 17 18  2  0
 18 19  1  0
 18 20  1  0
 20 21  1  0
 20 22  2  0
 22 23  1  0
 22 24  1  0
 24 25  1  0
 24 26  2  0
 26 27  1  0
  6 28  1  0
 28 29  1  0
 28 30  2  0
 30 31  1  0
 30  2  1  0
 15 10  1  0
 26 17  1  0
M  END
>  <plip>  (1) 
-0.07142857142857142

>  <filename>  (1) 
[H][c]1[n][c]([H])[c]([C]([H])([H])[c]2[n][n][c]([H])[n]2[S][c]2[c]([H])[c]([H])[c]([H])[c]([H])[c]2[H])[c]([H])[c]1[H]

$$$$
