
     RDKit          3D

 35 37  0  0  0  0  0  0  0  0999 V2000
   13.1683    0.6968   22.5107 H   0  0  0  0  0  0  0  0  0  0  0  0
   12.0879    0.6318   22.4238 C   0  0  0  0  0  0  0  0  0  0  0  0
   11.5527   -0.5746   22.6780 N   0  0  0  0  0  0  0  0  0  0  0  0
   10.2391   -0.6835   22.5793 C   0  0  0  0  0  0  0  0  0  0  0  0
    9.6413   -1.8715   22.8142 O   0  0  0  0  0  0  0  0  0  0  0  0
   10.4112   -3.0099   23.1834 C   0  0  0  0  0  0  0  0  0  0  0  0
   11.1418   -3.2538   22.4073 H   0  0  0  0  0  0  0  0  0  0  0  0
   10.9456   -2.8654   24.1292 H   0  0  0  0  0  0  0  0  0  0  0  0
    9.6712   -3.8046   23.2927 H   0  0  0  0  0  0  0  0  0  0  0  0
    9.3612    0.3864   22.2476 C   0  0  0  0  0  0  0  0  0  0  0  0
    7.8557    0.2030   22.1442 C   0  0  2  0  0  0  0  0  0  0  0  0
    7.4226    1.2032   22.0199 H   0  0  0  0  0  0  0  0  0  0  0  0
    7.1843   -0.3567   23.4079 C   0  0  0  0  0  0  0  0  0  0  0  0
    7.1880    0.0990   24.5304 O   0  0  0  0  0  0  0  0  0  0  0  0
    6.5275   -1.4754   23.0444 N   0  0  0  0  0  0  0  0  0  0  0  0
    6.0449   -1.9456   23.7941 H   0  0  0  0  0  0  0  0  0  0  0  0
    6.5552   -1.8504   21.6552 C   0  0  0  0  0  0  0  0  0  0  0  0
    5.5375   -1.9050   21.2356 H   0  0  0  0  0  0  0  0  0  0  0  0
    7.0049   -2.8415   21.5083 H   0  0  0  0  0  0  0  0  0  0  0  0
    7.4098   -0.7376   20.9868 C   0  0  1  0  0  0  0  0  0  0  0  0
    8.2927   -1.2011   20.5334 H   0  0  0  0  0  0  0  0  0  0  0  0
    6.6665    0.0029   19.8911 C   0  0  0  0  0  0  0  0  0  0  0  0
    7.1660    0.0659   18.5790 C   0  0  0  0  0  0  0  0  0  0  0  0
    8.1178   -0.4127   18.3413 H   0  0  0  0  0  0  0  0  0  0  0  0
    6.5576    0.6853   17.5610 N   0  0  0  0  0  0  0  0  0  0  0  0
    5.3940    1.2987   17.8268 C   0  0  0  0  0  0  0  0  0  0  0  0
    4.9149    1.7973   16.9865 H   0  0  0  0  0  0  0  0  0  0  0  0
    4.8063    1.3114   19.0961 C   0  0  0  0  0  0  0  0  0  0  0  0
    3.8746    1.8426   19.2498 H   0  0  0  0  0  0  0  0  0  0  0  0
    5.4472    0.6493   20.1443 C   0  0  0  0  0  0  0  0  0  0  0  0
    5.0161    0.6346   21.1481 H   0  0  0  0  0  0  0  0  0  0  0  0
    9.9449    1.6177   21.9775 C   0  0  0  0  0  0  0  0  0  0  0  0
    9.3178    2.4697   21.6972 H   0  0  0  0  0  0  0  0  0  0  0  0
   11.3360    1.7435   22.0671 C   0  0  0  0  0  0  0  0  0  0  0  0
   11.8249    2.6866   21.8692 H   0  0  0  0  0  0  0  0  0  0  0  0
  1  2  1  0
  2  3  2  0
  3  4  1  0
  4  5  1  0
  5  6  1  0
  6  7  1  0
  6  8  1  0
  6  9  1  0
  4 10  2  0
 10 11  1  0
 11 12  1  6
 11 13  1  0
 13 14  2  0
 13 15  1  0
 15 16  1  0
 15 17  1  0
 17 18  1  0
 17 19  1  0
 17 20  1  0
 20 21  1  6
 20 22  1  0
 22 23  2  0
 23 24  1  0
 23 25  1  0
 25 26  2  0
 26 27  1  0
 26 28  1  0
 28 29  1  0
 28 30  2  0
 30 31  1  0
 10 32  1  0
 32 33  1  0
 32 34  2  0
 34 35  1  0
 34  2  1  0
 20 11  1  0
 30 22  1  0
M  END
>  <plip>  (1) 
-0.03571428571428571

>  <filename>  (1) 
[H][c]1[n][c]([O][C]([H])([H])[H])[c]([C@]2([H])[C](=[O])[N]([H])[C]([H])([H])[C@@]2([H])[c]2[c]([H])[n][c]([H])[c]([H])[c]2[H])[c]([H])[c]1[H]

$$$$
