
     RDKit          3D

 26 27  0  0  0  0  0  0  0  0999 V2000
    7.3351    0.8383   22.0235 H   0  0  0  0  0  0  0  0  0  0  0  0
    8.0702    0.2338   21.8501 O   0  0  0  0  0  0  0  0  0  0  0  0
    7.5451   -0.7625   20.9961 C   0  0  2  0  0  0  0  0  0  0  0  0
    8.4277   -1.2126   20.5203 H   0  0  0  0  0  0  0  0  0  0  0  0
    6.7043   -0.1073   19.9096 C   0  0  0  0  0  0  0  0  0  0  0  0
    7.2211   -0.0029   18.6140 C   0  0  0  0  0  0  0  0  0  0  0  0
    8.1745   -0.4748   18.3629 H   0  0  0  0  0  0  0  0  0  0  0  0
    6.6307    0.6505   17.6067 N   0  0  0  0  0  0  0  0  0  0  0  0
    5.4616    1.2546   17.8695 C   0  0  0  0  0  0  0  0  0  0  0  0
    5.0075    1.7981   17.0412 H   0  0  0  0  0  0  0  0  0  0  0  0
    4.8346    1.1988   19.1203 C   0  0  0  0  0  0  0  0  0  0  0  0
    3.8932    1.7222   19.2659 H   0  0  0  0  0  0  0  0  0  0  0  0
    5.4546    0.4929   20.1552 C   0  0  0  0  0  0  0  0  0  0  0  0
    4.9820    0.4053   21.1362 H   0  0  0  0  0  0  0  0  0  0  0  0
    6.8034   -1.8746   21.7289 C   0  0  0  0  0  0  0  0  0  0  0  0
    6.5330   -1.8588   23.1027 C   0  0  0  0  0  0  0  0  0  0  0  0
    6.8954   -1.0321   23.7106 H   0  0  0  0  0  0  0  0  0  0  0  0
    5.8154   -2.9056   23.6933 C   0  0  0  0  0  0  0  0  0  0  0  0
    5.5618   -2.8466   24.7459 H   0  0  0  0  0  0  0  0  0  0  0  0
    5.4457   -4.0245   22.9493 C   0  0  0  0  0  0  0  0  0  0  0  0
    4.9631   -4.8716   23.4299 H   0  0  0  0  0  0  0  0  0  0  0  0
    5.7517   -4.0692   21.5786 C   0  0  0  0  0  0  0  0  0  0  0  0
    5.5051   -5.2604   20.8068 C   0  0  0  0  0  0  0  0  0  0  0  0
    5.3536   -6.2110   20.1601 N   0  0  0  0  0  0  0  0  0  0  0  0
    6.3896   -2.9770   20.9725 C   0  0  0  0  0  0  0  0  0  0  0  0
    6.5628   -2.9839   19.9000 H   0  0  0  0  0  0  0  0  0  0  0  0
  1  2  1  0
  2  3  1  0
  3  4  1  6
  3  5  1  0
  5  6  2  0
  6  7  1  0
  6  8  1  0
  8  9  2  0
  9 10  1  0
  9 11  1  0
 11 12  1  0
 11 13  2  0
 13 14  1  0
  3 15  1  0
 15 16  2  0
 16 17  1  0
 16 18  1  0
 18 19  1  0
 18 20  2  0
 20 21  1  0
 20 22  1  0
 22 23  1  0
 23 24  3  0
 22 25  2  0
 25 26  1  0
 13  5  1  0
 25 15  1  0
M  END
>  <plip>  (1) 
-0.06896551724137931

>  <filename>  (1) 
[H][O][C@]([H])([c]1[c]([H])[n][c]([H])[c]([H])[c]1[H])[c]1[c]([H])[c]([H])[c]([H])[c]([C]#[N])[c]1[H]

$$$$
