
     RDKit          3D

 29 31  0  0  0  0  0  0  0  0999 V2000
    4.9220    1.7805   16.9984 H   0  0  0  0  0  0  0  0  0  0  0  0
    5.4042    1.2894   17.8403 C   0  0  0  0  0  0  0  0  0  0  0  0
    6.5680    0.6735   17.5776 N   0  0  0  0  0  0  0  0  0  0  0  0
    7.1812    0.0593   18.5957 C   0  0  0  0  0  0  0  0  0  0  0  0
    8.1276   -0.4276   18.3699 H   0  0  0  0  0  0  0  0  0  0  0  0
    6.6682    0.0078   19.9060 C   0  0  0  0  0  0  0  0  0  0  0  0
    7.3718   -0.7090   20.9761 C   0  0  0  0  0  0  0  0  0  0  0  0
    8.6128   -1.2828   20.8535 N   0  0  0  0  0  0  0  0  0  0  0  0
    8.9439   -1.8590   21.9496 N   0  0  0  0  0  0  0  0  0  0  0  0
    7.9366   -1.6692   22.8430 N   0  0  0  0  0  0  0  0  0  0  0  0
    7.9944   -2.2089   24.1791 C   0  0  0  0  0  0  0  0  0  0  0  0
    8.2396   -3.5116   24.2489 N   0  0  0  0  0  0  0  0  0  0  0  0
    8.2003   -4.1002   25.4452 C   0  0  0  0  0  0  0  0  0  0  0  0
    8.4153   -5.1640   25.4525 H   0  0  0  0  0  0  0  0  0  0  0  0
    7.9065   -3.4300   26.6318 C   0  0  0  0  0  0  0  0  0  0  0  0
    7.8887   -3.9668   27.5716 H   0  0  0  0  0  0  0  0  0  0  0  0
    7.6620   -2.0667   26.5783 C   0  0  0  0  0  0  0  0  0  0  0  0
    7.4341   -1.5046   27.4881 H   0  0  0  0  0  0  0  0  0  0  0  0
    7.7408   -1.4279   25.3322 C   0  0  0  0  0  0  0  0  0  0  0  0
    7.5163    0.0578   25.2588 C   0  0  0  0  0  0  0  0  0  0  0  0
    7.7818    0.6546   26.4373 F   0  0  0  0  0  0  0  0  0  0  0  0
    8.2719    0.6639   24.3360 F   0  0  0  0  0  0  0  0  0  0  0  0
    6.2258    0.3383   24.9602 F   0  0  0  0  0  0  0  0  0  0  0  0
    6.9374   -0.9515   22.2484 C   0  0  0  0  0  0  0  0  0  0  0  0
    6.0407   -0.6575   22.7664 H   0  0  0  0  0  0  0  0  0  0  0  0
    5.4439    0.6523   20.1586 C   0  0  0  0  0  0  0  0  0  0  0  0
    5.0011    0.6465   21.1579 H   0  0  0  0  0  0  0  0  0  0  0  0
    4.8092    1.3080   19.1064 C   0  0  0  0  0  0  0  0  0  0  0  0
    3.8778    1.8395   19.2586 H   0  0  0  0  0  0  0  0  0  0  0  0
  1  2  1  0
  2  3  2  0
  3  4  1  0
  4  5  1  0
  4  6  2  0
  6  7  1  0
  7  8  1  0
  8  9  2  0
  9 10  1  0
 10 11  1  0
 11 12  2  0
 12 13  1  0
 13 14  1  0
 13 15  2  0
 15 16  1  0
 15 17  1  0
 17 18  1  0
 17 19  2  0
 19 20  1  0
 20 21  1  0
 20 22  1  0
 20 23  1  0
 10 24  1  0
 24 25  1  0
  6 26  1  0
 26 27  1  0
 26 28  2  0
 28 29  1  0
 28  2  1  0
 24  7  2  0
 19 11  1  0
M  END
>  <plip>  (1) 
-0.034482758620689655

>  <filename>  (1) 
[H][c]1[n][c]([H])[c](-[c]2[n][n][n](-[c]3[n][c]([H])[c]([H])[c]([H])[c]3[C]([F])([F])[F])[c]2[H])[c]([H])[c]1[H]

$$$$
