
     RDKit          3D

 29 30  0  0  0  0  0  0  0  0999 V2000
   11.0339    1.8705   23.1336 C   0  0  0  0  0  0  0  0  0  0  0  0
   10.2388    1.5175   21.8725 C   0  0  0  0  0  0  0  0  0  0  0  0
   10.6306    0.2669   21.2492 N   0  0  0  0  0  0  0  0  0  0  0  0
    9.6016   -0.6303   21.1941 C   0  0  0  0  0  0  0  0  0  0  0  0
    9.7028   -1.7775   20.8266 O   0  0  0  0  0  0  0  0  0  0  0  0
    8.4464    0.0105   21.6185 N   0  0  0  0  0  0  0  0  0  0  0  0
    7.0445   -0.3916   21.4219 C   0  0  0  0  0  0  0  0  0  0  0  0
    6.9073   -1.9028   21.3746 C   0  0  0  0  0  0  0  0  0  0  0  0
    5.8576   -2.1763   21.4879 H   0  0  0  0  0  0  0  0  0  0  0  0
    7.2829   -2.3088   20.4335 H   0  0  0  0  0  0  0  0  0  0  0  0
    7.4768   -2.3595   22.1849 H   0  0  0  0  0  0  0  0  0  0  0  0
    6.4737    0.2969   20.1955 C   0  0  0  0  0  0  0  0  0  0  0  0
    5.2317    0.9486   20.2022 C   0  0  0  0  0  0  0  0  0  0  0  0
    4.7281    1.4521   19.0012 C   0  0  0  0  0  0  0  0  0  0  0  0
    5.4855    1.3025   17.8382 C   0  0  0  0  0  0  0  0  0  0  0  0
    6.6772    0.6910   17.8138 N   0  0  0  0  0  0  0  0  0  0  0  0
    7.1520    0.2146   18.9714 C   0  0  0  0  0  0  0  0  0  0  0  0
    8.1412   -0.2473   18.9247 H   0  0  0  0  0  0  0  0  0  0  0  0
    5.1283    1.6851   16.8831 H   0  0  0  0  0  0  0  0  0  0  0  0
    3.7871    1.9840   18.9553 H   0  0  0  0  0  0  0  0  0  0  0  0
    4.6763    1.0863   21.1316 H   0  0  0  0  0  0  0  0  0  0  0  0
    6.5085   -0.0111   22.3022 H   0  0  0  0  0  0  0  0  0  0  0  0
    8.7348    1.2665   22.0926 C   0  0  0  0  0  0  0  0  0  0  0  0
    7.9347    2.0240   22.5872 O   0  0  0  0  0  0  0  0  0  0  0  0
   11.5556   -0.1356   21.1733 H   0  0  0  0  0  0  0  0  0  0  0  0
   10.3196    2.3575   21.1620 H   0  0  0  0  0  0  0  0  0  0  0  0
   12.0725    2.0867   22.8558 H   0  0  0  0  0  0  0  0  0  0  0  0
   11.0255    1.0341   23.8399 H   0  0  0  0  0  0  0  0  0  0  0  0
   10.6166    2.7522   23.6394 H   0  0  0  0  0  0  0  0  0  0  0  0
  1  2  1  0
  2  3  1  0
  3  4  1  0
  4  5  2  0
  4  6  1  0
  6  7  1  0
  7  8  1  0
  8  9  1  0
  8 10  1  0
  8 11  1  0
  7 12  1  0
 12 13  2  0
 13 14  1  0
 14 15  2  0
 15 16  1  0
 16 17  2  0
 17 18  1  0
 15 19  1  0
 14 20  1  0
 13 21  1  0
  7 22  1  0
  6 23  1  0
 23 24  2  0
  3 25  1  0
  2 26  1  0
  1 27  1  0
  1 28  1  0
  1 29  1  0
 23  2  1  0
 17 12  1  0
M  END
>  <plip>  (1) 
-0.06896551724137931

>  <filename>  (1) 
[H][c]1[n][c]([H])[c]([C]([H])([N]2[C](=[O])[N]([H])[C]([H])([C]([H])([H])[H])[C]2=[O])[C]([H])([H])[H])[c]([H])[c]1[H]

$$$$
