
     RDKit          3D

 32 34  0  0  0  0  0  0  0  0999 V2000
    5.6855   -1.8278   21.5102 H   0  0  0  0  0  0  0  0  0  0  0  0
    6.7335   -1.6106   21.7189 C   0  0  0  0  0  0  0  0  0  0  0  0
    7.3731   -0.6894   20.9848 C   0  0  0  0  0  0  0  0  0  0  0  0
    6.6599    0.0272   19.8993 C   0  0  0  0  0  0  0  0  0  0  0  0
    7.1697    0.0770   18.5902 C   0  0  0  0  0  0  0  0  0  0  0  0
    8.1152   -0.4157   18.3603 H   0  0  0  0  0  0  0  0  0  0  0  0
    6.5573    0.6818   17.5638 N   0  0  0  0  0  0  0  0  0  0  0  0
    5.3954    1.3011   17.8176 C   0  0  0  0  0  0  0  0  0  0  0  0
    4.9281    1.8016   16.9708 H   0  0  0  0  0  0  0  0  0  0  0  0
    4.7970    1.3243   19.0828 C   0  0  0  0  0  0  0  0  0  0  0  0
    3.8632    1.8502   19.2277 H   0  0  0  0  0  0  0  0  0  0  0  0
    5.4313    0.6650   20.1359 C   0  0  0  0  0  0  0  0  0  0  0  0
    5.0102    0.6360   21.1404 H   0  0  0  0  0  0  0  0  0  0  0  0
    8.8085   -0.2623   21.2711 C   0  0  0  0  0  0  0  0  0  0  0  0
    9.3301   -0.0633   20.3295 H   0  0  0  0  0  0  0  0  0  0  0  0
    8.7723    0.7113   21.7872 H   0  0  0  0  0  0  0  0  0  0  0  0
    9.5711   -1.2884   22.1191 C   0  0  0  0  0  0  0  0  0  0  0  0
   10.5125   -0.8694   22.4956 H   0  0  0  0  0  0  0  0  0  0  0  0
    9.8383   -2.1732   21.5206 H   0  0  0  0  0  0  0  0  0  0  0  0
    8.6966   -1.7493   23.3070 C   0  0  2  0  0  0  0  0  0  0  0  0
    8.4368   -0.8727   23.9172 H   0  0  0  0  0  0  0  0  0  0  0  0
    9.4209   -2.6473   24.2106 N   0  0  0  0  0  0  0  0  0  0  0  0
   10.0408   -3.7323   23.7358 N   0  0  0  0  0  0  0  0  0  0  0  0
   10.4320   -4.4053   24.8086 C   0  0  0  0  0  0  0  0  0  0  0  0
   11.0302   -5.2940   24.6600 H   0  0  0  0  0  0  0  0  0  0  0  0
   10.0300   -3.7657   25.9944 C   0  0  0  0  0  0  0  0  0  0  0  0
   10.2057   -4.1008   27.0061 H   0  0  0  0  0  0  0  0  0  0  0  0
    9.4045   -2.6163   25.5622 C   0  0  0  0  0  0  0  0  0  0  0  0
    9.0533   -1.7265   26.0710 H   0  0  0  0  0  0  0  0  0  0  0  0
    7.3833   -2.4151   22.8128 C   0  0  0  0  0  0  0  0  0  0  0  0
    6.6846   -2.5450   23.6494 H   0  0  0  0  0  0  0  0  0  0  0  0
    7.5987   -3.4324   22.4461 H   0  0  0  0  0  0  0  0  0  0  0  0
  1  2  1  0
  2  3  2  0
  3  4  1  0
  4  5  2  0
  5  6  1  0
  5  7  1  0
  7  8  2  0
  8  9  1  0
  8 10  1  0
 10 11  1  0
 10 12  2  0
 12 13  1  0
  3 14  1  0
 14 15  1  0
 14 16  1  0
 14 17  1  0
 17 18  1  0
 17 19  1  0
 17 20  1  0
 20 21  1  1
 20 22  1  0
 22 23  1  0
 23 24  2  0
 24 25  1  0
 24 26  1  0
 26 27  1  0
 26 28  2  0
 28 29  1  0
 20 30  1  0
 30 31  1  0
 30 32  1  0
 30  2  1  0
 12  4  1  0
 28 22  1  0
M  END
>  <plip>  (1) 
-0.034482758620689655

>  <filename>  (1) 
[H][C]1=[C]([c]2[c]([H])[n][c]([H])[c]([H])[c]2[H])[C]([H])([H])[C]([H])([H])[C@]([H])([n]2[n][c]([H])[c]([H])[c]2[H])[C]1([H])[H]

$$$$
