
     RDKit          3D

 48 50  0  0  0  0  0  0  0  0999 V2000
    6.9121   -6.0759   21.9345 C   0  0  0  0  0  0  0  0  0  0  0  0
    7.4815   -5.6298   23.2561 C   0  0  0  0  0  0  0  0  0  0  0  0
    8.6181   -6.2310   23.7986 C   0  0  0  0  0  0  0  0  0  0  0  0
    9.0809   -5.9211   25.0977 C   0  0  0  0  0  0  0  0  0  0  0  0
    8.4294   -4.9930   25.8930 C   0  0  0  0  0  0  0  0  0  0  0  0
    7.3241   -4.3310   25.3363 C   0  0  0  0  0  0  0  0  0  0  0  0
    6.8591   -4.6109   24.0212 C   0  0  0  0  0  0  0  0  0  0  0  0
    5.7963   -3.6824   23.7483 C   0  0  0  0  0  0  0  0  0  0  0  0
    5.0846   -3.4514   22.4396 C   0  0  0  0  0  0  0  0  0  0  0  0
    5.8126   -2.6421   21.3577 C   0  0  0  0  0  0  0  0  0  0  0  0
    5.7135   -2.9445   20.1780 O   0  0  0  0  0  0  0  0  0  0  0  0
    6.5087   -1.5501   21.7816 N   0  0  0  0  0  0  0  0  0  0  0  0
    7.3811   -0.7942   20.8930 C   0  0  0  0  0  0  0  0  0  0  0  0
    8.3105    0.1172   21.7309 C   0  0  0  0  0  0  0  0  0  0  0  0
    7.7293    1.3992   22.3580 C   0  0  0  0  0  0  0  0  0  0  0  0
    8.8007    2.3186   22.9447 C   0  0  0  0  0  0  0  0  0  0  0  0
    9.4051    1.7932   24.1116 O   0  0  0  0  0  0  0  0  0  0  0  0
    9.7303    0.9094   23.8921 H   0  0  0  0  0  0  0  0  0  0  0  0
    8.3571    3.2749   23.2395 H   0  0  0  0  0  0  0  0  0  0  0  0
    9.5593    2.5481   22.1748 H   0  0  0  0  0  0  0  0  0  0  0  0
    7.0046    1.1577   23.1478 H   0  0  0  0  0  0  0  0  0  0  0  0
    7.1849    1.9684   21.5956 H   0  0  0  0  0  0  0  0  0  0  0  0
    8.7328   -0.5205   22.5236 H   0  0  0  0  0  0  0  0  0  0  0  0
    9.1577    0.3936   21.0903 H   0  0  0  0  0  0  0  0  0  0  0  0
    6.5985   -0.0855   19.7914 C   0  0  0  0  0  0  0  0  0  0  0  0
    5.3969    0.6072   20.0048 C   0  0  0  0  0  0  0  0  0  0  0  0
    4.8392    1.3422   18.9524 C   0  0  0  0  0  0  0  0  0  0  0  0
    5.4814    1.3351   17.7101 C   0  0  0  0  0  0  0  0  0  0  0  0
    6.6018    0.6392   17.4652 N   0  0  0  0  0  0  0  0  0  0  0  0
    7.1247   -0.0510   18.4889 C   0  0  0  0  0  0  0  0  0  0  0  0
    8.0305   -0.6103   18.2468 H   0  0  0  0  0  0  0  0  0  0  0  0
    5.0771    1.9099   16.8773 H   0  0  0  0  0  0  0  0  0  0  0  0
    3.9317    1.9217   19.0836 H   0  0  0  0  0  0  0  0  0  0  0  0
    4.9135    0.5802   20.9839 H   0  0  0  0  0  0  0  0  0  0  0  0
    8.0424   -1.5044   20.3742 H   0  0  0  0  0  0  0  0  0  0  0  0
    6.7116   -1.5113   22.7667 H   0  0  0  0  0  0  0  0  0  0  0  0
    4.1336   -2.9482   22.6192 H   0  0  0  0  0  0  0  0  0  0  0  0
    4.7961   -4.3918   21.9720 H   0  0  0  0  0  0  0  0  0  0  0  0
    5.6184   -2.9471   24.8850 C   0  0  0  0  0  0  0  0  0  0  0  0
    6.5220   -3.3415   25.8474 N   0  0  0  0  0  0  0  0  0  0  0  0
    6.6087   -2.9478   26.7694 H   0  0  0  0  0  0  0  0  0  0  0  0
    4.9051   -2.1505   25.0614 H   0  0  0  0  0  0  0  0  0  0  0  0
    8.7658   -4.7900   26.9057 H   0  0  0  0  0  0  0  0  0  0  0  0
    9.9639   -6.4264   25.4766 H   0  0  0  0  0  0  0  0  0  0  0  0
    9.1644   -6.9651   23.2146 H   0  0  0  0  0  0  0  0  0  0  0  0
    6.8595   -5.2519   21.2112 H   0  0  0  0  0  0  0  0  0  0  0  0
    5.8912   -6.4558   22.0696 H   0  0  0  0  0  0  0  0  0  0  0  0
    7.4932   -6.8891   21.4979 H   0  0  0  0  0  0  0  0  0  0  0  0
  1  2  1  0
  2  3  2  0
  3  4  1  0
  4  5  2  0
  5  6  1  0
  6  7  2  0
  7  8  1  0
  8  9  1  0
  9 10  1  0
 10 11  2  0
 10 12  1  0
 12 13  1  0
 13 14  1  0
 14 15  1  0
 15 16  1  0
 16 17  1  0
 17 18  1  0
 16 19  1  0
 16 20  1  0
 15 21  1  0
 15 22  1  0
 14 23  1  0
 14 24  1  0
 13 25  1  0
 25 26  2  0
 26 27  1  0
 27 28  2  0
 28 29  1  0
 29 30  2  0
 30 31  1  0
 28 32  1  0
 27 33  1  0
 26 34  1  0
 13 35  1  0
 12 36  1  0
  9 37  1  0
  9 38  1  0
  8 39  2  0
 39 40  1  0
 40 41  1  0
 39 42  1  0
  5 43  1  0
  4 44  1  0
  3 45  1  0
  1 46  1  0
  1 47  1  0
  1 48  1  0
  7  2  1  0
 30 25  1  0
 40  6  1  0
M  END
>  <plip>  (1) 
-0.2

>  <filename>  (1) 
[H][O][C]([H])([H])[C]([H])([H])[C]([H])([H])[C]([H])([c]1[c]([H])[n][c]([H])[c]([H])[c]1[H])[N]([H])[C](=[O])[C]([H])([H])[c]1[c]([H])[n]([H])[c]2[c]([H])[c]([H])[c]([H])[c]([C]([H])([H])[H])[c]12

$$$$
