
     RDKit          3D

 41 42  0  0  0  0  0  0  0  0999 V2000
   11.3987   -2.0790   22.5418 C   0  0  0  0  0  0  0  0  0  0  0  0
   10.4915   -1.6021   21.5446 O   0  0  0  0  0  0  0  0  0  0  0  0
    9.7328   -0.5725   21.9813 C   0  0  0  0  0  0  0  0  0  0  0  0
    9.7070   -0.1351   23.1259 O   0  0  0  0  0  0  0  0  0  0  0  0
    8.7978    0.0617   20.9930 C   0  0  0  0  0  0  0  0  0  0  0  0
    7.4724   -0.6377   21.1017 C   0  0  0  0  0  0  0  0  0  0  0  0
    6.9784   -0.5441   22.5421 C   0  0  0  0  0  0  0  0  0  0  0  0
    7.7450   -0.9357   23.2172 H   0  0  0  0  0  0  0  0  0  0  0  0
    6.0971   -1.1436   22.6975 H   0  0  0  0  0  0  0  0  0  0  0  0
    6.7460    0.4887   22.8098 H   0  0  0  0  0  0  0  0  0  0  0  0
    7.7017   -2.0084   20.7378 N   0  0  0  0  0  0  0  0  0  0  0  0
    6.3124   -2.9663   20.8044 S   0  0  0  0  0  0  0  0  0  0  0  0
    5.9563   -3.3054   19.4216 O   0  0  0  0  0  0  0  0  0  0  0  0
    5.2102   -2.3206   21.5017 O   0  0  0  0  0  0  0  0  0  0  0  0
    6.8860   -4.3829   21.7258 C   0  0  0  0  0  0  0  0  0  0  0  0
    5.7882   -5.4093   21.5867 C   0  0  0  0  0  0  0  0  0  0  0  0
    5.5889   -6.1344   19.7632 Br  0  0  0  0  0  0  0  0  0  0  0  0
    4.4870   -5.1026   22.3079 C   0  0  0  0  0  0  0  0  0  0  0  0
    5.3795   -6.2366   22.7889 C   0  0  0  0  0  0  0  0  0  0  0  0
    5.0501   -7.2609   22.5964 H   0  0  0  0  0  0  0  0  0  0  0  0
    5.9019   -6.0700   23.7343 H   0  0  0  0  0  0  0  0  0  0  0  0
    4.4447   -4.1873   22.9098 H   0  0  0  0  0  0  0  0  0  0  0  0
    3.5563   -5.3873   21.8114 H   0  0  0  0  0  0  0  0  0  0  0  0
    7.0602   -4.0901   22.7627 H   0  0  0  0  0  0  0  0  0  0  0  0
    7.8247   -4.7148   21.2867 H   0  0  0  0  0  0  0  0  0  0  0  0
    7.9865   -2.0574   19.7718 H   0  0  0  0  0  0  0  0  0  0  0  0
    6.6052   -0.0722   20.0233 C   0  0  0  0  0  0  0  0  0  0  0  0
    5.3932    0.5958   20.2345 C   0  0  0  0  0  0  0  0  0  0  0  0
    4.8019    1.2139   19.1318 C   0  0  0  0  0  0  0  0  0  0  0  0
    5.4064    1.1476   17.8742 C   0  0  0  0  0  0  0  0  0  0  0  0
    6.5300    0.4418   17.6674 N   0  0  0  0  0  0  0  0  0  0  0  0
    7.1019   -0.1635   18.7175 C   0  0  0  0  0  0  0  0  0  0  0  0
    8.0233   -0.7136   18.5363 H   0  0  0  0  0  0  0  0  0  0  0  0
    4.9633    1.6889   17.0412 H   0  0  0  0  0  0  0  0  0  0  0  0
    3.8922    1.7879   19.2405 H   0  0  0  0  0  0  0  0  0  0  0  0
    4.9461    0.6668   21.2239 H   0  0  0  0  0  0  0  0  0  0  0  0
    8.6807    1.1238   21.2112 H   0  0  0  0  0  0  0  0  0  0  0  0
    9.1999   -0.0468   19.9861 H   0  0  0  0  0  0  0  0  0  0  0  0
   12.0486   -2.8541   22.1446 H   0  0  0  0  0  0  0  0  0  0  0  0
   12.0380   -1.2591   22.8845 H   0  0  0  0  0  0  0  0  0  0  0  0
   10.8421   -2.4903   23.3923 H   0  0  0  0  0  0  0  0  0  0  0  0
  1  2  1  0
  2  3  1  0
  3  4  2  0
  3  5  1  0
  5  6  1  0
  6  7  1  0
  7  8  1  0
  7  9  1  0
  7 10  1  0
  6 11  1  0
 11 12  1  0
 12 13  2  0
 12 14  2  0
 12 15  1  0
 15 16  1  0
 16 17  1  0
 16 18  1  0
 18 19  1  0
 19 20  1  0
 19 21  1  0
 18 22  1  0
 18 23  1  0
 15 24  1  0
 15 25  1  0
 11 26  1  0
  6 27  1  0
 27 28  2  0
 28 29  1  0
 29 30  2  0
 30 31  1  0
 31 32  2  0
 32 33  1  0
 30 34  1  0
 29 35  1  0
 28 36  1  0
  5 37  1  0
  5 38  1  0
  1 39  1  0
  1 40  1  0
  1 41  1  0
 19 16  1  0
 32 27  1  0
M  END
>  <plip>  (1) 
-0.16666666666666666

>  <filename>  (1) 
[H][c]1[n][c]([H])[c]([C]([N]([H])[S](=[O])(=[O])[C]([H])([H])[C]2([Br])[C]([H])([H])[C]2([H])[H])([C]([H])([H])[H])[C]([H])([H])[C](=[O])[O][C]([H])([H])[H])[c]([H])[c]1[H]

$$$$
