
     RDKit          3D

 33 35  0  0  0  0  0  0  0  0999 V2000
    4.9002    5.1769   22.2013 H   0  0  0  0  0  0  0  0  0  0  0  0
    5.8132    5.0941   22.4974 O   0  0  0  0  0  0  0  0  0  0  0  0
    6.2073    3.7650   22.2077 C   0  0  0  0  0  0  0  0  0  0  0  0
    5.9235    3.4938   21.1764 H   0  0  0  0  0  0  0  0  0  0  0  0
    5.5357    2.7852   23.1857 C   0  0  0  0  0  0  0  0  0  0  0  0
    4.5999    2.4329   22.7413 H   0  0  0  0  0  0  0  0  0  0  0  0
    5.2757    3.3276   24.0966 H   0  0  0  0  0  0  0  0  0  0  0  0
    6.4395    1.6027   23.5770 C   0  0  0  0  0  0  0  0  0  0  0  0
    5.8496    0.7091   23.7942 H   0  0  0  0  0  0  0  0  0  0  0  0
    7.0019    1.8345   24.4954 H   0  0  0  0  0  0  0  0  0  0  0  0
    7.3367    1.2662   22.4852 N   0  0  0  0  0  0  0  0  0  0  0  0
    7.6772   -0.0622   22.2285 C   0  0  0  0  0  0  0  0  0  0  0  0
    7.3988   -0.6356   21.0069 C   0  0  0  0  0  0  0  0  0  0  0  0
    6.6687    0.0298   19.9094 C   0  0  0  0  0  0  0  0  0  0  0  0
    7.1689    0.0572   18.5869 C   0  0  0  0  0  0  0  0  0  0  0  0
    8.1205   -0.4187   18.3591 H   0  0  0  0  0  0  0  0  0  0  0  0
    6.5578    0.6759   17.5721 N   0  0  0  0  0  0  0  0  0  0  0  0
    5.3980    1.2957   17.8357 C   0  0  0  0  0  0  0  0  0  0  0  0
    4.9200    1.7886   16.9929 H   0  0  0  0  0  0  0  0  0  0  0  0
    4.8019    1.3170   19.1006 C   0  0  0  0  0  0  0  0  0  0  0  0
    3.8691    1.8434   19.2517 H   0  0  0  0  0  0  0  0  0  0  0  0
    5.4448    0.6729   20.1568 C   0  0  0  0  0  0  0  0  0  0  0  0
    4.9971    0.6302   21.1527 H   0  0  0  0  0  0  0  0  0  0  0  0
    7.8574   -2.2908   20.8002 S   0  0  0  0  0  0  0  0  0  0  0  0
    8.7373   -2.4730   22.6289 S   0  0  0  0  0  0  0  0  0  0  0  0
    8.4033   -0.8681   23.2126 C   0  0  0  0  0  0  0  0  0  0  0  0
    8.9246   -0.4679   24.7207 S   0  0  0  0  0  0  0  0  0  0  0  0
    8.1944    2.2969   21.9040 C   0  0  0  0  0  0  0  0  0  0  0  0
    9.2436    2.1443   22.2012 H   0  0  0  0  0  0  0  0  0  0  0  0
    8.1688    2.1656   20.8122 H   0  0  0  0  0  0  0  0  0  0  0  0
    7.7190    3.6933   22.3012 C   0  0  0  0  0  0  0  0  0  0  0  0
    8.1639    4.4458   21.6485 H   0  0  0  0  0  0  0  0  0  0  0  0
    8.0388    3.9417   23.3205 H   0  0  0  0  0  0  0  0  0  0  0  0
  1  2  1  0
  2  3  1  0
  3  4  1  0
  3  5  1  0
  5  6  1  0
  5  7  1  0
  5  8  1  0
  8  9  1  0
  8 10  1  0
  8 11  1  0
 11 12  1  0
 12 13  2  0
 13 14  1  0
 14 15  2  0
 15 16  1  0
 15 17  1  0
 17 18  2  0
 18 19  1  0
 18 20  1  0
 20 21  1  0
 20 22  2  0
 22 23  1  0
 13 24  1  0
 24 25  1  0
 25 26  1  0
 26 27  2  0
 11 28  1  0
 28 29  1  0
 28 30  1  0
 28 31  1  0
 31 32  1  0
 31 33  1  0
 31  3  1  0
 26 12  1  0
 22 14  1  0
M  END
>  <plip>  (1) 
-0.07142857142857142

>  <filename>  (1) 
[H][O][C]1([H])[C]([H])([H])[C]([H])([H])[N]([c]2[c](-[c]3[c]([H])[n][c]([H])[c]([H])[c]3[H])[s][s][c]2=[S])[C]([H])([H])[C]1([H])[H]

$$$$
