
     RDKit          3D

 49 53  0  0  0  0  0  0  0  0999 V2000
    6.1121   -2.6786   20.9794 O   0  0  0  0  0  0  0  0  0  0  0  0
    7.1540   -2.1073   21.1582 C   0  0  0  0  0  0  0  0  0  0  0  0
    8.2686   -2.8283   21.4385 O   0  0  0  0  0  0  0  0  0  0  0  0
    9.5251   -2.1804   21.7037 C   0  0  0  0  0  0  0  0  0  0  0  0
    9.7090   -0.9258   20.8638 C   0  0  0  0  0  0  0  0  0  0  0  0
    8.6468    0.0205   21.1963 N   0  0  0  0  0  0  0  0  0  0  0  0
    8.9666    1.3580   21.4291 C   0  0  0  0  0  0  0  0  0  0  0  0
   10.0081    1.8405   21.0208 O   0  0  0  0  0  0  0  0  0  0  0  0
    7.9447    2.1185   22.2346 C   0  0  2  0  0  0  0  0  0  0  0  0
    8.3692    3.0673   23.3151 C   0  0  0  0  0  0  0  0  0  0  0  0
    7.6759    1.7761   23.6942 C   0  0  2  0  0  0  0  0  0  0  0  0
    8.5053    0.6589   24.3318 C   0  0  0  0  0  0  0  0  0  0  0  0
    8.2403    0.5338   25.8359 C   0  0  0  0  0  0  0  0  0  0  0  0
    6.7480    0.2578   26.0824 C   0  0  0  0  0  0  0  0  0  0  0  0
    5.8170    1.2139   25.3363 C   0  0  0  0  0  0  0  0  0  0  0  0
    4.5045    1.4232   25.7892 C   0  0  0  0  0  0  0  0  0  0  0  0
    3.6278    2.2926   25.1374 C   0  0  0  0  0  0  0  0  0  0  0  0
    4.0561    2.9537   23.9820 C   0  0  0  0  0  0  0  0  0  0  0  0
    5.3471    2.7548   23.5114 C   0  0  0  0  0  0  0  0  0  0  0  0
    6.2526    1.8939   24.1734 C   0  0  0  0  0  0  0  0  0  0  0  0
    5.6728    3.3252   22.6481 H   0  0  0  0  0  0  0  0  0  0  0  0
    3.3980    3.6386   23.4541 H   0  0  0  0  0  0  0  0  0  0  0  0
    2.6255    2.4568   25.5216 H   0  0  0  0  0  0  0  0  0  0  0  0
    4.1679    0.8897   26.6747 H   0  0  0  0  0  0  0  0  0  0  0  0
    6.5188   -0.7702   25.7600 H   0  0  0  0  0  0  0  0  0  0  0  0
    6.5350    0.2802   27.1585 H   0  0  0  0  0  0  0  0  0  0  0  0
    8.8537   -0.2675   26.2703 H   0  0  0  0  0  0  0  0  0  0  0  0
    8.5421    1.4575   26.3457 H   0  0  0  0  0  0  0  0  0  0  0  0
    8.2338   -0.2959   23.8568 H   0  0  0  0  0  0  0  0  0  0  0  0
    9.5718    0.8109   24.1279 H   0  0  0  0  0  0  0  0  0  0  0  0
    7.8086    3.9904   23.4374 H   0  0  0  0  0  0  0  0  0  0  0  0
    9.4380    3.1610   23.4997 H   0  0  0  0  0  0  0  0  0  0  0  0
    7.0835    2.3700   21.6240 H   0  0  0  0  0  0  0  0  0  0  0  0
    7.2664   -0.5125   21.1213 C   0  0  0  0  0  0  0  0  0  0  0  0
    6.5284    0.1331   19.9332 C   0  0  0  0  0  0  0  0  0  0  0  0
    5.2766    0.7391   20.0928 C   0  0  0  0  0  0  0  0  0  0  0  0
    4.6824    1.3820   18.9990 C   0  0  0  0  0  0  0  0  0  0  0  0
    5.3622    1.3862   17.7781 C   0  0  0  0  0  0  0  0  0  0  0  0
    6.5505    0.7937   17.5965 N   0  0  0  0  0  0  0  0  0  0  0  0
    7.1159    0.2034   18.6570 C   0  0  0  0  0  0  0  0  0  0  0  0
    8.0893   -0.2542   18.4712 H   0  0  0  0  0  0  0  0  0  0  0  0
    4.9432    1.8875   16.9069 H   0  0  0  0  0  0  0  0  0  0  0  0
    3.7259    1.8871   19.0725 H   0  0  0  0  0  0  0  0  0  0  0  0
    4.7877    0.7336   21.0687 H   0  0  0  0  0  0  0  0  0  0  0  0
    6.7170   -0.2405   22.0420 H   0  0  0  0  0  0  0  0  0  0  0  0
    9.6499   -1.1965   19.8045 H   0  0  0  0  0  0  0  0  0  0  0  0
   10.6815   -0.4646   21.0396 H   0  0  0  0  0  0  0  0  0  0  0  0
    9.5795   -1.9482   22.7758 H   0  0  0  0  0  0  0  0  0  0  0  0
   10.2985   -2.9103   21.4738 H   0  0  0  0  0  0  0  0  0  0  0  0
  1  2  2  0
  2  3  1  0
  3  4  1  0
  4  5  1  0
  5  6  1  0
  6  7  1  0
  7  8  2  0
  7  9  1  0
  9 10  1  0
 11 10  1  1
 11 12  1  0
 12 13  1  0
 13 14  1  0
 14 15  1  0
 15 16  2  0
 16 17  1  0
 17 18  2  0
 18 19  1  0
 19 20  2  0
 19 21  1  0
 18 22  1  0
 17 23  1  0
 16 24  1  0
 14 25  1  0
 14 26  1  0
 13 27  1  0
 13 28  1  0
 12 29  1  0
 12 30  1  0
 10 31  1  0
 10 32  1  0
  9 33  1  6
  6 34  1  0
 34 35  1  0
 35 36  2  0
 36 37  1  0
 37 38  2  0
 38 39  1  0
 39 40  2  0
 40 41  1  0
 38 42  1  0
 37 43  1  0
 36 44  1  0
 34 45  1  0
  5 46  1  0
  5 47  1  0
  4 48  1  0
  4 49  1  0
 34  2  1  0
 40 35  1  0
 11  9  1  0
 20 15  1  0
 20 11  1  0
M  END
>  <plip>  (1) 
-0.07142857142857142

>  <filename>  (1) 
[H][c]1[n][c]([H])[c]([C]2([H])[C](=[O])[O][C]([H])([H])[C]([H])([H])[N]2[C](=[O])[C@]2([H])[C]([H])([H])[C@@]23[c]2[c]([H])[c]([H])[c]([H])[c]([H])[c]2[C]([H])([H])[C]([H])([H])[C]3([H])[H])[c]([H])[c]1[H]

$$$$
