
     RDKit          3D

 37 39  0  0  0  0  0  0  0  0999 V2000
   12.5927    2.9500   21.9771 C   0  0  0  0  0  0  0  0  0  0  0  0
   11.3496    3.4347   22.5586 N   0  0  0  0  0  0  0  0  0  0  0  0
   11.0506    4.6569   23.1267 C   0  0  0  0  0  0  0  0  0  0  0  0
    9.7816    4.8980   23.3013 N   0  0  0  0  0  0  0  0  0  0  0  0
    9.1705    3.7445   22.7933 C   0  0  0  0  0  0  0  0  0  0  0  0
    7.8650    3.2917   22.5652 C   0  0  0  0  0  0  0  0  0  0  0  0
    7.6019    2.0712   22.0987 N   0  0  0  0  0  0  0  0  0  0  0  0
    8.6683    1.3040   21.8106 C   0  0  0  0  0  0  0  0  0  0  0  0
    8.4703    0.0526   21.4232 N   0  0  0  0  0  0  0  0  0  0  0  0
    7.1730   -0.5494   21.2261 C   0  0  2  0  0  0  0  0  0  0  0  0
    7.4412   -2.0403   21.0254 C   0  0  0  0  0  0  0  0  0  0  0  0
    6.1972   -2.8510   20.6936 C   0  0  0  0  0  0  0  0  0  0  0  0
    5.3256   -2.8549   21.8070 O   0  0  0  0  0  0  0  0  0  0  0  0
    5.8875   -2.8951   22.5941 H   0  0  0  0  0  0  0  0  0  0  0  0
    5.6384   -2.3868   19.8687 H   0  0  0  0  0  0  0  0  0  0  0  0
    6.4515   -3.8767   20.3753 H   0  0  0  0  0  0  0  0  0  0  0  0
    7.8981   -2.4316   21.9489 H   0  0  0  0  0  0  0  0  0  0  0  0
    8.2090   -2.1134   20.2549 H   0  0  0  0  0  0  0  0  0  0  0  0
    6.4712    0.1187   20.0533 C   0  0  0  0  0  0  0  0  0  0  0  0
    5.2250    0.7619   20.1541 C   0  0  0  0  0  0  0  0  0  0  0  0
    4.6766    1.3575   19.0106 C   0  0  0  0  0  0  0  0  0  0  0  0
    5.3984    1.2982   17.8132 C   0  0  0  0  0  0  0  0  0  0  0  0
    6.6012    0.7148   17.7068 N   0  0  0  0  0  0  0  0  0  0  0  0
    7.1200    0.1670   18.8144 C   0  0  0  0  0  0  0  0  0  0  0  0
    8.1227   -0.2458   18.6964 H   0  0  0  0  0  0  0  0  0  0  0  0
    5.0155    1.7611   16.9031 H   0  0  0  0  0  0  0  0  0  0  0  0
    3.7266    1.8849   19.0345 H   0  0  0  0  0  0  0  0  0  0  0  0
    4.7248    0.8373   21.1234 H   0  0  0  0  0  0  0  0  0  0  0  0
    6.5370   -0.3971   22.1165 H   0  0  0  0  0  0  0  0  0  0  0  0
    9.3556   -0.4185   21.3877 H   0  0  0  0  0  0  0  0  0  0  0  0
    9.9649    1.6107   21.8828 N   0  0  0  0  0  0  0  0  0  0  0  0
   10.1460    2.8246   22.3606 C   0  0  0  0  0  0  0  0  0  0  0  0
    7.0072    3.9314   22.7624 H   0  0  0  0  0  0  0  0  0  0  0  0
   11.8392    5.3482   23.4032 H   0  0  0  0  0  0  0  0  0  0  0  0
   12.5933    1.8552   22.0497 H   0  0  0  0  0  0  0  0  0  0  0  0
   13.4430    3.3697   22.5219 H   0  0  0  0  0  0  0  0  0  0  0  0
   12.6586    3.2340   20.9160 H   0  0  0  0  0  0  0  0  0  0  0  0
  1  2  1  0
  2  3  1  0
  3  4  2  0
  4  5  1  0
  5  6  2  0
  6  7  1  0
  7  8  2  0
  8  9  1  0
  9 10  1  0
 10 11  1  0
 11 12  1  0
 12 13  1  0
 13 14  1  0
 12 15  1  0
 12 16  1  0
 11 17  1  0
 11 18  1  0
 10 19  1  0
 19 20  2  0
 20 21  1  0
 21 22  2  0
 22 23  1  0
 23 24  2  0
 24 25  1  0
 22 26  1  0
 21 27  1  0
 20 28  1  0
 10 29  1  1
  9 30  1  0
  8 31  1  0
 31 32  2  0
  6 33  1  0
  3 34  1  0
  1 35  1  0
  1 36  1  0
  1 37  1  0
 32  2  1  0
 32  5  1  0
 24 19  1  0
M  END
>  <plip>  (1) 
-0.07142857142857142

>  <filename>  (1) 
[H][O][C]([H])([H])[C]([H])([H])[C@]([H])([c]1[c]([H])[n][c]([H])[c]([H])[c]1[H])[N]([H])[c]1[n][c]([H])[c]2[n][c]([H])[n]([C]([H])([H])[H])[c]2[n]1

$$$$
