
     RDKit          3D

 28 30  0  0  0  0  0  0  0  0999 V2000
    4.8055    1.3077   19.1057 C   0  0  0  0  0  0  0  0  0  0  0  0
    5.4031    1.2897   17.8394 C   0  0  0  0  0  0  0  0  0  0  0  0
    6.5649    0.6714   17.5807 N   0  0  0  0  0  0  0  0  0  0  0  0
    7.1634    0.0485   18.6059 C   0  0  0  0  0  0  0  0  0  0  0  0
    6.6545   -0.0059   19.9132 C   0  0  0  0  0  0  0  0  0  0  0  0
    7.3829   -0.7680   20.9945 C   0  0  0  0  0  0  0  0  0  0  0  0
    6.9363   -2.1229   20.9447 O   0  0  0  0  0  0  0  0  0  0  0  0
    7.4046   -3.0547   21.8220 C   0  0  0  0  0  0  0  0  0  0  0  0
    8.3443   -2.8145   22.8224 C   0  0  0  0  0  0  0  0  0  0  0  0
    8.7583   -3.8672   23.6678 C   0  0  0  0  0  0  0  0  0  0  0  0
    8.2559   -5.1555   23.5390 C   0  0  0  0  0  0  0  0  0  0  0  0
    7.3049   -5.3930   22.5264 C   0  0  0  0  0  0  0  0  0  0  0  0
    6.8654   -4.3672   21.6608 C   0  0  0  0  0  0  0  0  0  0  0  0
    5.8962   -4.8390   20.7051 C   0  0  0  0  0  0  0  0  0  0  0  0
    5.6293   -6.1557   20.8592 C   0  0  0  0  0  0  0  0  0  0  0  0
    6.5189   -6.8966   22.1509 S   0  0  0  0  0  0  0  0  0  0  0  0
    4.9700   -6.7868   20.2832 H   0  0  0  0  0  0  0  0  0  0  0  0
    5.4623   -4.1826   19.9565 H   0  0  0  0  0  0  0  0  0  0  0  0
    8.5816   -5.9544   24.2018 H   0  0  0  0  0  0  0  0  0  0  0  0
    9.4909   -3.6539   24.4423 H   0  0  0  0  0  0  0  0  0  0  0  0
    8.7585   -1.8159   22.9557 H   0  0  0  0  0  0  0  0  0  0  0  0
    8.4699   -0.7261   20.8297 H   0  0  0  0  0  0  0  0  0  0  0  0
    7.1512   -0.3287   21.9764 H   0  0  0  0  0  0  0  0  0  0  0  0
    5.4410    0.6462   20.1598 C   0  0  0  0  0  0  0  0  0  0  0  0
    5.0031    0.6340   21.1619 H   0  0  0  0  0  0  0  0  0  0  0  0
    8.1130   -0.4280   18.3702 H   0  0  0  0  0  0  0  0  0  0  0  0
    4.9249    1.7826   16.9943 H   0  0  0  0  0  0  0  0  0  0  0  0
    3.8746    1.8431   19.2530 H   0  0  0  0  0  0  0  0  0  0  0  0
  1  2  2  0
  2  3  1  0
  3  4  2  0
  4  5  1  0
  5  6  1  0
  6  7  1  0
  7  8  1  0
  8  9  2  0
  9 10  1  0
 10 11  2  0
 11 12  1  0
 12 13  2  0
 13 14  1  0
 14 15  2  0
 15 16  1  0
 15 17  1  0
 14 18  1  0
 11 19  1  0
 10 20  1  0
  9 21  1  0
  6 22  1  0
  6 23  1  0
  5 24  2  0
 24 25  1  0
  4 26  1  0
  2 27  1  0
  1 28  1  0
 24  1  1  0
 13  8  1  0
 16 12  1  0
M  END
>  <plip>  (1) 
-0.07142857142857142

>  <filename>  (1) 
[H][c]1[n][c]([H])[c]([C]([H])([H])[O][c]2[c]([H])[c]([H])[c]([H])[c]3[s][c]([H])[c]([H])[c]23)[c]([H])[c]1[H]

$$$$
