
     RDKit          3D

 29 31  0  0  0  0  0  0  0  0999 V2000
    9.8960   -0.9814   20.8338 C   0  0  0  0  0  0  0  0  0  0  0  0
    8.7681   -0.1291   21.2094 N   0  0  0  0  0  0  0  0  0  0  0  0
    7.4230   -0.6524   21.0128 C   0  0  0  0  0  0  0  0  0  0  0  0
    6.6493    0.0369   19.9200 C   0  0  0  0  0  0  0  0  0  0  0  0
    5.4206    0.6617   20.1541 C   0  0  0  0  0  0  0  0  0  0  0  0
    4.7911    1.3130   19.0922 C   0  0  0  0  0  0  0  0  0  0  0  0
    5.3961    1.2955   17.8329 C   0  0  0  0  0  0  0  0  0  0  0  0
    6.5601    0.6760   17.5827 N   0  0  0  0  0  0  0  0  0  0  0  0
    7.1649    0.0759   18.6147 C   0  0  0  0  0  0  0  0  0  0  0  0
    8.1089   -0.4156   18.3746 H   0  0  0  0  0  0  0  0  0  0  0  0
    4.9295    1.7906   16.9834 H   0  0  0  0  0  0  0  0  0  0  0  0
    3.8645    1.8494   19.2364 H   0  0  0  0  0  0  0  0  0  0  0  0
    4.9780    0.6499   21.1559 H   0  0  0  0  0  0  0  0  0  0  0  0
    6.8544   -0.6525   21.9536 H   0  0  0  0  0  0  0  0  0  0  0  0
    7.5328   -1.7134   20.7611 H   0  0  0  0  0  0  0  0  0  0  0  0
    8.9979    1.1576   21.6371 C   0  0  0  0  0  0  0  0  0  0  0  0
   10.2193    1.6317   21.4850 N   0  0  0  0  0  0  0  0  0  0  0  0
   10.4043    2.8771   21.9710 N   0  0  0  0  0  0  0  0  0  0  0  0
   11.5730    3.5146   21.9190 N   0  0  0  0  0  0  0  0  0  0  0  0
   11.3652    4.6730   22.4674 N   0  0  0  0  0  0  0  0  0  0  0  0
   10.1009    4.8213   22.8878 N   0  0  0  0  0  0  0  0  0  0  0  0
    9.4879    3.6889   22.5855 C   0  0  0  0  0  0  0  0  0  0  0  0
    8.1641    3.1762   22.7553 C   0  0  0  0  0  0  0  0  0  0  0  0
    7.9262    1.9187   22.2821 C   0  0  0  0  0  0  0  0  0  0  0  0
    6.9695    1.4330   22.3880 H   0  0  0  0  0  0  0  0  0  0  0  0
    7.4206    3.8001   23.2479 H   0  0  0  0  0  0  0  0  0  0  0  0
    9.5296   -1.9563   20.4916 H   0  0  0  0  0  0  0  0  0  0  0  0
   10.4527   -0.5415   20.0206 H   0  0  0  0  0  0  0  0  0  0  0  0
   10.6055   -1.1263   21.6561 H   0  0  0  0  0  0  0  0  0  0  0  0
  1  2  1  0
  2  3  1  0
  3  4  1  0
  4  5  2  0
  5  6  1  0
  6  7  2  0
  7  8  1  0
  8  9  2  0
  9 10  1  0
  7 11  1  0
  6 12  1  0
  5 13  1  0
  3 14  1  0
  3 15  1  0
  2 16  1  0
 16 17  2  0
 17 18  1  0
 18 19  1  0
 19 20  2  0
 20 21  1  0
 21 22  2  0
 22 23  1  0
 23 24  2  0
 24 25  1  0
 23 26  1  0
  1 27  1  0
  1 28  1  0
  1 29  1  0
  9  4  1  0
 24 16  1  0
 22 18  1  0
M  END
>  <plip>  (1) 
-0.03571428571428571

>  <filename>  (1) 
[H][c]1[n][c]([H])[c]([C]([H])([H])[N]([c]2[n][n]3[n][n][n][c]3[c]([H])[c]2[H])[C]([H])([H])[H])[c]([H])[c]1[H]

$$$$
