
     RDKit          3D

 34 35  0  0  0  0  0  0  0  0999 V2000
    4.9650    1.7805   16.9400 H   0  0  0  0  0  0  0  0  0  0  0  0
    5.4177    1.2870   17.7980 C   0  0  0  0  0  0  0  0  0  0  0  0
    6.5760    0.6531   17.5785 N   0  0  0  0  0  0  0  0  0  0  0  0
    7.1705    0.0685   18.6349 C   0  0  0  0  0  0  0  0  0  0  0  0
    8.1150   -0.4286   18.4046 H   0  0  0  0  0  0  0  0  0  0  0  0
    6.6419    0.0663   19.9339 C   0  0  0  0  0  0  0  0  0  0  0  0
    7.3305   -0.5794   21.1295 C   0  0  2  0  0  0  0  0  0  0  0  0
    6.5081   -0.8947   21.7938 H   0  0  0  0  0  0  0  0  0  0  0  0
    8.0948    0.4107   21.9021 N   0  0  0  0  0  0  0  0  0  0  0  0
    8.1551    0.1172   23.3376 C   0  0  0  0  0  0  0  0  0  0  0  0
    7.1445    0.1621   23.7591 H   0  0  0  0  0  0  0  0  0  0  0  0
    8.7460    0.8460   23.9115 H   0  0  0  0  0  0  0  0  0  0  0  0
    8.5711   -0.8777   23.5831 H   0  0  0  0  0  0  0  0  0  0  0  0
    9.3391    0.8845   21.2906 C   0  0  1  0  0  0  0  0  0  0  0  0
    9.1952    0.8814   20.2001 H   0  0  0  0  0  0  0  0  0  0  0  0
    9.4987    2.2463   21.7347 N   0  0  0  0  0  0  0  0  0  0  0  0
    8.6257    2.4194   22.2145 H   0  0  0  0  0  0  0  0  0  0  0  0
   10.6971    2.4103   22.5479 C   0  0  0  0  0  0  0  0  0  0  0  0
   10.4935    2.3272   23.6307 H   0  0  0  0  0  0  0  0  0  0  0  0
   11.1272    3.4050   22.3752 H   0  0  0  0  0  0  0  0  0  0  0  0
   11.6249    1.2921   22.0497 C   0  0  0  0  0  0  0  0  0  0  0  0
   12.3455    0.9657   22.8042 H   0  0  0  0  0  0  0  0  0  0  0  0
   12.1872    1.6574   21.1851 H   0  0  0  0  0  0  0  0  0  0  0  0
   10.6585    0.1654   21.6539 C   0  0  0  0  0  0  0  0  0  0  0  0
   11.0264   -0.4473   20.8271 H   0  0  0  0  0  0  0  0  0  0  0  0
   10.4863   -0.5077   22.5004 H   0  0  0  0  0  0  0  0  0  0  0  0
    8.1440   -1.8334   20.7729 C   0  0  0  0  0  0  0  0  0  0  0  0
    8.9050   -1.6145   20.0121 H   0  0  0  0  0  0  0  0  0  0  0  0
    7.4784   -2.6198   20.4121 H   0  0  0  0  0  0  0  0  0  0  0  0
    8.6587   -2.2164   21.6588 H   0  0  0  0  0  0  0  0  0  0  0  0
    5.4178    0.7206   20.1304 C   0  0  0  0  0  0  0  0  0  0  0  0
    4.9761    0.7475   21.1293 H   0  0  0  0  0  0  0  0  0  0  0  0
    4.7936    1.3375   19.0483 C   0  0  0  0  0  0  0  0  0  0  0  0
    3.8485    1.8512   19.1642 H   0  0  0  0  0  0  0  0  0  0  0  0
  1  2  1  0
  2  3  2  0
  3  4  1  0
  4  5  1  0
  4  6  2  0
  6  7  1  0
  7  8  1  1
  7  9  1  0
  9 10  1  0
 10 11  1  0
 10 12  1  0
 10 13  1  0
  9 14  1  0
 14 15  1  6
 14 16  1  0
 16 17  1  0
 16 18  1  0
 18 19  1  0
 18 20  1  0
 18 21  1  0
 21 22  1  0
 21 23  1  0
 21 24  1  0
 24 25  1  0
 24 26  1  0
  7 27  1  0
 27 28  1  0
 27 29  1  0
 27 30  1  0
  6 31  1  0
 31 32  1  0
 31 33  2  0
 33 34  1  0
 33  2  1  0
 24 14  1  0
M  END
>  <plip>  (1) 
-0.10714285714285714

>  <filename>  (1) 
[H][c]1[n][c]([H])[c]([C@]([H])([N]([C]([H])([H])[H])[C@@]2([H])[N]([H])[C]([H])([H])[C]([H])([H])[C]2([H])[H])[C]([H])([H])[H])[c]([H])[c]1[H]

$$$$
