
     RDKit          3D

 33 35  0  0  0  0  0  0  0  0999 V2000
    6.0128   -2.3372   19.7909 H   0  0  0  0  0  0  0  0  0  0  0  0
    6.4809   -2.8957   20.5024 N   0  0  0  0  0  0  0  0  0  0  0  0
    7.1561   -2.0833   21.2042 C   0  0  0  0  0  0  0  0  0  0  0  0
    8.0777   -2.5426   22.6464 S   0  0  0  0  0  0  0  0  0  0  0  0
    8.4795   -0.8875   22.9779 C   0  0  0  0  0  0  0  0  0  0  0  0
    9.1168   -0.6507   23.8275 H   0  0  0  0  0  0  0  0  0  0  0  0
    7.9789   -0.0312   22.0515 C   0  0  0  0  0  0  0  0  0  0  0  0
    8.1724    1.4789   22.0496 C   0  0  0  0  0  0  0  0  0  0  0  0
    8.2296    2.1501   21.0387 O   0  0  0  0  0  0  0  0  0  0  0  0
    8.3040    2.0119   23.3164 N   0  0  0  0  0  0  0  0  0  0  0  0
    8.0118    1.4291   24.0780 H   0  0  0  0  0  0  0  0  0  0  0  0
    8.7245    3.3186   23.6414 C   0  0  0  0  0  0  0  0  0  0  0  0
    8.2564    3.9542   24.8030 C   0  0  0  0  0  0  0  0  0  0  0  0
    7.5562    3.4447   25.4629 H   0  0  0  0  0  0  0  0  0  0  0  0
    8.6590    5.2663   25.0971 C   0  0  0  0  0  0  0  0  0  0  0  0
    8.2916    5.8009   25.9693 H   0  0  0  0  0  0  0  0  0  0  0  0
    9.5475    5.9117   24.2359 C   0  0  0  0  0  0  0  0  0  0  0  0
    9.9317    7.1703   24.5098 F   0  0  0  0  0  0  0  0  0  0  0  0
   10.0504    5.2828   23.0996 C   0  0  0  0  0  0  0  0  0  0  0  0
   10.7325    5.8116   22.4396 H   0  0  0  0  0  0  0  0  0  0  0  0
    9.6383    3.9801   22.8110 C   0  0  0  0  0  0  0  0  0  0  0  0
    9.9998    3.4607   21.9320 H   0  0  0  0  0  0  0  0  0  0  0  0
    7.3224   -0.7017   20.9902 N   0  0  0  0  0  0  0  0  0  0  0  0
    6.6637    0.0007   19.9054 C   0  0  0  0  0  0  0  0  0  0  0  0
    7.2153    0.1163   18.6096 C   0  0  0  0  0  0  0  0  0  0  0  0
    8.1771   -0.3449   18.3902 H   0  0  0  0  0  0  0  0  0  0  0  0
    6.6064    0.7379   17.5861 N   0  0  0  0  0  0  0  0  0  0  0  0
    5.4185    1.3191   17.8177 C   0  0  0  0  0  0  0  0  0  0  0  0
    4.9635    1.8484   16.9779 H   0  0  0  0  0  0  0  0  0  0  0  0
    4.7966    1.2799   19.0674 C   0  0  0  0  0  0  0  0  0  0  0  0
    3.8525    1.7893   19.2061 H   0  0  0  0  0  0  0  0  0  0  0  0
    5.4299    0.6188   20.1280 C   0  0  0  0  0  0  0  0  0  0  0  0
    4.9866    0.5736   21.1207 H   0  0  0  0  0  0  0  0  0  0  0  0
  1  2  1  0
  2  3  2  3
  3  4  1  0
  4  5  1  0
  5  6  1  0
  5  7  2  0
  7  8  1  0
  8  9  2  0
  8 10  1  0
 10 11  1  0
 10 12  1  0
 12 13  2  0
 13 14  1  0
 13 15  1  0
 15 16  1  0
 15 17  2  0
 17 18  1  0
 17 19  1  0
 19 20  1  0
 19 21  2  0
 21 22  1  0
  7 23  1  0
 23 24  1  0
 24 25  2  0
 25 26  1  0
 25 27  1  0
 27 28  2  0
 28 29  1  0
 28 30  1  0
 30 31  1  0
 30 32  2  0
 32 33  1  0
 23  3  1  0
 32 24  1  0
 21 12  1  0
M  END
>  <plip>  (1) 
-0.07142857142857142

>  <filename>  (1) 
[H][N]=[c]1[s][c]([H])[c]([C](=[O])[N]([H])[c]2[c]([H])[c]([H])[c]([F])[c]([H])[c]2[H])[n]1-[c]1[c]([H])[n][c]([H])[c]([H])[c]1[H]

$$$$
