
     RDKit          3D

 33 35  0  0  0  0  0  0  0  0999 V2000
    4.9274    1.7798   17.0029 H   0  0  0  0  0  0  0  0  0  0  0  0
    5.4030    1.2865   17.8475 C   0  0  0  0  0  0  0  0  0  0  0  0
    6.5610    0.6615   17.5887 N   0  0  0  0  0  0  0  0  0  0  0  0
    7.1771    0.0455   18.6010 C   0  0  0  0  0  0  0  0  0  0  0  0
    8.1302   -0.4262   18.3800 H   0  0  0  0  0  0  0  0  0  0  0  0
    6.6672   -0.0026   19.9148 C   0  0  0  0  0  0  0  0  0  0  0  0
    7.3637   -0.6731   20.9554 N   0  0  0  0  0  0  0  0  0  0  0  0
    6.6630   -1.2099   22.0204 N   0  0  0  0  0  0  0  0  0  0  0  0
    7.5282   -1.6859   22.8581 C   0  0  0  0  0  0  0  0  0  0  0  0
    7.1602   -2.3044   24.1773 C   0  0  0  0  0  0  0  0  0  0  0  0
    7.5188   -3.3361   24.2079 H   0  0  0  0  0  0  0  0  0  0  0  0
    6.0684   -2.3238   24.2795 H   0  0  0  0  0  0  0  0  0  0  0  0
    7.7962   -1.7039   25.3120 O   0  0  0  0  0  0  0  0  0  0  0  0
    7.4711   -0.4290   25.7024 C   0  0  0  0  0  0  0  0  0  0  0  0
    8.2586    0.1069   26.7345 C   0  0  0  0  0  0  0  0  0  0  0  0
    9.0665   -0.4954   27.1414 H   0  0  0  0  0  0  0  0  0  0  0  0
    7.9804    1.3841   27.2209 C   0  0  0  0  0  0  0  0  0  0  0  0
    8.5325    1.8024   28.0482 H   0  0  0  0  0  0  0  0  0  0  0  0
    6.9463    2.1528   26.6840 C   0  0  0  0  0  0  0  0  0  0  0  0
    6.7638    3.1509   27.0788 H   0  0  0  0  0  0  0  0  0  0  0  0
    6.1700    1.6185   25.6606 C   0  0  0  0  0  0  0  0  0  0  0  0
    5.3560    2.2108   25.2519 H   0  0  0  0  0  0  0  0  0  0  0  0
    6.4195    0.3309   25.1618 C   0  0  0  0  0  0  0  0  0  0  0  0
    5.8086   -0.0735   24.3617 H   0  0  0  0  0  0  0  0  0  0  0  0
    8.9375   -1.5238   22.4078 C   0  0  0  0  0  0  0  0  0  0  0  0
    9.4749   -2.4626   22.2435 H   0  0  0  0  0  0  0  0  0  0  0  0
    9.5537   -0.9405   23.0945 H   0  0  0  0  0  0  0  0  0  0  0  0
    8.7466   -0.7779   21.1120 C   0  0  0  0  0  0  0  0  0  0  0  0
    9.6049   -0.3640   20.3702 O   0  0  0  0  0  0  0  0  0  0  0  0
    5.4486    0.6394   20.1745 C   0  0  0  0  0  0  0  0  0  0  0  0
    5.0240    0.6087   21.1769 H   0  0  0  0  0  0  0  0  0  0  0  0
    4.8195    1.3022   19.1189 C   0  0  0  0  0  0  0  0  0  0  0  0
    3.8881    1.8329   19.2663 H   0  0  0  0  0  0  0  0  0  0  0  0
  1  2  1  0
  2  3  2  0
  3  4  1  0
  4  5  1  0
  4  6  2  0
  6  7  1  0
  7  8  1  0
  8  9  2  0
  9 10  1  0
 10 11  1  0
 10 12  1  0
 10 13  1  0
 13 14  1  0
 14 15  2  0
 15 16  1  0
 15 17  1  0
 17 18  1  0
 17 19  2  0
 19 20  1  0
 19 21  1  0
 21 22  1  0
 21 23  2  0
 23 24  1  0
  9 25  1  0
 25 26  1  0
 25 27  1  0
 25 28  1  0
 28 29  2  0
  6 30  1  0
 30 31  1  0
 30 32  2  0
 32 33  1  0
 32  2  1  0
 28  7  1  0
 23 14  1  0
M  END
>  <plip>  (1) 
-0.07142857142857142

>  <filename>  (1) 
[H][c]1[n][c]([H])[c]([N]2[N]=[C]([C]([H])([H])[O][c]3[c]([H])[c]([H])[c]([H])[c]([H])[c]3[H])[C]([H])([H])[C]2=[O])[c]([H])[c]1[H]

$$$$
