
     RDKit          3D

 23 23  0  0  0  0  0  0  0  0999 V2000
   11.4552    1.2000   24.6437 H   0  0  0  0  0  0  0  0  0  0  0  0
   11.1139    0.6646   23.9023 O   0  0  0  0  0  0  0  0  0  0  0  0
   10.7340    1.6613   23.0861 C   0  0  0  0  0  0  0  0  0  0  0  0
   10.9460    2.7986   23.4208 O   0  0  0  0  0  0  0  0  0  0  0  0
   10.0752    1.1741   21.7985 C   0  0  0  0  0  0  0  0  0  0  0  0
   10.3022    0.1054   21.6545 H   0  0  0  0  0  0  0  0  0  0  0  0
   10.4929    1.7638   20.9843 H   0  0  0  0  0  0  0  0  0  0  0  0
    8.6749    1.4392   21.7779 O   0  0  0  0  0  0  0  0  0  0  0  0
    7.8869    0.4497   22.3681 C   0  0  0  0  0  0  0  0  0  0  0  0
    6.9524    0.8818   22.7258 H   0  0  0  0  0  0  0  0  0  0  0  0
    8.3964   -0.0429   23.2106 H   0  0  0  0  0  0  0  0  0  0  0  0
    7.5135   -0.9133   21.1817 S   0  0  0  0  0  4  0  0  0  0  0  0
    6.4714   -1.7924   21.8072 O   0  0  0  0  0  0  0  0  0  0  0  0
    6.6732    0.0584   19.9269 C   0  0  0  0  0  0  0  0  0  0  0  0
    7.1871    0.0702   18.6283 C   0  0  0  0  0  0  0  0  0  0  0  0
    8.1244   -0.4335   18.3930 H   0  0  0  0  0  0  0  0  0  0  0  0
    6.5694    0.6648   17.6018 N   0  0  0  0  0  0  0  0  0  0  0  0
    5.4056    1.2858   17.8499 C   0  0  0  0  0  0  0  0  0  0  0  0
    4.9311    1.7769   17.0001 H   0  0  0  0  0  0  0  0  0  0  0  0
    4.8129    1.3124   19.1145 C   0  0  0  0  0  0  0  0  0  0  0  0
    3.8778    1.8357   19.2528 H   0  0  0  0  0  0  0  0  0  0  0  0
    5.4452    0.6736   20.1807 C   0  0  0  0  0  0  0  0  0  0  0  0
    4.9889    0.6190   21.1700 H   0  0  0  0  0  0  0  0  0  0  0  0
  1  2  1  0
  2  3  1  0
  3  4  2  0
  3  5  1  0
  5  6  1  0
  5  7  1  0
  5  8  1  0
  8  9  1  0
  9 10  1  0
  9 11  1  0
 12  9  1  1
 12 13  2  0
 12 14  1  0
 14 15  2  0
 15 16  1  0
 15 17  1  0
 17 18  2  0
 18 19  1  0
 18 20  1  0
 20 21  1  0
 20 22  2  0
 22 23  1  0
 22 14  1  0
M  END
>  <plip>  (1) 
-0.07142857142857142

>  <filename>  (1) 
[H][O][C](=[O])[C]([H])([H])[O][C]([H])([H])[S@@](=[O])[c]1[c]([H])[n][c]([H])[c]([H])[c]1[H]

$$$$
