
     RDKit          3D

 35 37  0  0  0  0  0  0  0  0999 V2000
    5.0608    1.8173   16.8655 H   0  0  0  0  0  0  0  0  0  0  0  0
    5.4456    1.2861   17.7321 C   0  0  0  0  0  0  0  0  0  0  0  0
    6.5907    0.6089   17.5524 N   0  0  0  0  0  0  0  0  0  0  0  0
    7.0833   -0.0414   18.6157 C   0  0  0  0  0  0  0  0  0  0  0  0
    8.0187   -0.5825   18.4450 H   0  0  0  0  0  0  0  0  0  0  0  0
    6.4817   -0.0555   19.8727 C   0  0  0  0  0  0  0  0  0  0  0  0
    7.1804   -0.7688   21.0015 C   0  0  2  0  0  0  0  0  0  0  0  0
    8.1561   -1.1368   20.6370 H   0  0  0  0  0  0  0  0  0  0  0  0
    6.4544   -1.8696   21.4795 O   0  0  0  0  0  0  0  0  0  0  0  0
    6.8292   -2.1175   22.8309 C   0  0  0  0  0  0  0  0  0  0  0  0
    5.9326   -2.4098   23.3819 H   0  0  0  0  0  0  0  0  0  0  0  0
    7.5544   -2.9431   22.8836 H   0  0  0  0  0  0  0  0  0  0  0  0
    7.4410   -0.8070   23.3609 C   0  0  0  0  0  0  0  0  0  0  0  0
    8.4830   -0.9474   23.6565 H   0  0  0  0  0  0  0  0  0  0  0  0
    6.9122   -0.3809   24.2204 H   0  0  0  0  0  0  0  0  0  0  0  0
    7.3396    0.0610   22.2012 N   0  0  0  0  0  0  0  0  0  0  0  0
    8.2299    1.1180   22.2120 O   0  0  0  0  0  0  0  0  0  0  0  0
    9.5163    0.8421   21.6278 C   0  0  0  0  0  0  0  0  0  0  0  0
    9.3752    0.6353   20.5600 H   0  0  0  0  0  0  0  0  0  0  0  0
   10.3915    2.0585   21.8242 C   0  0  0  0  0  0  0  0  0  0  0  0
   10.1161    2.8944   21.1821 H   0  0  0  0  0  0  0  0  0  0  0  0
   10.2707    2.3916   22.8616 H   0  0  0  0  0  0  0  0  0  0  0  0
   11.8280    1.5447   21.5775 C   0  0  0  0  0  0  0  0  0  0  0  0
   12.5134    1.9886   22.3058 H   0  0  0  0  0  0  0  0  0  0  0  0
   12.1718    1.8495   20.5858 H   0  0  0  0  0  0  0  0  0  0  0  0
   11.7502   -0.0061   21.7234 C   0  0  0  0  0  0  0  0  0  0  0  0
   11.8187   -0.5173   20.7511 H   0  0  0  0  0  0  0  0  0  0  0  0
   12.5480   -0.4264   22.3466 H   0  0  0  0  0  0  0  0  0  0  0  0
   10.3514   -0.2509   22.3003 C   0  0  0  0  0  0  0  0  0  0  0  0
   10.3452   -0.0557   23.3841 H   0  0  0  0  0  0  0  0  0  0  0  0
    9.9925   -1.2719   22.1303 H   0  0  0  0  0  0  0  0  0  0  0  0
    5.2834    0.6519   20.0468 C   0  0  0  0  0  0  0  0  0  0  0  0
    4.8142    0.6858   21.0301 H   0  0  0  0  0  0  0  0  0  0  0  0
    4.7561    1.3312   18.9505 C   0  0  0  0  0  0  0  0  0  0  0  0
    3.8426    1.9102   19.0356 H   0  0  0  0  0  0  0  0  0  0  0  0
  1  2  1  0
  2  3  2  0
  3  4  1  0
  4  5  1  0
  4  6  2  0
  6  7  1  0
  7  8  1  6
  7  9  1  0
  9 10  1  0
 10 11  1  0
 10 12  1  0
 10 13  1  0
 13 14  1  0
 13 15  1  0
 13 16  1  0
 16 17  1  0
 17 18  1  0
 18 19  1  0
 18 20  1  0
 20 21  1  0
 20 22  1  0
 20 23  1  0
 23 24  1  0
 23 25  1  0
 23 26  1  0
 26 27  1  0
 26 28  1  0
 26 29  1  0
 29 30  1  0
 29 31  1  0
  6 32  1  0
 32 33  1  0
 32 34  2  0
 34 35  1  0
 34  2  1  0
 16  7  1  0
 29 18  1  0
M  END
>  <plip>  (1) 
-0.07142857142857142

>  <filename>  (1) 
[H][c]1[n][c]([H])[c]([C@]2([H])[O][C]([H])([H])[C]([H])([H])[N]2[O][C]2([H])[C]([H])([H])[C]([H])([H])[C]([H])([H])[C]2([H])[H])[c]([H])[c]1[H]

$$$$
