
     RDKit          3D

 17 17  0  0  0  0  0  0  0  0999 V2000
   10.1316   -2.6818   23.9511 H   0  0  0  0  0  0  0  0  0  0  0  0
    9.7094   -2.1770   23.1147 C   0  0  0  0  0  0  0  0  0  0  0  0
    9.2325   -1.6040   22.1678 C   0  0  0  0  0  0  0  0  0  0  0  0
    8.6517   -0.9309   21.0543 C   0  0  0  0  0  0  0  0  0  0  0  0
    9.3138   -0.5687   20.2716 H   0  0  0  0  0  0  0  0  0  0  0  0
    7.3375   -0.6935   21.0021 C   0  0  0  0  0  0  0  0  0  0  0  0
    6.7055   -1.0045   21.8327 H   0  0  0  0  0  0  0  0  0  0  0  0
    6.6548    0.0033   19.9063 C   0  0  0  0  0  0  0  0  0  0  0  0
    7.1791    0.0708   18.5968 C   0  0  0  0  0  0  0  0  0  0  0  0
    8.1213   -0.4316   18.3713 H   0  0  0  0  0  0  0  0  0  0  0  0
    6.5702    0.6813   17.5744 N   0  0  0  0  0  0  0  0  0  0  0  0
    5.4030    1.2920   17.8428 C   0  0  0  0  0  0  0  0  0  0  0  0
    4.9092    1.7734   17.0033 H   0  0  0  0  0  0  0  0  0  0  0  0
    4.8013    1.3138   19.1096 C   0  0  0  0  0  0  0  0  0  0  0  0
    3.8660    1.8492   19.2645 H   0  0  0  0  0  0  0  0  0  0  0  0
    5.4330    0.6487   20.1556 C   0  0  0  0  0  0  0  0  0  0  0  0
    5.0055    0.6304   21.1573 H   0  0  0  0  0  0  0  0  0  0  0  0
  1  2  1  0
  2  3  3  0
  3  4  1  0
  4  5  1  0
  4  6  2  3
  6  7  1  0
  6  8  1  0
  8  9  2  0
  9 10  1  0
  9 11  1  0
 11 12  2  0
 12 13  1  0
 12 14  1  0
 14 15  1  0
 14 16  2  0
 16 17  1  0
 16  8  1  0
M  END
>  <plip>  (1) 
-0.03571428571428571

>  <filename>  (1) 
[H][C]#[C][C]([H])=[C]([H])[c]1[c]([H])[n][c]([H])[c]([H])[c]1[H]

$$$$
