
     RDKit          3D

 29 30  0  0  0  0  0  0  0  0999 V2000
    9.8659   -3.8249   24.8452 H   0  0  0  0  0  0  0  0  0  0  0  0
    9.1977   -3.9915   25.5560 O   0  0  0  0  0  0  0  0  0  0  0  0
    8.6342   -2.5501   25.3720 P   0  0  0  0  0  0  0  0  0  0  0  0
    8.4493   -1.8265   26.6455 O   0  0  0  0  0  0  0  0  0  0  0  0
   10.0610   -2.8911   24.8808 O   0  0  0  0  0  0  0  0  0  0  0  0
   10.0631   -3.5729   25.6094 H   0  0  0  0  0  0  0  0  0  0  0  0
    7.2472   -1.9257   24.1184 C   0  0  0  0  0  0  0  0  0  0  0  0
    6.0506   -2.5506   24.3183 F   0  0  0  0  0  0  0  0  0  0  0  0
    7.0317   -0.5791   24.2360 F   0  0  0  0  0  0  0  0  0  0  0  0
    7.6239   -2.1789   22.6332 C   0  0  1  0  0  0  0  0  0  0  0  0
    7.6184   -3.2542   22.4159 H   0  0  0  0  0  0  0  0  0  0  0  0
    6.6704   -1.5208   21.6221 C   0  0  0  0  0  0  0  0  0  0  0  0
    5.5507   -1.9629   21.4181 O   0  0  0  0  0  0  0  0  0  0  0  0
    7.3134   -0.6714   20.7481 N   0  0  0  0  0  0  0  0  0  0  0  0
    6.6981    0.0361   19.6820 C   0  0  0  0  0  0  0  0  0  0  0  0
    7.2888    0.2444   18.4083 C   0  0  0  0  0  0  0  0  0  0  0  0
    8.2721   -0.1796   18.2359 H   0  0  0  0  0  0  0  0  0  0  0  0
    6.6881    0.9114   17.3981 N   0  0  0  0  0  0  0  0  0  0  0  0
    5.4691    1.4328   17.6377 C   0  0  0  0  0  0  0  0  0  0  0  0
    4.9691    1.9906   16.8513 H   0  0  0  0  0  0  0  0  0  0  0  0
    4.8149    1.2838   18.8683 C   0  0  0  0  0  0  0  0  0  0  0  0
    3.8425    1.7432   19.0160 H   0  0  0  0  0  0  0  0  0  0  0  0
    5.4287    0.5664   19.8992 C   0  0  0  0  0  0  0  0  0  0  0  0
    4.9550    0.4399   20.8708 H   0  0  0  0  0  0  0  0  0  0  0  0
    8.6498   -0.6673   21.0773 C   0  0  0  0  0  0  0  0  0  0  0  0
    9.4962   -0.0118   20.4918 O   0  0  0  0  0  0  0  0  0  0  0  0
    8.9867   -1.5353   22.2842 C   0  0  0  0  0  0  0  0  0  0  0  0
    9.3670   -0.9005   23.0938 H   0  0  0  0  0  0  0  0  0  0  0  0
    9.7497   -2.2788   22.0258 H   0  0  0  0  0  0  0  0  0  0  0  0
  1  2  1  0
  2  3  1  0
  3  4  2  0
  3  5  1  0
  5  6  1  0
  3  7  1  0
  7  8  1  0
  7  9  1  0
  7 10  1  0
 10 11  1  6
 10 12  1  0
 12 13  2  0
 12 14  1  0
 14 15  1  0
 15 16  2  0
 16 17  1  0
 16 18  1  0
 18 19  2  0
 19 20  1  0
 19 21  1  0
 21 22  1  0
 21 23  2  0
 23 24  1  0
 14 25  1  0
 25 26  2  0
 25 27  1  0
 27 28  1  0
 27 29  1  0
 27 10  1  0
 23 15  1  0
M  END
>  <plip>  (1) 
-0.10714285714285714

>  <filename>  (1) 
[H][O][P](=[O])([O][H])[C]([F])([F])[C@@]1([H])[C](=[O])[N]([c]2[c]([H])[n][c]([H])[c]([H])[c]2[H])[C](=[O])[C]1([H])[H]

$$$$
