
     RDKit          3D

 22 23  0  0  0  0  0  0  0  0999 V2000
    9.2151   -0.7815   20.2882 H   0  0  0  0  0  0  0  0  0  0  0  0
    8.4730   -1.0058   21.0653 C   0  0  0  0  0  0  0  0  0  0  0  0
    7.2511   -0.6493   20.9953 N   0  0  0  0  0  0  0  0  0  0  0  0
    6.6974    0.0114   19.8759 C   0  0  0  0  0  0  0  0  0  0  0  0
    7.1959    0.0607   18.5516 C   0  0  0  0  0  0  0  0  0  0  0  0
    8.1322   -0.4264   18.2857 H   0  0  0  0  0  0  0  0  0  0  0  0
    6.5643    0.6814   17.5442 N   0  0  0  0  0  0  0  0  0  0  0  0
    5.4056    1.2981   17.8195 C   0  0  0  0  0  0  0  0  0  0  0  0
    4.9343    1.8084   16.9844 H   0  0  0  0  0  0  0  0  0  0  0  0
    4.8214    1.3046   19.0940 C   0  0  0  0  0  0  0  0  0  0  0  0
    3.8830    1.8268   19.2499 H   0  0  0  0  0  0  0  0  0  0  0  0
    5.4742    0.6496   20.1348 C   0  0  0  0  0  0  0  0  0  0  0  0
    5.1039    0.5898   21.1585 H   0  0  0  0  0  0  0  0  0  0  0  0
    9.0204   -1.7551   22.2411 C   0  0  0  0  0  0  0  0  0  0  0  0
   10.3252   -2.0848   22.1867 N   0  0  0  0  0  0  0  0  0  0  0  0
   10.8089   -2.7667   23.2260 C   0  0  0  0  0  0  0  0  0  0  0  0
   11.8548   -3.0735   23.1811 H   0  0  0  0  0  0  0  0  0  0  0  0
   10.1304   -3.1217   24.3195 N   0  0  0  0  0  0  0  0  0  0  0  0
    8.8365   -2.7962   24.3593 C   0  0  0  0  0  0  0  0  0  0  0  0
    8.2883   -3.1097   25.2510 H   0  0  0  0  0  0  0  0  0  0  0  0
    8.2114   -2.1131   23.3248 C   0  0  0  0  0  0  0  0  0  0  0  0
    7.1591   -1.8571   23.3107 H   0  0  0  0  0  0  0  0  0  0  0  0
  1  2  1  0
  2  3  2  3
  3  4  1  0
  4  5  2  0
  5  6  1  0
  5  7  1  0
  7  8  2  0
  8  9  1  0
  8 10  1  0
 10 11  1  0
 10 12  2  0
 12 13  1  0
  2 14  1  0
 14 15  2  0
 15 16  1  0
 16 17  1  0
 16 18  2  0
 18 19  1  0
 19 20  1  0
 19 21  2  0
 21 22  1  0
 12  4  1  0
 21 14  1  0
M  END
>  <plip>  (1) 
-0.07142857142857142

>  <filename>  (1) 
[H][C](=[N][c]1[c]([H])[n][c]([H])[c]([H])[c]1[H])[c]1[n][c]([H])[n][c]([H])[c]1[H]

$$$$
