
     RDKit          3D

 24 25  0  0  0  0  0  0  0  0999 V2000
    4.9093    1.8217   16.9689 H   0  0  0  0  0  0  0  0  0  0  0  0
    5.3803    1.3147   17.8091 C   0  0  0  0  0  0  0  0  0  0  0  0
    6.5467    0.7027   17.5417 N   0  0  0  0  0  0  0  0  0  0  0  0
    7.1618    0.0885   18.5617 C   0  0  0  0  0  0  0  0  0  0  0  0
    8.1141   -0.3910   18.3349 H   0  0  0  0  0  0  0  0  0  0  0  0
    6.6564    0.0247   19.8797 C   0  0  0  0  0  0  0  0  0  0  0  0
    7.3740   -0.7150   20.9687 C   0  0  0  0  0  0  0  0  0  0  0  0
    6.7778   -1.7945   21.6288 C   0  0  0  0  0  0  0  0  0  0  0  0
    5.7432   -2.0573   21.3904 H   0  0  0  0  0  0  0  0  0  0  0  0
    7.3912   -2.5824   22.5155 N   0  0  0  0  0  0  0  0  0  0  0  0
    8.6689   -2.3112   22.8066 C   0  0  0  0  0  0  0  0  0  0  0  0
    9.1199   -2.9713   23.5565 H   0  0  0  0  0  0  0  0  0  0  0  0
    9.3753   -1.2635   22.2338 C   0  0  0  0  0  0  0  0  0  0  0  0
   10.3957   -1.0534   22.5377 H   0  0  0  0  0  0  0  0  0  0  0  0
    8.7021   -0.4190   21.3314 C   0  0  0  0  0  0  0  0  0  0  0  0
    9.3589    0.6773   20.7882 N   0  0  0  0  0  0  0  0  0  0  0  0
   10.3516    0.6215   20.9633 H   0  0  0  0  0  0  0  0  0  0  0  0
    8.8219    1.9950   20.8118 N   0  0  0  0  0  0  0  0  0  0  0  0
    8.2185    2.1459   21.6297 H   0  0  0  0  0  0  0  0  0  0  0  0
    8.2154    2.1445   19.9999 H   0  0  0  0  0  0  0  0  0  0  0  0
    5.4344    0.6586   20.1293 C   0  0  0  0  0  0  0  0  0  0  0  0
    5.0261    0.6275   21.1408 H   0  0  0  0  0  0  0  0  0  0  0  0
    4.7921    1.3217   19.0783 C   0  0  0  0  0  0  0  0  0  0  0  0
    3.8559    1.8471   19.2274 H   0  0  0  0  0  0  0  0  0  0  0  0
  1  2  1  0
  2  3  2  0
  3  4  1  0
  4  5  1  0
  4  6  2  0
  6  7  1  0
  7  8  2  0
  8  9  1  0
  8 10  1  0
 10 11  2  0
 11 12  1  0
 11 13  1  0
 13 14  1  0
 13 15  2  0
 15 16  1  0
 16 17  1  0
 16 18  1  0
 18 19  1  0
 18 20  1  0
  6 21  1  0
 21 22  1  0
 21 23  2  0
 23 24  1  0
 23  2  1  0
 15  7  1  0
M  END
>  <plip>  (1) 
-0.07142857142857142

>  <filename>  (1) 
[H][c]1[n][c]([H])[c](-[c]2[c]([H])[n][c]([H])[c]([H])[c]2[N]([H])[N]([H])[H])[c]([H])[c]1[H]

$$$$
