
     RDKit          3D

 43 46  0  0  0  0  0  0  0  0999 V2000
    6.2334   -3.0505   19.9878 O   0  0  0  0  0  0  0  0  0  0  0  0
    6.0233   -2.7785   21.1537 C   0  0  0  0  0  0  0  0  0  0  0  0
    5.2253   -3.7113   22.0244 C   0  0  0  0  0  0  0  0  0  0  0  0
    6.0769   -4.8915   22.4874 C   0  0  0  0  0  0  0  0  0  0  0  0
    7.1723   -4.5049   23.4996 C   0  0  0  0  0  0  0  0  0  0  0  0
    6.8039   -5.3464   24.6884 C   0  0  0  0  0  0  0  0  0  0  0  0
    5.6542   -6.0818   24.3861 C   0  0  0  0  0  0  0  0  0  0  0  0
    5.1810   -5.8224   23.1424 O   0  0  0  0  0  0  0  0  0  0  0  0
    5.0951   -6.9665   25.3182 C   0  0  0  0  0  0  0  0  0  0  0  0
    3.7080   -7.9419   24.9387 Cl  0  0  0  0  0  0  0  0  0  0  0  0
    5.6998   -7.0680   26.5791 C   0  0  0  0  0  0  0  0  0  0  0  0
    6.8328   -6.3053   26.8892 C   0  0  0  0  0  0  0  0  0  0  0  0
    7.3918   -5.4375   25.9418 C   0  0  0  0  0  0  0  0  0  0  0  0
    8.2677   -4.8378   26.1710 H   0  0  0  0  0  0  0  0  0  0  0  0
    7.2950   -6.3984   27.8668 H   0  0  0  0  0  0  0  0  0  0  0  0
    5.2829   -7.7569   27.3091 H   0  0  0  0  0  0  0  0  0  0  0  0
    7.1388   -3.4360   23.7436 H   0  0  0  0  0  0  0  0  0  0  0  0
    8.1789   -4.6996   23.1125 H   0  0  0  0  0  0  0  0  0  0  0  0
    6.4975   -5.4383   21.6356 H   0  0  0  0  0  0  0  0  0  0  0  0
    4.4269   -4.1480   21.4405 H   0  0  0  0  0  0  0  0  0  0  0  0
    4.7905   -3.2096   22.8913 H   0  0  0  0  0  0  0  0  0  0  0  0
    6.5625   -1.6829   21.7597 N   0  0  0  0  0  0  0  0  0  0  0  0
    7.3850   -0.7354   21.0125 C   0  0  0  0  0  0  0  0  0  0  0  0
    6.6131   -0.0320   19.9017 C   0  0  0  0  0  0  0  0  0  0  0  0
    5.4072    0.6422   20.1352 C   0  0  0  0  0  0  0  0  0  0  0  0
    4.7870    1.3156   19.0798 C   0  0  0  0  0  0  0  0  0  0  0  0
    5.4022    1.3012   17.8210 C   0  0  0  0  0  0  0  0  0  0  0  0
    6.5629    0.6785   17.5750 N   0  0  0  0  0  0  0  0  0  0  0  0
    7.1400    0.0371   18.6042 C   0  0  0  0  0  0  0  0  0  0  0  0
    8.0930   -0.4420   18.3734 H   0  0  0  0  0  0  0  0  0  0  0  0
    4.9432    1.8069   16.9716 H   0  0  0  0  0  0  0  0  0  0  0  0
    3.8591    1.8603   19.2228 H   0  0  0  0  0  0  0  0  0  0  0  0
    4.9627    0.6579   21.1340 H   0  0  0  0  0  0  0  0  0  0  0  0
    8.0195    0.2746   21.9590 C   0  0  0  0  0  0  0  0  0  0  0  0
    9.2239   -0.1175   22.7701 C   0  0  0  0  0  0  0  0  0  0  0  0
    9.3710    0.8568   21.6287 C   0  0  0  0  0  0  0  0  0  0  0  0
    9.5571    1.9075   21.8413 H   0  0  0  0  0  0  0  0  0  0  0  0
    9.8479    0.5234   20.7063 H   0  0  0  0  0  0  0  0  0  0  0  0
    9.3184    0.2447   23.7914 H   0  0  0  0  0  0  0  0  0  0  0  0
    9.6052   -1.1282   22.6381 H   0  0  0  0  0  0  0  0  0  0  0  0
    7.2829    0.9414   22.4176 H   0  0  0  0  0  0  0  0  0  0  0  0
    8.1867   -1.3119   20.5255 H   0  0  0  0  0  0  0  0  0  0  0  0
    6.1777   -1.4066   22.6470 H   0  0  0  0  0  0  0  0  0  0  0  0
  1  2  2  0
  2  3  1  0
  3  4  1  0
  4  5  1  0
  5  6  1  0
  6  7  2  0
  7  8  1  0
  7  9  1  0
  9 10  1  0
  9 11  2  0
 11 12  1  0
 12 13  2  0
 13 14  1  0
 12 15  1  0
 11 16  1  0
  5 17  1  0
  5 18  1  0
  4 19  1  0
  3 20  1  0
  3 21  1  0
  2 22  1  0
 22 23  1  0
 23 24  1  0
 24 25  2  0
 25 26  1  0
 26 27  2  0
 27 28  1  0
 28 29  2  0
 29 30  1  0
 27 31  1  0
 26 32  1  0
 25 33  1  0
 23 34  1  0
 34 35  1  0
 35 36  1  0
 36 37  1  0
 36 38  1  0
 35 39  1  0
 35 40  1  0
 34 41  1  0
 23 42  1  0
 22 43  1  0
  8  4  1  0
 29 24  1  0
 36 34  1  0
 13  6  1  0
M  END
>  <plip>  (1) 
-0.13793103448275862

>  <filename>  (1) 
[H][c]1[n][c]([H])[c]([C]([H])([N]([H])[C](=[O])[C]([H])([H])[C]2([H])[O][c]3[c]([Cl])[c]([H])[c]([H])[c]([H])[c]3[C]2([H])[H])[C]2([H])[C]([H])([H])[C]2([H])[H])[c]([H])[c]1[H]

$$$$
