
     RDKit          3D

 24 25  0  0  0  0  0  0  0  0999 V2000
    4.9331    1.8055   16.8604 H   0  0  0  0  0  0  0  0  0  0  0  0
    5.3935    1.3406   17.7328 C   0  0  0  0  0  0  0  0  0  0  0  0
    6.5716    0.7346   17.5305 N   0  0  0  0  0  0  0  0  0  0  0  0
    7.1577    0.1473   18.5771 C   0  0  0  0  0  0  0  0  0  0  0  0
    8.1150   -0.3291   18.3873 H   0  0  0  0  0  0  0  0  0  0  0  0
    6.6083    0.1235   19.8621 C   0  0  0  0  0  0  0  0  0  0  0  0
    7.2700   -0.6740   20.9494 C   0  0  0  0  0  0  0  0  0  0  0  0
    7.2616    0.0657   22.0988 F   0  0  0  0  0  0  0  0  0  0  0  0
    8.5964   -0.8530   20.6157 F   0  0  0  0  0  0  0  0  0  0  0  0
    6.6209   -2.0515   21.1856 C   0  0  0  0  0  0  0  0  0  0  0  0
    6.7063   -2.5726   20.2230 H   0  0  0  0  0  0  0  0  0  0  0  0
    5.5516   -1.9060   21.3675 H   0  0  0  0  0  0  0  0  0  0  0  0
    7.2824   -2.8825   22.2516 C   0  0  0  0  0  0  0  0  0  0  0  0
    6.9249   -3.2356   23.5133 C   0  0  0  0  0  0  0  0  0  0  0  0
    6.0498   -3.0243   24.1111 H   0  0  0  0  0  0  0  0  0  0  0  0
    7.9037   -3.9780   24.0979 O   0  0  0  0  0  0  0  0  0  0  0  0
    8.9088   -4.0909   23.1935 C   0  0  0  0  0  0  0  0  0  0  0  0
    9.8052   -4.6159   23.5003 H   0  0  0  0  0  0  0  0  0  0  0  0
    8.5856   -3.4369   22.0562 C   0  0  0  0  0  0  0  0  0  0  0  0
    9.1974   -3.2917   21.1801 H   0  0  0  0  0  0  0  0  0  0  0  0
    5.3903    0.7811   20.0745 C   0  0  0  0  0  0  0  0  0  0  0  0
    4.9359    0.8270   21.0655 H   0  0  0  0  0  0  0  0  0  0  0  0
    4.7692    1.3873   18.9837 C   0  0  0  0  0  0  0  0  0  0  0  0
    3.8220    1.9008   19.0831 H   0  0  0  0  0  0  0  0  0  0  0  0
  1  2  1  0
  2  3  2  0
  3  4  1  0
  4  5  1  0
  4  6  2  0
  6  7  1  0
  7  8  1  0
  7  9  1  0
  7 10  1  0
 10 11  1  0
 10 12  1  0
 10 13  1  0
 13 14  2  0
 14 15  1  0
 14 16  1  0
 16 17  1  0
 17 18  1  0
 17 19  2  0
 19 20  1  0
  6 21  1  0
 21 22  1  0
 21 23  2  0
 23 24  1  0
 23  2  1  0
 19 13  1  0
M  END
>  <plip>  (1) 
-0.034482758620689655

>  <filename>  (1) 
[H][c]1[n][c]([H])[c]([C]([F])([F])[C]([H])([H])[c]2[c]([H])[o][c]([H])[c]2[H])[c]([H])[c]1[H]

$$$$
