
     RDKit          3D

 31 32  0  0  0  0  0  0  0  0999 V2000
    7.7832   -2.3009   22.0694 H   0  0  0  0  0  0  0  0  0  0  0  0
    7.7736   -1.7610   22.8706 O   0  0  0  0  0  0  0  0  0  0  0  0
    6.9019   -0.7723   22.3700 C   0  0  1  0  0  0  0  0  0  0  0  0
    5.8554   -1.0703   22.4836 H   0  0  0  0  0  0  0  0  0  0  0  0
    7.1551    0.5496   23.0367 C   0  0  0  0  0  0  0  0  0  0  0  0
    8.0716    1.0225   22.7007 H   0  0  0  0  0  0  0  0  0  0  0  0
    6.3888    1.1478   23.9655 C   0  0  0  0  0  0  0  0  0  0  0  0
    6.5698    2.2000   24.2072 H   0  0  0  0  0  0  0  0  0  0  0  0
    5.2286    0.5587   24.6845 C   0  0  0  0  0  0  0  0  0  0  0  0
    5.2571   -0.7441   25.2111 C   0  0  0  0  0  0  0  0  0  0  0  0
    6.2011   -1.2890   25.1972 H   0  0  0  0  0  0  0  0  0  0  0  0
    4.0858   -1.3380   25.7003 C   0  0  0  0  0  0  0  0  0  0  0  0
    4.1138   -2.3681   26.0429 H   0  0  0  0  0  0  0  0  0  0  0  0
    2.8853   -0.6178   25.7161 C   0  0  0  0  0  0  0  0  0  0  0  0
    1.9625   -1.0995   26.0367 H   0  0  0  0  0  0  0  0  0  0  0  0
    2.8767    0.7238   25.3141 C   0  0  0  0  0  0  0  0  0  0  0  0
    1.9515    1.2950   25.3439 H   0  0  0  0  0  0  0  0  0  0  0  0
    4.0432    1.3088   24.8144 C   0  0  0  0  0  0  0  0  0  0  0  0
    4.0469    2.3571   24.5196 H   0  0  0  0  0  0  0  0  0  0  0  0
    7.2944   -0.8146   20.9686 N   0  0  0  0  0  0  0  0  0  0  0  0
    8.3075   -0.8027   20.9823 H   0  0  0  0  0  0  0  0  0  0  0  0
    6.6614   -0.0824   19.9503 C   0  0  0  0  0  0  0  0  0  0  0  0
    7.1947   -0.0324   18.6288 C   0  0  0  0  0  0  0  0  0  0  0  0
    8.1257   -0.5545   18.4088 H   0  0  0  0  0  0  0  0  0  0  0  0
    6.6276    0.6204   17.6046 N   0  0  0  0  0  0  0  0  0  0  0  0
    5.4795    1.2731   17.8422 C   0  0  0  0  0  0  0  0  0  0  0  0
    5.0478    1.7950   16.9918 H   0  0  0  0  0  0  0  0  0  0  0  0
    4.8556    1.2885   19.0913 C   0  0  0  0  0  0  0  0  0  0  0  0
    3.9294    1.8370   19.2159 H   0  0  0  0  0  0  0  0  0  0  0  0
    5.4480    0.6037   20.1625 C   0  0  0  0  0  0  0  0  0  0  0  0
    5.0023    0.6145   21.1540 H   0  0  0  0  0  0  0  0  0  0  0  0
  1  2  1  0
  2  3  1  0
  3  4  1  6
  3  5  1  0
  5  6  1  0
  5  7  2  3
  7  8  1  0
  7  9  1  0
  9 10  2  0
 10 11  1  0
 10 12  1  0
 12 13  1  0
 12 14  2  0
 14 15  1  0
 14 16  1  0
 16 17  1  0
 16 18  2  0
 18 19  1  0
  3 20  1  0
 20 21  1  0
 20 22  1  0
 22 23  2  0
 23 24  1  0
 23 25  1  0
 25 26  2  0
 26 27  1  0
 26 28  1  0
 28 29  1  0
 28 30  2  0
 30 31  1  0
 18  9  1  0
 30 22  1  0
M  END
>  <plip>  (1) 
-0.034482758620689655

>  <filename>  (1) 
[H][O][C@@]([H])([C]([H])=[C]([H])[c]1[c]([H])[c]([H])[c]([H])[c]([H])[c]1[H])[N]([H])[c]1[c]([H])[n][c]([H])[c]([H])[c]1[H]

$$$$
