
     RDKit          3D

 50 53  0  0  0  0  0  0  0  0999 V2000
    9.1756    2.3521   24.3040 C   0  0  0  0  0  0  0  0  0  0  0  0
   10.1318    0.7918   26.3225 N   0  0  0  0  0  4  0  0  0  0  0  0
   10.7085    0.1358   25.1357 C   0  0  0  0  0  0  0  0  0  0  0  0
    9.4948   -0.5308   24.4443 C   0  0  0  0  0  0  0  0  0  0  0  0
    8.2370   -0.2269   25.3038 C   0  0  1  0  0  0  0  0  0  0  0  0
    7.1530   -1.3253   25.2293 C   0  0  0  0  0  0  0  0  0  0  0  0
    6.5117   -1.3664   23.9139 N   0  0  0  0  0  0  0  0  0  0  0  0
    7.0329   -1.9777   22.8121 C   0  0  0  0  0  0  0  0  0  0  0  0
    8.0446   -2.6628   22.8447 O   0  0  0  0  0  0  0  0  0  0  0  0
    6.2988   -1.7058   21.5189 C   0  0  2  0  0  0  0  0  0  0  0  0
    6.5682   -2.6019   20.3413 C   0  0  0  0  0  0  0  0  0  0  0  0
    7.1073   -1.1959   20.3437 C   0  0  1  0  0  0  0  0  0  0  0  0
    6.5331   -0.1546   19.4232 C   0  0  0  0  0  0  0  0  0  0  0  0
    5.4647    0.6938   19.7598 C   0  0  0  0  0  0  0  0  0  0  0  0
    4.9804    1.6058   18.8187 C   0  0  0  0  0  0  0  0  0  0  0  0
    5.5779    1.6541   17.5574 C   0  0  0  0  0  0  0  0  0  0  0  0
    6.6095    0.8696   17.2097 N   0  0  0  0  0  0  0  0  0  0  0  0
    7.0651    0.0052   18.1280 C   0  0  0  0  0  0  0  0  0  0  0  0
    7.9126   -0.5994   17.8059 H   0  0  0  0  0  0  0  0  0  0  0  0
    5.2206    2.3520   16.8008 H   0  0  0  0  0  0  0  0  0  0  0  0
    4.1599    2.2773   19.0521 H   0  0  0  0  0  0  0  0  0  0  0  0
    5.0357    0.6612   20.7611 H   0  0  0  0  0  0  0  0  0  0  0  0
    8.1804   -1.0903   20.5178 H   0  0  0  0  0  0  0  0  0  0  0  0
    7.2683   -3.4090   20.5425 H   0  0  0  0  0  0  0  0  0  0  0  0
    5.7685   -2.8307   19.6401 H   0  0  0  0  0  0  0  0  0  0  0  0
    5.2974   -1.3110   21.6007 H   0  0  0  0  0  0  0  0  0  0  0  0
    5.5583   -1.0576   23.8101 H   0  0  0  0  0  0  0  0  0  0  0  0
    6.3503   -1.2141   25.9769 H   0  0  0  0  0  0  0  0  0  0  0  0
    7.6209   -2.3015   25.4302 H   0  0  0  0  0  0  0  0  0  0  0  0
    8.8357    0.1263   26.6612 C   0  0  2  0  0  0  0  0  0  0  0  0
    8.0883    1.1022   27.5290 C   0  0  0  0  0  0  0  0  0  0  0  0
    7.9886    0.9577   28.9214 C   0  0  0  0  0  0  0  0  0  0  0  0
    7.3157    1.9300   29.6569 C   0  0  0  0  0  0  0  0  0  0  0  0
    6.8291    3.0519   28.9837 C   0  0  0  0  0  0  0  0  0  0  0  0
    6.9950    3.2506   27.6706 N   0  0  0  0  0  0  0  0  0  0  0  0
    7.6214    2.2985   26.9662 C   0  0  0  0  0  0  0  0  0  0  0  0
    7.7576    2.5119   25.9029 H   0  0  0  0  0  0  0  0  0  0  0  0
    6.2948    3.8298   29.5269 H   0  0  0  0  0  0  0  0  0  0  0  0
    7.1613    1.8222   30.7243 H   0  0  0  0  0  0  0  0  0  0  0  0
    8.5006    0.1455   29.4308 H   0  0  0  0  0  0  0  0  0  0  0  0
    9.0281   -0.7960   27.2227 H   0  0  0  0  0  0  0  0  0  0  0  0
    7.8006    0.6994   24.8965 H   0  0  0  0  0  0  0  0  0  0  0  0
    9.6214   -1.5908   24.2156 H   0  0  0  0  0  0  0  0  0  0  0  0
    9.3332    0.0383   23.5159 H   0  0  0  0  0  0  0  0  0  0  0  0
   11.5373   -0.5368   25.3856 H   0  0  0  0  0  0  0  0  0  0  0  0
   11.0600    0.9502   24.4708 H   0  0  0  0  0  0  0  0  0  0  0  0
   10.7112    0.7646   27.1909 H   0  0  0  0  0  0  0  0  0  0  0  0
    9.9425    1.8404   26.1102 H   0  0  0  0  0  0  0  0  0  0  0  0
   11.0197    2.5948   22.9211 H   0  0  0  0  0  0  0  0  0  0  0  0
   11.1341    2.6737   23.5318 H   0  0  0  0  0  0  0  0  0  0  0  0
  1  2  1  0
  2  3  1  0
  3  4  1  0
  4  5  1  0
  5  6  1  0
  6  7  1  0
  7  8  1  0
  8  9  2  0
  8 10  1  0
 10 11  1  0
 11 12  1  0
 12 13  1  0
 13 14  2  0
 14 15  1  0
 15 16  2  0
 16 17  1  0
 17 18  2  0
 18 19  1  0
 16 20  1  0
 15 21  1  0
 14 22  1  0
 12 23  1  1
 11 24  1  0
 11 25  1  0
 10 26  1  1
  7 27  1  0
  6 28  1  0
  6 29  1  0
  5 30  1  0
 30 31  1  0
 31 32  2  0
 32 33  1  0
 33 34  2  0
 34 35  1  0
 35 36  2  0
 36 37  1  0
 34 38  1  0
 33 39  1  0
 32 40  1  0
 30 41  1  1
  5 42  1  6
  4 43  1  0
  4 44  1  0
  3 45  1  0
  3 46  1  0
  2 47  1  0
  1 48  1  0
  1 49  1  0
  1 50  1  0
 30  2  1  0
 36 31  1  0
 12 10  1  0
 18 13  1  0
M  CHG  1   2   1
M  END
>  <plip>  (1) 
-0.10344827586206896

>  <filename>  (1) 
[H][c]1[n][c]([H])[c]([C@@]2([H])[C@]([H])([C]([H])([H])[N]([H])[C](=[O])[C@]3([H])[C]([H])([H])[C@@]3([H])[c]3[c]([H])[n][c]([H])[c]([H])[c]3[H])[C]([H])([H])[C]([H])([H])[N+]2([H])[C]([H])([H])[H])[c]([H])[c]1[H]

$$$$
