
     RDKit          3D

 33 35  0  0  0  0  0  0  0  0999 V2000
    4.9635    1.7643   17.0375 H   0  0  0  0  0  0  0  0  0  0  0  0
    5.4347    1.2606   17.8784 C   0  0  0  0  0  0  0  0  0  0  0  0
    6.6012    0.6461   17.6192 N   0  0  0  0  0  0  0  0  0  0  0  0
    7.2163    0.0384   18.6433 C   0  0  0  0  0  0  0  0  0  0  0  0
    8.1615   -0.4435   18.4001 H   0  0  0  0  0  0  0  0  0  0  0  0
    6.7039   -0.0348   19.9677 C   0  0  0  0  0  0  0  0  0  0  0  0
    7.4019   -0.6893   21.0259 N   0  0  0  0  0  0  0  0  0  0  0  0
    6.8438   -1.5690   21.9642 C   0  0  0  0  0  0  0  0  0  0  0  0
    5.7842   -2.1423   21.8986 O   0  0  0  0  0  0  0  0  0  0  0  0
    7.7999   -1.7334   22.9501 N   0  0  0  0  0  0  0  0  0  0  0  0
    7.5423   -2.4401   24.1282 C   0  0  0  0  0  0  0  0  0  0  0  0
    8.5683   -3.1533   24.5911 N   0  0  0  0  0  0  0  0  0  0  0  0
    8.4134   -3.8308   25.7385 C   0  0  0  0  0  0  0  0  0  0  0  0
    9.2879   -4.3952   26.0603 H   0  0  0  0  0  0  0  0  0  0  0  0
    7.2432   -3.8403   26.5157 C   0  0  0  0  0  0  0  0  0  0  0  0
    7.1037   -4.6504   27.7947 C   0  0  0  0  0  0  0  0  0  0  0  0
    6.7391   -5.6696   27.6100 H   0  0  0  0  0  0  0  0  0  0  0  0
    6.3859   -4.1946   28.4872 H   0  0  0  0  0  0  0  0  0  0  0  0
    8.0529   -4.7526   28.3341 H   0  0  0  0  0  0  0  0  0  0  0  0
    6.1866   -3.0501   26.0230 C   0  0  0  0  0  0  0  0  0  0  0  0
    5.2553   -2.9934   26.5919 H   0  0  0  0  0  0  0  0  0  0  0  0
    6.3209   -2.3516   24.8180 C   0  0  0  0  0  0  0  0  0  0  0  0
    5.5234   -1.7491   24.4054 H   0  0  0  0  0  0  0  0  0  0  0  0
    9.1358   -1.3808   22.4645 C   0  0  0  0  0  0  0  0  0  0  0  0
    9.6609   -0.7504   23.1837 H   0  0  0  0  0  0  0  0  0  0  0  0
    9.7434   -2.2807   22.3377 H   0  0  0  0  0  0  0  0  0  0  0  0
    8.8573   -0.6658   21.1336 C   0  0  0  0  0  0  0  0  0  0  0  0
    9.3124   -1.2004   20.2925 H   0  0  0  0  0  0  0  0  0  0  0  0
    9.2465    0.3569   21.1222 H   0  0  0  0  0  0  0  0  0  0  0  0
    5.4689    0.6036   20.2047 C   0  0  0  0  0  0  0  0  0  0  0  0
    5.0173    0.5738   21.1963 H   0  0  0  0  0  0  0  0  0  0  0  0
    4.8366    1.2705   19.1441 C   0  0  0  0  0  0  0  0  0  0  0  0
    3.8983    1.8078   19.2880 H   0  0  0  0  0  0  0  0  0  0  0  0
  1  2  1  0
  2  3  2  0
  3  4  1  0
  4  5  1  0
  4  6  2  0
  6  7  1  0
  7  8  1  0
  8  9  2  0
  8 10  1  0
 10 11  1  0
 11 12  2  0
 12 13  1  0
 13 14  1  0
 13 15  2  0
 15 16  1  0
 16 17  1  0
 16 18  1  0
 16 19  1  0
 15 20  1  0
 20 21  1  0
 20 22  2  0
 22 23  1  0
 10 24  1  0
 24 25  1  0
 24 26  1  0
 24 27  1  0
 27 28  1  0
 27 29  1  0
  6 30  1  0
 30 31  1  0
 30 32  2  0
 32 33  1  0
 32  2  1  0
 27  7  1  0
 22 11  1  0
M  END
>  <plip>  (1) 
-0.03571428571428571

>  <filename>  (1) 
[H][c]1[n][c]([H])[c]([N]2[C](=[O])[N]([c]3[n][c]([H])[c]([C]([H])([H])[H])[c]([H])[c]3[H])[C]([H])([H])[C]2([H])[H])[c]([H])[c]1[H]

$$$$
