
     RDKit          3D

 40 41  0  0  0  0  0  0  0  0999 V2000
    5.1294    1.7026   17.0626 H   0  0  0  0  0  0  0  0  0  0  0  0
    5.5338    1.2104   17.9452 C   0  0  0  0  0  0  0  0  0  0  0  0
    6.6879    0.5489   17.7801 N   0  0  0  0  0  0  0  0  0  0  0  0
    7.2349   -0.0072   18.8703 C   0  0  0  0  0  0  0  0  0  0  0  0
    8.1713   -0.5384   18.6950 H   0  0  0  0  0  0  0  0  0  0  0  0
    6.7010    0.0723   20.1701 C   0  0  0  0  0  0  0  0  0  0  0  0
    7.5812   -0.3200   21.3683 C   0  0  1  0  0  0  0  0  0  0  0  0
    8.8618    0.4228   21.2643 N   0  0  0  0  0  0  0  0  0  0  0  0
    9.2422    0.3442   20.3262 H   0  0  0  0  0  0  0  0  0  0  0  0
    8.6085    1.4065   21.3541 H   0  0  0  0  0  0  0  0  0  0  0  0
    6.9963    0.1713   22.7016 C   0  0  0  0  0  0  0  0  0  0  0  0
    6.7062    1.2268   22.6104 H   0  0  0  0  0  0  0  0  0  0  0  0
    7.7616    0.1017   23.4793 H   0  0  0  0  0  0  0  0  0  0  0  0
    6.1263   -0.4039   23.0246 H   0  0  0  0  0  0  0  0  0  0  0  0
    7.8987   -1.8667   21.4533 C   0  0  0  0  0  0  0  0  0  0  0  0
    8.4896   -2.1621   20.5747 H   0  0  0  0  0  0  0  0  0  0  0  0
    8.5356   -1.9935   22.3381 H   0  0  0  0  0  0  0  0  0  0  0  0
    6.7214   -2.7418   21.6223 N   0  0  0  0  0  0  0  0  0  0  0  0
    5.9468   -2.6438   20.9781 H   0  0  0  0  0  0  0  0  0  0  0  0
    6.8121   -4.3921   21.4605 S   0  0  0  0  0  0  0  0  0  0  0  0
    7.9887   -4.8263   20.7340 O   0  0  0  0  0  0  0  0  0  0  0  0
    5.4807   -4.6149   20.9244 O   0  0  0  0  0  0  0  0  0  0  0  0
    7.0058   -4.9512   23.1300 C   0  0  0  0  0  0  0  0  0  0  0  0
    6.2619   -4.3766   24.1718 C   0  0  0  0  0  0  0  0  0  0  0  0
    5.4203   -3.7047   23.9954 H   0  0  0  0  0  0  0  0  0  0  0  0
    6.6406   -4.6276   25.4887 C   0  0  0  0  0  0  0  0  0  0  0  0
    6.0871   -4.1550   26.2937 H   0  0  0  0  0  0  0  0  0  0  0  0
    7.7430   -5.4438   25.7921 C   0  0  0  0  0  0  0  0  0  0  0  0
    8.2622   -5.5181   27.2026 C   0  0  0  0  0  0  0  0  0  0  0  0
    7.4544   -5.6680   27.9232 H   0  0  0  0  0  0  0  0  0  0  0  0
    8.9829   -6.3245   27.3292 H   0  0  0  0  0  0  0  0  0  0  0  0
    8.7768   -4.5874   27.4692 H   0  0  0  0  0  0  0  0  0  0  0  0
    8.3903   -6.1032   24.7392 C   0  0  0  0  0  0  0  0  0  0  0  0
    9.2173   -6.7704   24.9806 H   0  0  0  0  0  0  0  0  0  0  0  0
    8.0201   -5.8862   23.4109 C   0  0  0  0  0  0  0  0  0  0  0  0
    8.5374   -6.4155   22.6086 H   0  0  0  0  0  0  0  0  0  0  0  0
    5.4430    0.6886   20.2915 C   0  0  0  0  0  0  0  0  0  0  0  0
    4.9403    0.7467   21.2584 H   0  0  0  0  0  0  0  0  0  0  0  0
    4.8646    1.2842   19.1684 C   0  0  0  0  0  0  0  0  0  0  0  0
    3.9306    1.8297   19.2484 H   0  0  0  0  0  0  0  0  0  0  0  0
  1  2  1  0
  2  3  2  0
  3  4  1  0
  4  5  1  0
  4  6  2  0
  6  7  1  0
  7  8  1  6
  8  9  1  0
  8 10  1  0
  7 11  1  0
 11 12  1  0
 11 13  1  0
 11 14  1  0
  7 15  1  0
 15 16  1  0
 15 17  1  0
 15 18  1  0
 18 19  1  0
 18 20  1  0
 20 21  2  0
 20 22  2  0
 20 23  1  0
 23 24  2  0
 24 25  1  0
 24 26  1  0
 26 27  1  0
 26 28  2  0
 28 29  1  0
 29 30  1  0
 29 31  1  0
 29 32  1  0
 28 33  1  0
 33 34  1  0
 33 35  2  0
 35 36  1  0
  6 37  1  0
 37 38  1  0
 37 39  2  0
 39 40  1  0
 39  2  1  0
 35 23  1  0
M  END
>  <plip>  (1) 
-0.16666666666666666

>  <filename>  (1) 
[H][c]1[n][c]([H])[c]([C@@]([N]([H])[H])([C]([H])([H])[H])[C]([H])([H])[N]([H])[S](=[O])(=[O])[c]2[c]([H])[c]([H])[c]([C]([H])([H])[H])[c]([H])[c]2[H])[c]([H])[c]1[H]

$$$$
