
     RDKit          3D

 46 47  0  0  0  0  0  0  0  0999 V2000
    8.7939    4.9779   22.3045 C   0  0  0  0  0  0  0  0  0  0  0  0
    8.6649    3.6422   22.9679 N   0  0  0  0  0  4  0  0  0  0  0  0
    9.5666    3.6819   24.1805 C   0  0  0  0  0  0  0  0  0  0  0  0
   10.6111    3.6775   23.8458 H   0  0  0  0  0  0  0  0  0  0  0  0
    9.4114    2.8265   24.8356 H   0  0  0  0  0  0  0  0  0  0  0  0
    9.4008    4.6078   24.7438 H   0  0  0  0  0  0  0  0  0  0  0  0
    8.9545    2.4748   22.0194 C   0  0  0  0  0  0  0  0  0  0  0  0
    8.0026    1.3020   22.2974 C   0  0  0  0  0  0  0  0  0  0  0  0
    8.4471   -0.0462   21.6991 N   0  0  0  0  0  4  0  0  0  0  0  0
    7.3384   -0.7688   20.9814 C   0  0  0  0  0  0  0  0  0  0  0  0
    6.7584    0.0446   19.8569 C   0  0  0  0  0  0  0  0  0  0  0  0
    5.4934    0.6375   19.9691 C   0  0  0  0  0  0  0  0  0  0  0  0
    4.9716    1.3365   18.8783 C   0  0  0  0  0  0  0  0  0  0  0  0
    5.7379    1.4175   17.7130 C   0  0  0  0  0  0  0  0  0  0  0  0
    6.9556    0.8721   17.5942 N   0  0  0  0  0  0  0  0  0  0  0  0
    7.4527    0.2160   18.6500 C   0  0  0  0  0  0  0  0  0  0  0  0
    8.4505   -0.2028   18.5208 H   0  0  0  0  0  0  0  0  0  0  0  0
    5.3517    1.9361   16.8357 H   0  0  0  0  0  0  0  0  0  0  0  0
    4.0072    1.8286   18.9216 H   0  0  0  0  0  0  0  0  0  0  0  0
    4.9378    0.5620   20.9070 H   0  0  0  0  0  0  0  0  0  0  0  0
    7.7172   -1.7235   20.5924 H   0  0  0  0  0  0  0  0  0  0  0  0
    6.5420   -1.0249   21.6946 H   0  0  0  0  0  0  0  0  0  0  0  0
    9.0577   -0.8745   22.8059 C   0  0  0  0  0  0  0  0  0  0  0  0
   10.4050   -0.2923   23.1205 C   0  0  0  0  0  0  0  0  0  0  0  0
   11.4618   -0.4458   22.2170 C   0  0  0  0  0  0  0  0  0  0  0  0
   11.0973   -0.8097   20.9549 O   0  0  0  0  0  0  0  0  0  0  0  0
   11.7865   -1.3892   20.5975 H   0  0  0  0  0  0  0  0  0  0  0  0
   12.7793   -0.1556   22.6000 C   0  0  0  0  0  0  0  0  0  0  0  0
   14.1092   -0.7966   21.6744 Cl  0  0  0  0  0  0  0  0  0  0  0  0
   13.0220    0.5612   23.7784 C   0  0  0  0  0  0  0  0  0  0  0  0
   11.9439    0.8892   24.6032 C   0  0  0  0  0  0  0  0  0  0  0  0
   10.6713    0.4416   24.2645 C   0  0  0  0  0  0  0  0  0  0  0  0
    9.6424    0.7609   25.0863 F   0  0  0  0  0  0  0  0  0  0  0  0
   12.0527    1.4976   25.4801 H   0  0  0  0  0  0  0  0  0  0  0  0
   14.0415    0.8401   24.0408 H   0  0  0  0  0  0  0  0  0  0  0  0
    9.1503   -1.9194   22.4829 H   0  0  0  0  0  0  0  0  0  0  0  0
    8.4147   -0.8495   23.6927 H   0  0  0  0  0  0  0  0  0  0  0  0
    9.2218    0.1017   21.0136 H   0  0  0  0  0  0  0  0  0  0  0  0
    7.9051    1.1985   23.3807 H   0  0  0  0  0  0  0  0  0  0  0  0
    7.0085    1.5400   21.9198 H   0  0  0  0  0  0  0  0  0  0  0  0
    9.9925    2.1539   22.1273 H   0  0  0  0  0  0  0  0  0  0  0  0
    8.8289    2.8213   20.9882 H   0  0  0  0  0  0  0  0  0  0  0  0
    7.6751    3.5177   23.2767 H   0  0  0  0  0  0  0  0  0  0  0  0
    8.2382    5.0148   21.3615 H   0  0  0  0  0  0  0  0  0  0  0  0
    9.8524    5.1660   22.0820 H   0  0  0  0  0  0  0  0  0  0  0  0
    8.4444    5.7799   22.9635 H   0  0  0  0  0  0  0  0  0  0  0  0
  1  2  1  0
  2  3  1  0
  3  4  1  0
  3  5  1  0
  3  6  1  0
  2  7  1  0
  7  8  1  0
  8  9  1  0
  9 10  1  0
 10 11  1  0
 11 12  2  0
 12 13  1  0
 13 14  2  0
 14 15  1  0
 15 16  2  0
 16 17  1  0
 14 18  1  0
 13 19  1  0
 12 20  1  0
 10 21  1  0
 10 22  1  0
  9 23  1  0
 23 24  1  0
 24 25  2  0
 25 26  1  0
 26 27  1  0
 25 28  1  0
 28 29  1  0
 28 30  2  0
 30 31  1  0
 31 32  2  0
 32 33  1  0
 31 34  1  0
 30 35  1  0
 23 36  1  0
 23 37  1  0
  9 38  1  0
  8 39  1  0
  8 40  1  0
  7 41  1  0
  7 42  1  0
  2 43  1  0
  1 44  1  0
  1 45  1  0
  1 46  1  0
 16 11  1  0
 32 24  1  0
M  CHG  2   2   1   9   1
M  END
>  <plip>  (1) 
-0.06896551724137931

>  <filename>  (1) 
[H][O][c]1[c]([Cl])[c]([H])[c]([H])[c]([F])[c]1[C]([H])([H])[N+]([H])([C]([H])([H])[c]1[c]([H])[n][c]([H])[c]([H])[c]1[H])[C]([H])([H])[C]([H])([H])[N+]([H])([C]([H])([H])[H])[C]([H])([H])[H]

$$$$
