
     RDKit          3D

 37 40  0  0  0  0  0  0  0  0999 V2000
    5.0111    1.8027   16.9188 H   0  0  0  0  0  0  0  0  0  0  0  0
    5.4512    1.2941   17.7755 C   0  0  0  0  0  0  0  0  0  0  0  0
    6.6111    0.6560   17.5529 N   0  0  0  0  0  0  0  0  0  0  0  0
    7.1796    0.0308   18.5871 C   0  0  0  0  0  0  0  0  0  0  0  0
    8.1186   -0.4866   18.4016 H   0  0  0  0  0  0  0  0  0  0  0  0
    6.6357    0.0119   19.8800 C   0  0  0  0  0  0  0  0  0  0  0  0
    7.3462   -0.6660   20.9601 C   0  0  0  0  0  0  0  0  0  0  0  0
    8.4926   -1.3882   20.7761 N   0  0  0  0  0  0  0  0  0  0  0  0
    8.8747   -1.8831   21.9033 N   0  0  0  0  0  0  0  0  0  0  0  0
    7.9960   -1.4974   22.8476 N   0  0  0  0  0  0  0  0  0  0  0  0
    8.0775   -1.9757   24.1972 C   0  0  0  0  0  0  0  0  0  0  0  0
    9.2298   -2.6299   24.6589 C   0  0  0  0  0  0  0  0  0  0  0  0
   10.0922   -2.7466   24.0068 H   0  0  0  0  0  0  0  0  0  0  0  0
    9.2514   -3.1183   25.9677 C   0  0  0  0  0  0  0  0  0  0  0  0
   10.1359   -3.6441   26.3141 H   0  0  0  0  0  0  0  0  0  0  0  0
    8.1599   -2.9394   26.8203 C   0  0  0  0  0  0  0  0  0  0  0  0
    8.2060   -3.3264   27.8356 H   0  0  0  0  0  0  0  0  0  0  0  0
    7.0103   -2.2565   26.3763 C   0  0  0  0  0  0  0  0  0  0  0  0
    5.8471   -2.0137   27.2848 C   0  0  0  0  0  0  0  0  0  0  0  0
    5.4322   -3.0406   28.1507 C   0  0  0  0  0  0  0  0  0  0  0  0
    5.8951   -4.0204   28.0557 H   0  0  0  0  0  0  0  0  0  0  0  0
    4.4399   -2.8232   29.1081 C   0  0  0  0  0  0  0  0  0  0  0  0
    4.1898   -3.6116   29.8121 H   0  0  0  0  0  0  0  0  0  0  0  0
    3.8092   -1.5783   29.1800 C   0  0  0  0  0  0  0  0  0  0  0  0
    3.0455   -1.4000   29.9327 H   0  0  0  0  0  0  0  0  0  0  0  0
    4.1614   -0.5625   28.2816 C   0  0  0  0  0  0  0  0  0  0  0  0
    3.6239    0.3811   28.2969 H   0  0  0  0  0  0  0  0  0  0  0  0
    5.1677   -0.7786   27.3329 C   0  0  0  0  0  0  0  0  0  0  0  0
    5.4382    0.0218   26.6409 H   0  0  0  0  0  0  0  0  0  0  0  0
    6.9820   -1.7942   25.0547 C   0  0  0  0  0  0  0  0  0  0  0  0
    6.0824   -1.2975   24.7064 H   0  0  0  0  0  0  0  0  0  0  0  0
    7.0351   -0.7245   22.2891 C   0  0  0  0  0  0  0  0  0  0  0  0
    6.2430   -0.2875   22.8695 H   0  0  0  0  0  0  0  0  0  0  0  0
    5.4179    0.6722   20.0999 C   0  0  0  0  0  0  0  0  0  0  0  0
    4.9584    0.6872   21.0898 H   0  0  0  0  0  0  0  0  0  0  0  0
    4.8186    1.3207   19.0233 C   0  0  0  0  0  0  0  0  0  0  0  0
    3.8836    1.8531   19.1352 H   0  0  0  0  0  0  0  0  0  0  0  0
  1  2  1  0
  2  3  2  0
  3  4  1  0
  4  5  1  0
  4  6  2  0
  6  7  1  0
  7  8  1  0
  8  9  2  0
  9 10  1  0
 10 11  1  0
 11 12  2  0
 12 13  1  0
 12 14  1  0
 14 15  1  0
 14 16  2  0
 16 17  1  0
 16 18  1  0
 18 19  1  0
 19 20  2  0
 20 21  1  0
 20 22  1  0
 22 23  1  0
 22 24  2  0
 24 25  1  0
 24 26  1  0
 26 27  1  0
 26 28  2  0
 28 29  1  0
 18 30  2  0
 30 31  1  0
 10 32  1  0
 32 33  1  0
  6 34  1  0
 34 35  1  0
 34 36  2  0
 36 37  1  0
 36  2  1  0
 32  7  2  0
 30 11  1  0
 28 19  1  0
M  END
>  <plip>  (1) 
-0.03571428571428571

>  <filename>  (1) 
[H][c]1[n][c]([H])[c](-[c]2[n][n][n](-[c]3[c]([H])[c]([H])[c]([H])[c](-[c]4[c]([H])[c]([H])[c]([H])[c]([H])[c]4[H])[c]3[H])[c]2[H])[c]([H])[c]1[H]

$$$$
