
     RDKit          3D

 33 33  0  0  0  0  0  0  0  0999 V2000
    9.2862    0.0867   20.4211 H   0  0  0  0  0  0  0  0  0  0  0  0
    8.7397   -0.5634   21.0972 C   0  0  0  0  0  0  0  0  0  0  0  0
    7.3813   -0.7245   20.9290 C   0  0  0  0  0  0  0  0  0  0  0  0
    6.4127   -1.8652   22.1211 Br  0  0  0  0  0  0  0  0  0  0  0  0
    6.6715   -0.0232   19.8613 C   0  0  0  0  0  0  0  0  0  0  0  0
    7.2247    0.0732   18.5743 C   0  0  0  0  0  0  0  0  0  0  0  0
    8.1794   -0.4100   18.3859 H   0  0  0  0  0  0  0  0  0  0  0  0
    6.6245    0.7162   17.5570 N   0  0  0  0  0  0  0  0  0  0  0  0
    5.4433    1.3140   17.8039 C   0  0  0  0  0  0  0  0  0  0  0  0
    4.9546    1.8563   17.0016 H   0  0  0  0  0  0  0  0  0  0  0  0
    4.8248    1.2614   19.0583 C   0  0  0  0  0  0  0  0  0  0  0  0
    3.8821    1.7751   19.2078 H   0  0  0  0  0  0  0  0  0  0  0  0
    5.4323    0.5720   20.1060 C   0  0  0  0  0  0  0  0  0  0  0  0
    4.9758    0.5255   21.0947 H   0  0  0  0  0  0  0  0  0  0  0  0
    9.4719   -1.2602   22.2125 C   0  0  0  0  0  0  0  0  0  0  0  0
   10.5406   -1.3195   21.9829 H   0  0  0  0  0  0  0  0  0  0  0  0
    9.0894   -2.2829   22.2864 H   0  0  0  0  0  0  0  0  0  0  0  0
    9.2539   -0.5310   23.5483 C   0  0  0  0  0  0  0  0  0  0  0  0
    9.7901    0.4251   23.5373 H   0  0  0  0  0  0  0  0  0  0  0  0
    8.1881   -0.3153   23.6845 H   0  0  0  0  0  0  0  0  0  0  0  0
    9.7341   -1.3915   24.7203 C   0  0  0  0  0  0  0  0  0  0  0  0
    9.7021   -0.8091   25.6490 H   0  0  0  0  0  0  0  0  0  0  0  0
   10.7732   -1.6806   24.5575 H   0  0  0  0  0  0  0  0  0  0  0  0
    8.8469   -2.6388   24.8372 C   0  0  0  0  0  0  0  0  0  0  0  0
    8.7848   -3.1521   23.8698 H   0  0  0  0  0  0  0  0  0  0  0  0
    7.8383   -2.3190   25.1207 H   0  0  0  0  0  0  0  0  0  0  0  0
    9.3746   -3.6105   25.8937 C   0  0  0  0  0  0  0  0  0  0  0  0
    8.5702   -4.3110   26.1498 H   0  0  0  0  0  0  0  0  0  0  0  0
    9.6418   -3.0432   26.7940 H   0  0  0  0  0  0  0  0  0  0  0  0
   10.5787   -4.4268   25.3891 C   0  0  0  0  0  0  0  0  0  0  0  0
   10.2379   -5.2511   24.7519 H   0  0  0  0  0  0  0  0  0  0  0  0
   11.1072   -4.8646   26.2403 H   0  0  0  0  0  0  0  0  0  0  0  0
   11.2853   -3.8190   24.8110 H   0  0  0  0  0  0  0  0  0  0  0  0
  1  2  1  0
  2  3  2  3
  3  4  1  0
  3  5  1  0
  5  6  2  0
  6  7  1  0
  6  8  1  0
  8  9  2  0
  9 10  1  0
  9 11  1  0
 11 12  1  0
 11 13  2  0
 13 14  1  0
  2 15  1  0
 15 16  1  0
 15 17  1  0
 15 18  1  0
 18 19  1  0
 18 20  1  0
 18 21  1  0
 21 22  1  0
 21 23  1  0
 21 24  1  0
 24 25  1  0
 24 26  1  0
 24 27  1  0
 27 28  1  0
 27 29  1  0
 27 30  1  0
 30 31  1  0
 30 32  1  0
 30 33  1  0
 13  5  1  0
M  END
>  <plip>  (1) 
-0.03571428571428571

>  <filename>  (1) 
[H][C](=[C]([Br])[c]1[c]([H])[n][c]([H])[c]([H])[c]1[H])[C]([H])([H])[C]([H])([H])[C]([H])([H])[C]([H])([H])[C]([H])([H])[C]([H])([H])[H]

$$$$
