
     RDKit          3D

 38 40  0  0  0  0  0  0  0  0999 V2000
    8.6813    7.2433   27.1430 F   0  0  0  0  0  0  0  0  0  0  0  0
    8.0916    6.8911   25.9810 C   0  0  0  0  0  0  0  0  0  0  0  0
    8.4212    7.8315   25.0763 F   0  0  0  0  0  0  0  0  0  0  0  0
    6.7624    6.9940   26.1786 F   0  0  0  0  0  0  0  0  0  0  0  0
    8.4822    5.4917   25.5393 C   0  0  0  0  0  0  0  0  0  0  0  0
    8.7516    4.5158   26.5128 C   0  0  0  0  0  0  0  0  0  0  0  0
    9.0357    3.2054   26.1221 C   0  0  0  0  0  0  0  0  0  0  0  0
    9.1061    2.8766   24.7724 C   0  0  0  0  0  0  0  0  0  0  0  0
    8.8256    3.8333   23.7865 C   0  0  0  0  0  0  0  0  0  0  0  0
    8.8194    3.4143   22.3461 C   0  0  0  0  0  0  0  0  0  0  0  0
    7.9000    2.1801   22.0239 C   0  0  0  0  0  0  0  0  0  0  0  0
    9.1623    1.4254   21.5982 C   0  0  0  0  0  0  0  0  0  0  0  0
    9.6063    0.3360   21.1190 N   0  0  0  0  0  0  0  0  0  0  0  0
    8.8176   -0.7631   20.8309 O   0  0  0  0  0  0  0  0  0  0  0  0
    7.3968   -0.7269   20.9952 C   0  0  0  0  0  0  0  0  0  0  0  0
    6.6433    0.0061   19.8970 C   0  0  0  0  0  0  0  0  0  0  0  0
    5.4189    0.6480   20.1297 C   0  0  0  0  0  0  0  0  0  0  0  0
    4.7909    1.3198   19.0750 C   0  0  0  0  0  0  0  0  0  0  0  0
    5.4012    1.3092   17.8173 C   0  0  0  0  0  0  0  0  0  0  0  0
    6.5603    0.6851   17.5651 N   0  0  0  0  0  0  0  0  0  0  0  0
    7.1577    0.0622   18.5893 C   0  0  0  0  0  0  0  0  0  0  0  0
    8.0993   -0.4303   18.3600 H   0  0  0  0  0  0  0  0  0  0  0  0
    4.9345    1.8193   16.9769 H   0  0  0  0  0  0  0  0  0  0  0  0
    3.8557    1.8520   19.2167 H   0  0  0  0  0  0  0  0  0  0  0  0
    4.9682    0.6481   21.1270 H   0  0  0  0  0  0  0  0  0  0  0  0
    7.1661   -1.7956   20.9953 H   0  0  0  0  0  0  0  0  0  0  0  0
    7.1197   -0.3434   21.9870 H   0  0  0  0  0  0  0  0  0  0  0  0
   10.0679    2.5803   21.8762 C   0  0  0  0  0  0  0  0  0  0  0  0
   10.5724    2.9329   20.9782 H   0  0  0  0  0  0  0  0  0  0  0  0
   10.8381    2.3993   22.6379 H   0  0  0  0  0  0  0  0  0  0  0  0
    7.3756    1.7505   22.8865 H   0  0  0  0  0  0  0  0  0  0  0  0
    7.1844    2.3056   21.2102 H   0  0  0  0  0  0  0  0  0  0  0  0
    8.6216    4.2643   21.6880 H   0  0  0  0  0  0  0  0  0  0  0  0
    8.4960    5.1399   24.1795 C   0  0  0  0  0  0  0  0  0  0  0  0
    8.2376    5.8753   23.4183 H   0  0  0  0  0  0  0  0  0  0  0  0
    9.3769    1.8634   24.4816 H   0  0  0  0  0  0  0  0  0  0  0  0
    9.1835    2.4280   26.8616 H   0  0  0  0  0  0  0  0  0  0  0  0
    8.7430    4.7908   27.5615 H   0  0  0  0  0  0  0  0  0  0  0  0
  1  2  1  0
  2  3  1  0
  2  4  1  0
  2  5  1  0
  5  6  2  0
  6  7  1  0
  7  8  2  0
  8  9  1  0
  9 10  1  0
 10 11  1  0
 11 12  1  0
 12 13  2  3
 13 14  1  0
 14 15  1  0
 15 16  1  0
 16 17  2  0
 17 18  1  0
 18 19  2  0
 19 20  1  0
 20 21  2  0
 21 22  1  0
 19 23  1  0
 18 24  1  0
 17 25  1  0
 15 26  1  0
 15 27  1  0
 12 28  1  0
 28 29  1  0
 28 30  1  0
 11 31  1  0
 11 32  1  0
 10 33  1  0
  9 34  2  0
 34 35  1  0
  8 36  1  0
  7 37  1  0
  6 38  1  0
 34  5  1  0
 28 10  1  0
 21 16  1  0
M  END
>  <plip>  (1) 
-0.10714285714285714

>  <filename>  (1) 
[H][c]1[n][c]([H])[c]([C]([H])([H])[O][N]=[C]2[C]([H])([H])[C]([H])([c]3[c]([H])[c]([H])[c]([H])[c]([C]([F])([F])[F])[c]3[H])[C]2([H])[H])[c]([H])[c]1[H]

$$$$
