
     RDKit          3D

 29 30  0  0  0  0  0  0  0  0999 V2000
    5.0835    1.7706   16.8590 H   0  0  0  0  0  0  0  0  0  0  0  0
    5.5273    1.3547   17.7642 C   0  0  0  0  0  0  0  0  0  0  0  0
    6.7154    0.7574   17.6244 N   0  0  0  0  0  0  0  0  0  0  0  0
    7.2767    0.2415   18.7243 C   0  0  0  0  0  0  0  0  0  0  0  0
    8.2426   -0.2251   18.5537 H   0  0  0  0  0  0  0  0  0  0  0  0
    6.7170    0.2575   20.0097 C   0  0  0  0  0  0  0  0  0  0  0  0
    7.4345   -0.4266   21.1829 C   0  0  0  0  0  0  0  0  0  0  0  0
    6.5093   -1.4600   21.6639 N   0  0  0  0  0  0  0  0  0  0  0  0
    6.2057   -2.6021   21.5007 C   0  0  0  0  0  0  0  0  0  0  0  0
    5.7554   -4.1177   21.3496 S   0  0  0  0  0  0  0  0  0  0  0  0
    7.7729    0.5546   22.3379 C   0  0  0  0  0  0  0  0  0  0  0  0
    6.8416    1.0167   22.6845 H   0  0  0  0  0  0  0  0  0  0  0  0
    8.3986    1.3489   21.8993 H   0  0  0  0  0  0  0  0  0  0  0  0
    8.5333   -0.0909   23.5234 C   0  0  0  0  0  0  0  0  0  0  0  0
    7.8635   -0.7633   24.0776 H   0  0  0  0  0  0  0  0  0  0  0  0
    8.8054    0.6948   24.2363 H   0  0  0  0  0  0  0  0  0  0  0  0
    9.7924   -0.8617   23.0779 C   0  0  0  0  0  0  0  0  0  0  0  0
   10.5654   -0.1492   22.7425 H   0  0  0  0  0  0  0  0  0  0  0  0
   10.2413   -1.4027   23.9244 H   0  0  0  0  0  0  0  0  0  0  0  0
    9.4636   -1.8418   21.9379 C   0  0  0  0  0  0  0  0  0  0  0  0
   10.3778   -2.3231   21.5769 H   0  0  0  0  0  0  0  0  0  0  0  0
    8.8157   -2.6552   22.3007 H   0  0  0  0  0  0  0  0  0  0  0  0
    8.7689   -1.1147   20.7792 C   0  0  0  0  0  0  0  0  0  0  0  0
    9.4335   -0.3363   20.3796 H   0  0  0  0  0  0  0  0  0  0  0  0
    8.5711   -1.8082   19.9634 H   0  0  0  0  0  0  0  0  0  0  0  0
    5.4704    0.8979   20.1344 C   0  0  0  0  0  0  0  0  0  0  0  0
    4.9565    0.9514   21.0970 H   0  0  0  0  0  0  0  0  0  0  0  0
    4.8685    1.4445   18.9961 C   0  0  0  0  0  0  0  0  0  0  0  0
    3.8958    1.9239   19.0430 H   0  0  0  0  0  0  0  0  0  0  0  0
  1  2  1  0
  2  3  2  0
  3  4  1  0
  4  5  1  0
  4  6  2  0
  6  7  1  0
  7  8  1  0
  8  9  2  0
  9 10  2  0
  7 11  1  0
 11 12  1  0
 11 13  1  0
 11 14  1  0
 14 15  1  0
 14 16  1  0
 14 17  1  0
 17 18  1  0
 17 19  1  0
 17 20  1  0
 20 21  1  0
 20 22  1  0
 20 23  1  0
 23 24  1  0
 23 25  1  0
  6 26  1  0
 26 27  1  0
 26 28  2  0
 28 29  1  0
 28  2  1  0
 23  7  1  0
M  END
>  <plip>  (1) 
-0.03571428571428571

>  <filename>  (1) 
[H][c]1[n][c]([H])[c]([C]2([N]=[C]=[S])[C]([H])([H])[C]([H])([H])[C]([H])([H])[C]([H])([H])[C]2([H])[H])[c]([H])[c]1[H]

$$$$
