
     RDKit          3D

 23 24  0  0  0  0  0  0  0  0999 V2000
    9.2306   -2.5640   22.9128 H   0  0  0  0  0  0  0  0  0  0  0  0
    8.2674   -2.4128   22.8171 O   0  0  0  0  0  0  0  0  0  0  0  0
    8.0360   -1.0707   23.2008 N   0  0  0  0  0  0  0  0  0  0  0  0
    7.3849   -0.1678   22.2957 C   0  0  0  0  0  0  0  0  0  0  0  0
    6.9714    0.9044   22.6549 O   0  0  0  0  0  0  0  0  0  0  0  0
    7.3490   -0.6377   21.0059 N   0  0  0  0  0  0  0  0  0  0  0  0
    7.8115   -1.5269   20.9198 H   0  0  0  0  0  0  0  0  0  0  0  0
    6.6707   -0.0056   19.9251 C   0  0  0  0  0  0  0  0  0  0  0  0
    7.1902    0.0247   18.6122 C   0  0  0  0  0  0  0  0  0  0  0  0
    8.1426   -0.4579   18.3870 H   0  0  0  0  0  0  0  0  0  0  0  0
    6.5799    0.6457   17.5937 N   0  0  0  0  0  0  0  0  0  0  0  0
    5.4177    1.2717   17.8453 C   0  0  0  0  0  0  0  0  0  0  0  0
    4.9632    1.7853   17.0045 H   0  0  0  0  0  0  0  0  0  0  0  0
    4.8098    1.2948   19.1045 C   0  0  0  0  0  0  0  0  0  0  0  0
    3.8732    1.8302   19.2524 H   0  0  0  0  0  0  0  0  0  0  0  0
    5.4523    0.6504   20.1632 C   0  0  0  0  0  0  0  0  0  0  0  0
    5.0408    0.6627   21.1690 H   0  0  0  0  0  0  0  0  0  0  0  0
    8.0265   -0.7674   24.5560 C   0  0  0  0  0  0  0  0  0  0  0  0
    8.4521   -1.6485   25.4982 N   0  0  0  0  0  0  0  0  0  0  0  0
    8.4212   -1.0210   26.6318 N   0  0  0  0  0  0  0  0  0  0  0  0
    7.9901    0.1833   26.3545 N   0  0  0  0  0  0  0  0  0  0  0  0
    7.9213    0.9060   27.0594 H   0  0  0  0  0  0  0  0  0  0  0  0
    7.7148    0.4200   25.0866 N   0  0  0  0  0  0  0  0  0  0  0  0
  1  2  1  0
  2  3  1  0
  3  4  1  0
  4  5  2  0
  4  6  1  0
  6  7  1  0
  6  8  1  0
  8  9  2  0
  9 10  1  0
  9 11  1  0
 11 12  2  0
 12 13  1  0
 12 14  1  0
 14 15  1  0
 14 16  2  0
 16 17  1  0
  3 18  1  0
 18 19  1  0
 19 20  2  0
 20 21  1  0
 21 22  1  0
 21 23  1  0
 16  8  1  0
 23 18  2  0
M  END
>  <plip>  (1) 
-0.034482758620689655

>  <filename>  (1) 
[H][O][N]([C](=[O])[N]([H])[c]1[c]([H])[n][c]([H])[c]([H])[c]1[H])[c]1[n][n][n]([H])[n]1

$$$$
