
     RDKit          3D

 34 36  0  0  0  0  0  0  0  0999 V2000
    8.3616   -3.2806   22.3727 H   0  0  0  0  0  0  0  0  0  0  0  0
    7.8731   -2.3545   22.0937 C   0  0  0  0  0  0  0  0  0  0  0  0
    7.4238   -1.4115   22.9249 C   0  0  0  0  0  0  0  0  0  0  0  0
    7.7663   -1.1849   24.3683 C   0  0  0  0  0  0  0  0  0  0  0  0
    8.0440   -2.1269   24.8569 H   0  0  0  0  0  0  0  0  0  0  0  0
    6.9117   -0.7690   24.9123 H   0  0  0  0  0  0  0  0  0  0  0  0
    8.9361   -0.2000   24.4821 C   0  0  1  0  0  0  0  0  0  0  0  0
    8.6781    0.7024   23.8965 H   0  0  0  0  0  0  0  0  0  0  0  0
    9.1217    0.1429   25.8464 O   0  0  0  0  0  0  0  0  0  0  0  0
   10.4443    0.6313   26.0228 C   0  0  0  0  0  0  0  0  0  0  0  0
   10.4426    1.7230   26.1562 H   0  0  0  0  0  0  0  0  0  0  0  0
   10.8498    0.1899   26.9351 H   0  0  0  0  0  0  0  0  0  0  0  0
   11.2648    0.2138   24.7790 C   0  0  0  0  0  0  0  0  0  0  0  0
   11.5267    1.0949   24.1779 H   0  0  0  0  0  0  0  0  0  0  0  0
   12.2025   -0.2817   25.0484 H   0  0  0  0  0  0  0  0  0  0  0  0
   10.3060   -0.7398   24.0501 C   0  0  0  0  0  0  0  0  0  0  0  0
   10.4309   -1.7581   24.4453 H   0  0  0  0  0  0  0  0  0  0  0  0
   10.4344   -0.7853   22.9611 H   0  0  0  0  0  0  0  0  0  0  0  0
    6.7792   -0.3332   22.1334 C   0  0  0  0  0  0  0  0  0  0  0  0
    6.2234    0.6585   22.5715 O   0  0  0  0  0  0  0  0  0  0  0  0
    6.9664   -0.6655   20.7879 N   0  0  0  0  0  0  0  0  0  0  0  0
    6.4715    0.0701   19.6802 C   0  0  0  0  0  0  0  0  0  0  0  0
    7.0548    0.0121   18.3858 C   0  0  0  0  0  0  0  0  0  0  0  0
    7.9723   -0.5503   18.2151 H   0  0  0  0  0  0  0  0  0  0  0  0
    6.5517    0.6400   17.3138 N   0  0  0  0  0  0  0  0  0  0  0  0
    5.4504    1.3862   17.4814 C   0  0  0  0  0  0  0  0  0  0  0  0
    5.0630    1.8855   16.5963 H   0  0  0  0  0  0  0  0  0  0  0  0
    4.8179    1.5373   18.7201 C   0  0  0  0  0  0  0  0  0  0  0  0
    3.9517    2.1825   18.8078 H   0  0  0  0  0  0  0  0  0  0  0  0
    5.3360    0.8804   19.8370 C   0  0  0  0  0  0  0  0  0  0  0  0
    4.9026    0.9996   20.8249 H   0  0  0  0  0  0  0  0  0  0  0  0
    7.6516   -1.9467   20.6709 C   0  0  0  0  0  0  0  0  0  0  0  0
    8.6069   -1.8432   20.1366 H   0  0  0  0  0  0  0  0  0  0  0  0
    7.0263   -2.6742   20.1450 H   0  0  0  0  0  0  0  0  0  0  0  0
  1  2  1  0
  2  3  2  0
  3  4  1  0
  4  5  1  0
  4  6  1  0
  4  7  1  0
  7  8  1  6
  7  9  1  0
  9 10  1  0
 10 11  1  0
 10 12  1  0
 10 13  1  0
 13 14  1  0
 13 15  1  0
 13 16  1  0
 16 17  1  0
 16 18  1  0
  3 19  1  0
 19 20  2  0
 19 21  1  0
 21 22  1  0
 22 23  2  0
 23 24  1  0
 23 25  1  0
 25 26  2  0
 26 27  1  0
 26 28  1  0
 28 29  1  0
 28 30  2  0
 30 31  1  0
 21 32  1  0
 32 33  1  0
 32 34  1  0
 32  2  1  0
 16  7  1  0
 30 22  1  0
M  END
>  <plip>  (1) 
-0.13793103448275862

>  <filename>  (1) 
[H][C]1=[C]([C]([H])([H])[C@@]2([H])[O][C]([H])([H])[C]([H])([H])[C]2([H])[H])[C](=[O])[N]([c]2[c]([H])[n][c]([H])[c]([H])[c]2[H])[C]1([H])[H]

$$$$
