
     RDKit          3D

 39 41  0  0  0  0  0  0  0  0999 V2000
    5.3984    4.9951   24.6960 H   0  0  0  0  0  0  0  0  0  0  0  0
    6.1684    5.0240   24.0994 O   0  0  0  0  0  0  0  0  0  0  0  0
    6.3008    3.7042   23.8648 C   0  0  0  0  0  0  0  0  0  0  0  0
    5.5217    2.9386   24.3916 O   0  0  0  0  0  0  0  0  0  0  0  0
    7.4567    3.3174   22.9233 C   0  0  0  0  0  0  0  0  0  0  0  0
    8.2482    4.2358   22.3419 O   0  0  0  0  0  0  0  0  0  0  0  0
    7.9441    5.1409   22.5022 H   0  0  0  0  0  0  0  0  0  0  0  0
    7.6752    2.0090   22.6455 C   0  0  0  0  0  0  0  0  0  0  0  0
    7.0178    1.2758   23.0885 H   0  0  0  0  0  0  0  0  0  0  0  0
    8.7222    1.5162   21.7526 C   0  0  0  0  0  0  0  0  0  0  0  0
    9.6210    2.2087   21.3204 O   0  0  0  0  0  0  0  0  0  0  0  0
    8.7087    0.0307   21.3880 C   0  0  2  0  0  0  0  0  0  0  0  0
    9.2218   -0.0027   20.4218 H   0  0  0  0  0  0  0  0  0  0  0  0
    7.2886   -0.5607   21.1722 C   0  0  1  0  0  0  0  0  0  0  0  0
    6.6907   -0.4523   22.0848 H   0  0  0  0  0  0  0  0  0  0  0  0
    6.5659    0.1332   20.0230 C   0  0  0  0  0  0  0  0  0  0  0  0
    7.1206    0.1180   18.7276 C   0  0  0  0  0  0  0  0  0  0  0  0
    8.0719   -0.3911   18.5491 H   0  0  0  0  0  0  0  0  0  0  0  0
    6.5643    0.6834   17.6485 N   0  0  0  0  0  0  0  0  0  0  0  0
    5.3935    1.3119   17.8255 C   0  0  0  0  0  0  0  0  0  0  0  0
    4.9651    1.7823   16.9426 H   0  0  0  0  0  0  0  0  0  0  0  0
    4.7348    1.3738   19.0570 C   0  0  0  0  0  0  0  0  0  0  0  0
    3.7838    1.8890   19.1301 H   0  0  0  0  0  0  0  0  0  0  0  0
    5.3305    0.7775   20.1745 C   0  0  0  0  0  0  0  0  0  0  0  0
    4.8404    0.8102   21.1507 H   0  0  0  0  0  0  0  0  0  0  0  0
    7.4094   -2.0503   20.8517 C   0  0  0  0  0  0  0  0  0  0  0  0
    7.8135   -2.0498   19.8478 H   0  0  0  0  0  0  0  0  0  0  0  0
    6.4110   -2.5014   20.8269 H   0  0  0  0  0  0  0  0  0  0  0  0
    8.3495   -2.8678   21.7510 C   0  0  1  0  0  0  0  0  0  0  0  0
    8.2918   -3.9237   21.4693 H   0  0  0  0  0  0  0  0  0  0  0  0
   10.0757   -2.3174   21.5157 S   0  0  0  0  0  0  0  0  0  0  0  0
    9.6070   -0.7833   22.3703 C   0  0  2  0  0  0  0  0  0  0  0  0
   10.5232   -0.2307   22.6176 H   0  0  0  0  0  0  0  0  0  0  0  0
    8.8849   -1.3088   23.6348 C   0  0  0  0  0  0  0  0  0  0  0  0
    9.6351   -1.5304   24.4013 H   0  0  0  0  0  0  0  0  0  0  0  0
    8.2227   -0.5468   24.0642 H   0  0  0  0  0  0  0  0  0  0  0  0
    8.1249   -2.6195   23.2549 C   0  0  0  0  0  0  0  0  0  0  0  0
    7.0563   -2.5465   23.4835 H   0  0  0  0  0  0  0  0  0  0  0  0
    8.5258   -3.4643   23.8269 H   0  0  0  0  0  0  0  0  0  0  0  0
  1  2  1  0
  2  3  1  0
  3  4  2  0
  3  5  1  0
  5  6  1  0
  6  7  1  0
  5  8  2  3
  8  9  1  0
  8 10  1  0
 10 11  2  0
 10 12  1  0
 12 13  1  6
 12 14  1  0
 14 15  1  1
 14 16  1  0
 16 17  2  0
 17 18  1  0
 17 19  1  0
 19 20  2  0
 20 21  1  0
 20 22  1  0
 22 23  1  0
 22 24  2  0
 24 25  1  0
 14 26  1  0
 26 27  1  0
 26 28  1  0
 26 29  1  0
 29 30  1  1
 29 31  1  0
 31 32  1  0
 32 33  1  1
 32 34  1  0
 34 35  1  0
 34 36  1  0
 34 37  1  0
 37 38  1  0
 37 39  1  0
 32 12  1  0
 24 16  1  0
 37 29  1  0
M  END
>  <plip>  (1) 
-0.03571428571428571

>  <filename>  (1) 
[H][O][C](=[O])[C]([O][H])=[C]([H])[C](=[O])[C@]1([H])[C@@]([H])([c]2[c]([H])[n][c]([H])[c]([H])[c]2[H])[C]([H])([H])[C@@]2([H])[S][C@]1([H])[C]([H])([H])[C]2([H])[H]

$$$$
