
     RDKit          3D

 29 31  0  0  0  0  0  0  0  0999 V2000
    4.9091    1.7700   17.0079 H   0  0  0  0  0  0  0  0  0  0  0  0
    5.4044    1.2881   17.8488 C   0  0  0  0  0  0  0  0  0  0  0  0
    6.5722    0.6774   17.5923 N   0  0  0  0  0  0  0  0  0  0  0  0
    7.1859    0.0564   18.6041 C   0  0  0  0  0  0  0  0  0  0  0  0
    8.1334   -0.4364   18.3773 H   0  0  0  0  0  0  0  0  0  0  0  0
    6.6542    0.0132   19.8987 C   0  0  0  0  0  0  0  0  0  0  0  0
    7.3454   -0.6834   20.9700 C   0  0  0  0  0  0  0  0  0  0  0  0
    6.9427   -0.7777   22.2021 N   0  0  0  0  0  0  0  0  0  0  0  0
    7.9369   -1.5148   22.7793 C   0  0  0  0  0  0  0  0  0  0  0  0
    7.9408   -1.8678   24.2324 C   0  0  0  0  0  0  0  0  0  0  0  0
    7.3283   -0.9710   25.1289 C   0  0  0  0  0  0  0  0  0  0  0  0
    6.8386   -0.0775   24.7534 H   0  0  0  0  0  0  0  0  0  0  0  0
    7.3527   -1.1973   26.5006 C   0  0  0  0  0  0  0  0  0  0  0  0
    6.8812   -0.4925   27.1802 H   0  0  0  0  0  0  0  0  0  0  0  0
    7.9957   -2.3252   26.9970 C   0  0  0  0  0  0  0  0  0  0  0  0
    8.0404   -2.4978   28.0501 H   0  0  0  0  0  0  0  0  0  0  0  0
    8.5934   -3.2396   26.1424 C   0  0  0  0  0  0  0  0  0  0  0  0
    9.0823   -4.1123   26.5715 H   0  0  0  0  0  0  0  0  0  0  0  0
    8.5515   -3.0418   24.7554 C   0  0  0  0  0  0  0  0  0  0  0  0
    9.1797   -4.0960   23.8551 C   0  0  0  0  0  0  0  0  0  0  0  0
    8.3788   -4.4104   22.8184 F   0  0  0  0  0  0  0  0  0  0  0  0
    9.4214   -5.2546   24.4948 F   0  0  0  0  0  0  0  0  0  0  0  0
   10.3522   -3.6715   23.3655 F   0  0  0  0  0  0  0  0  0  0  0  0
    8.9022   -1.8527   21.9557 N   0  0  0  0  0  0  0  0  0  0  0  0
    8.5100   -1.2984   20.7582 O   0  0  0  0  0  0  0  0  0  0  0  0
    5.4374    0.6553   20.1592 C   0  0  0  0  0  0  0  0  0  0  0  0
    5.0090    0.6284   21.1595 H   0  0  0  0  0  0  0  0  0  0  0  0
    4.8042    1.3118   19.1129 C   0  0  0  0  0  0  0  0  0  0  0  0
    3.8721    1.8453   19.2673 H   0  0  0  0  0  0  0  0  0  0  0  0
  1  2  1  0
  2  3  2  0
  3  4  1  0
  4  5  1  0
  4  6  2  0
  6  7  1  0
  7  8  2  0
  8  9  1  0
  9 10  1  0
 10 11  2  0
 11 12  1  0
 11 13  1  0
 13 14  1  0
 13 15  2  0
 15 16  1  0
 15 17  1  0
 17 18  1  0
 17 19  2  0
 19 20  1  0
 20 21  1  0
 20 22  1  0
 20 23  1  0
  9 24  2  0
 24 25  1  0
  6 26  1  0
 26 27  1  0
 26 28  2  0
 28 29  1  0
 28  2  1  0
 25  7  1  0
 19 10  1  0
M  END
>  <plip>  (1) 
-0.034482758620689655

>  <filename>  (1) 
[H][c]1[n][c]([H])[c](-[c]2[n][c](-[c]3[c]([H])[c]([H])[c]([H])[c]([H])[c]3[C]([F])([F])[F])[n][o]2)[c]([H])[c]1[H]

$$$$
