
     RDKit          3D

 37 40  0  0  0  0  0  0  0  0999 V2000
    4.9252    1.7638   17.0020 H   0  0  0  0  0  0  0  0  0  0  0  0
    5.4077    1.2743   17.8465 C   0  0  0  0  0  0  0  0  0  0  0  0
    6.5690    0.6518   17.5928 N   0  0  0  0  0  0  0  0  0  0  0  0
    7.1860    0.0643   18.6258 C   0  0  0  0  0  0  0  0  0  0  0  0
    8.1246   -0.4304   18.3938 H   0  0  0  0  0  0  0  0  0  0  0  0
    6.7144    0.0588   19.9722 C   0  0  0  0  0  0  0  0  0  0  0  0
    7.5157   -0.4626   20.9918 N   0  0  0  0  0  0  0  0  0  0  0  0
    8.3130   -1.6826   20.7240 C   0  0  0  0  0  0  0  0  0  0  0  0
    9.2489   -1.4776   20.1898 H   0  0  0  0  0  0  0  0  0  0  0  0
    7.6789   -2.3706   20.1633 H   0  0  0  0  0  0  0  0  0  0  0  0
    8.5089   -2.2746   22.1315 C   0  0  2  0  0  0  0  0  0  0  0  0
    9.3783   -2.9220   22.2466 H   0  0  0  0  0  0  0  0  0  0  0  0
    7.2196   -2.9983   22.3966 N   0  0  0  0  0  0  0  0  0  0  0  0
    7.2186   -3.9519   23.4116 N   0  0  0  0  0  0  0  0  0  0  0  0
    7.3000   -4.9054   23.0799 H   0  0  0  0  0  0  0  0  0  0  0  0
    7.4565   -3.7406   24.7489 C   0  0  0  0  0  0  0  0  0  0  0  0
    7.0486   -2.7765   25.3924 O   0  0  0  0  0  0  0  0  0  0  0  0
    8.3633   -4.7392   25.3899 C   0  0  0  0  0  0  0  0  0  0  0  0
    8.7441   -5.8805   24.7214 O   0  0  0  0  0  0  0  0  0  0  0  0
    9.7406   -6.4415   25.4441 C   0  0  0  0  0  0  0  0  0  0  0  0
   10.1519   -7.3630   25.0674 H   0  0  0  0  0  0  0  0  0  0  0  0
   10.0208   -5.6880   26.5337 C   0  0  0  0  0  0  0  0  0  0  0  0
   10.8160   -5.8705   27.2365 H   0  0  0  0  0  0  0  0  0  0  0  0
    9.0998   -4.6011   26.5272 C   0  0  0  0  0  0  0  0  0  0  0  0
    8.9696   -3.8135   27.2621 H   0  0  0  0  0  0  0  0  0  0  0  0
    6.2371   -1.8934   22.5873 C   0  0  0  0  0  0  0  0  0  0  0  0
    5.4419   -1.9683   21.8305 H   0  0  0  0  0  0  0  0  0  0  0  0
    5.8454   -1.9495   23.6109 H   0  0  0  0  0  0  0  0  0  0  0  0
    7.0883   -0.6095   22.3949 C   0  0  1  0  0  0  0  0  0  0  0  0
    6.6352    0.2948   22.8046 H   0  0  0  0  0  0  0  0  0  0  0  0
    8.4130   -1.0377   23.0328 C   0  0  0  0  0  0  0  0  0  0  0  0
    8.3100   -1.2825   24.0944 H   0  0  0  0  0  0  0  0  0  0  0  0
    9.2126   -0.3126   22.8639 H   0  0  0  0  0  0  0  0  0  0  0  0
    5.4657    0.6684   20.1936 C   0  0  0  0  0  0  0  0  0  0  0  0
    5.0209    0.6497   21.1880 H   0  0  0  0  0  0  0  0  0  0  0  0
    4.8209    1.2918   19.1176 C   0  0  0  0  0  0  0  0  0  0  0  0
    3.8720    1.7947   19.2573 H   0  0  0  0  0  0  0  0  0  0  0  0
  1  2  1  0
  2  3  2  0
  3  4  1  0
  4  5  1  0
  4  6  2  0
  6  7  1  0
  7  8  1  0
  8  9  1  0
  8 10  1  0
  8 11  1  0
 11 12  1  6
 11 13  1  0
 13 14  1  0
 14 15  1  0
 14 16  1  0
 16 17  2  0
 16 18  1  0
 18 19  1  0
 19 20  1  0
 20 21  1  0
 20 22  2  0
 22 23  1  0
 22 24  1  0
 24 25  1  0
 13 26  1  0
 26 27  1  0
 26 28  1  0
 26 29  1  0
 29 30  1  1
 29 31  1  0
 31 32  1  0
 31 33  1  0
  6 34  1  0
 34 35  1  0
 34 36  2  0
 36 37  1  0
 36  2  1  0
 29  7  1  0
 31 11  1  0
 24 18  2  0
M  END
>  <plip>  (1) 
-0.03571428571428571

>  <filename>  (1) 
[H][c]1[n][c]([H])[c]([N]2[C]([H])([H])[C@]3([H])[N]([N]([H])[C](=[O])[c]4[o][c]([H])[c]([H])[c]4[H])[C]([H])([H])[C@@]2([H])[C]3([H])[H])[c]([H])[c]1[H]

$$$$
