
     RDKit          3D

 36 38  0  0  0  0  0  0  0  0999 V2000
    7.9634    0.2300   22.0003 C   0  0  0  0  0  0  0  0  0  0  0  0
    7.4423   -0.7996   20.9741 C   0  0  0  0  0  0  0  0  0  0  0  0
    6.6720   -1.9407   21.7074 C   0  0  0  0  0  0  0  0  0  0  0  0
    6.4752   -1.9577   22.9056 O   0  0  0  0  0  0  0  0  0  0  0  0
    6.2339   -2.9696   20.9014 N   0  0  0  0  0  0  0  0  0  0  0  0
    5.4579   -4.0065   21.3782 C   0  0  0  0  0  0  0  0  0  0  0  0
    5.6438   -5.2627   21.1176 N   0  0  0  0  0  0  0  0  0  0  0  0
    4.5876   -5.9430   21.6721 N   0  0  0  0  0  0  0  0  0  0  0  0
    3.7837   -5.0771   22.2370 C   0  0  0  0  0  0  0  0  0  0  0  0
    2.4081   -5.4071   22.7545 C   0  0  0  0  0  0  0  0  0  0  0  0
    1.8169   -6.6571   22.4833 C   0  0  0  0  0  0  0  0  0  0  0  0
    0.4995   -6.8814   22.8862 C   0  0  0  0  0  0  0  0  0  0  0  0
   -0.1925   -5.8577   23.5381 C   0  0  0  0  0  0  0  0  0  0  0  0
    0.4725   -4.6504   23.7681 C   0  0  0  0  0  0  0  0  0  0  0  0
    1.7427   -4.4399   23.4135 N   0  0  0  0  0  0  0  0  0  0  0  0
   -0.0461   -3.8014   24.2144 H   0  0  0  0  0  0  0  0  0  0  0  0
   -1.2359   -5.9676   23.8136 H   0  0  0  0  0  0  0  0  0  0  0  0
    0.0206   -7.8394   22.6866 H   0  0  0  0  0  0  0  0  0  0  0  0
    2.3897   -7.4097   21.9495 H   0  0  0  0  0  0  0  0  0  0  0  0
    4.3205   -3.8039   22.0769 N   0  0  0  0  0  0  0  0  0  0  0  0
    4.1575   -2.9722   22.6244 H   0  0  0  0  0  0  0  0  0  0  0  0
    6.7759   -3.2161   20.0954 H   0  0  0  0  0  0  0  0  0  0  0  0
    6.6750   -0.0899   19.8403 C   0  0  0  0  0  0  0  0  0  0  0  0
    5.4666    0.5719   20.1034 C   0  0  0  0  0  0  0  0  0  0  0  0
    4.8296    1.2698   19.0725 C   0  0  0  0  0  0  0  0  0  0  0  0
    5.4213    1.3087   17.8066 C   0  0  0  0  0  0  0  0  0  0  0  0
    6.5826    0.6960   17.5285 N   0  0  0  0  0  0  0  0  0  0  0  0
    7.1829    0.0320   18.5269 C   0  0  0  0  0  0  0  0  0  0  0  0
    8.1325   -0.4336   18.2649 H   0  0  0  0  0  0  0  0  0  0  0  0
    4.9481    1.8558   16.9870 H   0  0  0  0  0  0  0  0  0  0  0  0
    3.9012    1.8023   19.2429 H   0  0  0  0  0  0  0  0  0  0  0  0
    5.0354    0.5582   21.1072 H   0  0  0  0  0  0  0  0  0  0  0  0
    8.3061   -1.3061   20.5170 H   0  0  0  0  0  0  0  0  0  0  0  0
    8.5251   -0.2823   22.7865 H   0  0  0  0  0  0  0  0  0  0  0  0
    8.6067    0.9769   21.5226 H   0  0  0  0  0  0  0  0  0  0  0  0
    7.1355    0.7580   22.4926 H   0  0  0  0  0  0  0  0  0  0  0  0
  1  2  1  0
  2  3  1  0
  3  4  2  0
  3  5  1  0
  5  6  1  0
  6  7  2  0
  7  8  1  0
  8  9  2  0
  9 10  1  0
 10 11  2  0
 11 12  1  0
 12 13  2  0
 13 14  1  0
 14 15  2  0
 14 16  1  0
 13 17  1  0
 12 18  1  0
 11 19  1  0
  9 20  1  0
 20 21  1  0
  5 22  1  0
  2 23  1  0
 23 24  2  0
 24 25  1  0
 25 26  2  0
 26 27  1  0
 27 28  2  0
 28 29  1  0
 26 30  1  0
 25 31  1  0
 24 32  1  0
  2 33  1  0
  1 34  1  0
  1 35  1  0
  1 36  1  0
 20  6  1  0
 28 23  1  0
 15 10  1  0
M  END
>  <plip>  (1) 
-0.07142857142857142

>  <filename>  (1) 
[H][c]1[n][c](-[c]2[n][n][c]([N]([H])[C](=[O])[C]([H])([c]3[c]([H])[n][c]([H])[c]([H])[c]3[H])[C]([H])([H])[H])[n]2[H])[c]([H])[c]([H])[c]1[H]

$$$$
