
     RDKit          3D

 23 25  0  0  0  0  0  0  0  0999 V2000
   11.7932    2.3362   21.4445 H   0  0  0  0  0  0  0  0  0  0  0  0
   10.8173    1.8641   21.4139 C   0  0  0  0  0  0  0  0  0  0  0  0
    9.6567    2.5834   21.3789 N   0  0  0  0  0  0  0  0  0  0  0  0
    8.7466    1.6587   21.3046 C   0  0  0  0  0  0  0  0  0  0  0  0
    7.6792    1.8039   21.2692 H   0  0  0  0  0  0  0  0  0  0  0  0
    9.3200    0.4227   21.3099 N   0  0  0  0  0  0  0  0  0  0  0  0
    8.6474   -0.7897   21.4562 C   0  0  0  0  0  0  0  0  0  0  0  0
    9.4534   -1.9525   22.4413 S   0  0  0  0  0  0  0  0  0  0  0  0
    7.7062   -2.9726   22.8280 S   0  0  0  0  0  0  0  0  0  0  0  0
    6.7413   -2.2098   21.5843 C   0  0  0  0  0  0  0  0  0  0  0  0
    5.3178   -2.9237   21.2146 S   0  0  0  0  0  0  0  0  0  0  0  0
    7.3759   -1.0420   21.0006 C   0  0  0  0  0  0  0  0  0  0  0  0
    6.7066   -0.2165   19.9526 C   0  0  0  0  0  0  0  0  0  0  0  0
    7.3154    0.0241   18.7000 C   0  0  0  0  0  0  0  0  0  0  0  0
    8.3050   -0.3850   18.4966 H   0  0  0  0  0  0  0  0  0  0  0  0
    6.7462    0.7238   17.7074 N   0  0  0  0  0  0  0  0  0  0  0  0
    5.5489    1.2755   17.9496 C   0  0  0  0  0  0  0  0  0  0  0  0
    5.1067    1.8406   17.1280 H   0  0  0  0  0  0  0  0  0  0  0  0
    4.8789    1.1517   19.1716 C   0  0  0  0  0  0  0  0  0  0  0  0
    3.9372    1.6665   19.3229 H   0  0  0  0  0  0  0  0  0  0  0  0
    5.4584    0.3812   20.1838 C   0  0  0  0  0  0  0  0  0  0  0  0
    4.9799    0.2619   21.1574 H   0  0  0  0  0  0  0  0  0  0  0  0
   10.6691    0.5574   21.3899 N   0  0  0  0  0  0  0  0  0  0  0  0
  1  2  1  0
  2  3  1  0
  3  4  2  0
  4  5  1  0
  4  6  1  0
  6  7  1  0
  7  8  1  0
  8  9  1  0
  9 10  1  0
 10 11  2  0
 10 12  1  0
 12 13  1  0
 13 14  2  0
 14 15  1  0
 14 16  1  0
 16 17  2  0
 17 18  1  0
 17 19  1  0
 19 20  1  0
 19 21  2  0
 21 22  1  0
  6 23  1  0
 23  2  2  0
 12  7  2  0
 21 13  1  0
M  END
>  <plip>  (1) 
-0.034482758620689655

>  <filename>  (1) 
[H][c]1[n][c]([H])[n](-[c]2[s][s][c](=[S])[c]2-[c]2[c]([H])[n][c]([H])[c]([H])[c]2[H])[n]1

$$$$
