
     RDKit          3D

 41 43  0  0  0  0  0  0  0  0999 V2000
    5.9995   -4.0738   20.5485 C   0  0  0  0  0  0  0  0  0  0  0  0
    6.6329   -2.8450   20.3089 O   0  0  0  0  0  0  0  0  0  0  0  0
    6.6794   -1.9944   21.4251 C   0  0  0  0  0  0  0  0  0  0  0  0
    7.4012   -0.7117   21.0059 C   0  0  2  0  0  0  0  0  0  0  0  0
    7.6490    0.0938   22.1937 N   0  0  0  0  0  0  0  0  0  0  0  0
    8.4075    1.2208   22.1276 C   0  0  0  0  0  0  0  0  0  0  0  0
    9.0609    1.5138   21.1379 O   0  0  0  0  0  0  0  0  0  0  0  0
    8.4464    2.0806   23.3434 C   0  0  0  0  0  0  0  0  0  0  0  0
    9.1924    3.1972   23.5144 C   0  0  0  0  0  0  0  0  0  0  0  0
    8.9010    3.6836   24.8237 C   0  0  0  0  0  0  0  0  0  0  0  0
    7.9539    2.7857   25.3586 C   0  0  0  0  0  0  0  0  0  0  0  0
    7.6731    1.8070   24.4575 O   0  0  0  0  0  0  0  0  0  0  0  0
    7.4382    2.9687   26.6548 C   0  0  0  0  0  0  0  0  0  0  0  0
    6.5467    2.1378   27.2161 F   0  0  0  0  0  0  0  0  0  0  0  0
    7.8741    4.0637   27.3814 C   0  0  0  0  0  0  0  0  0  0  0  0
    8.8289    4.9587   26.8549 C   0  0  0  0  0  0  0  0  0  0  0  0
    9.3637    4.7904   25.5796 C   0  0  0  0  0  0  0  0  0  0  0  0
   10.3882    5.7298   25.0110 C   0  0  0  0  0  0  0  0  0  0  0  0
   10.6473    6.5203   25.7216 H   0  0  0  0  0  0  0  0  0  0  0  0
   10.0110    6.2068   24.0985 H   0  0  0  0  0  0  0  0  0  0  0  0
   11.3095    5.1933   24.7541 H   0  0  0  0  0  0  0  0  0  0  0  0
    9.1587    5.7975   27.4632 H   0  0  0  0  0  0  0  0  0  0  0  0
    7.4701    4.1943   28.3795 H   0  0  0  0  0  0  0  0  0  0  0  0
    9.8589    3.6128   22.7616 H   0  0  0  0  0  0  0  0  0  0  0  0
    7.0341    0.0266   22.9876 H   0  0  0  0  0  0  0  0  0  0  0  0
    6.6568    0.0479   19.9132 C   0  0  0  0  0  0  0  0  0  0  0  0
    5.4321    0.6911   20.1386 C   0  0  0  0  0  0  0  0  0  0  0  0
    4.7973    1.3309   19.0720 C   0  0  0  0  0  0  0  0  0  0  0  0
    5.4117    1.3027   17.8146 C   0  0  0  0  0  0  0  0  0  0  0  0
    6.5707    0.6785   17.5673 N   0  0  0  0  0  0  0  0  0  0  0  0
    7.1669    0.0764   18.6094 C   0  0  0  0  0  0  0  0  0  0  0  0
    8.1160   -0.4124   18.3812 H   0  0  0  0  0  0  0  0  0  0  0  0
    4.9401    1.7923   16.9648 H   0  0  0  0  0  0  0  0  0  0  0  0
    3.8511    1.8458   19.2005 H   0  0  0  0  0  0  0  0  0  0  0  0
    4.9851    0.7063   21.1356 H   0  0  0  0  0  0  0  0  0  0  0  0
    8.3687   -1.0217   20.5938 H   0  0  0  0  0  0  0  0  0  0  0  0
    7.2247   -2.4558   22.2710 H   0  0  0  0  0  0  0  0  0  0  0  0
    5.6548   -1.7503   21.7577 H   0  0  0  0  0  0  0  0  0  0  0  0
    4.9979   -3.9213   20.9785 H   0  0  0  0  0  0  0  0  0  0  0  0
    6.5868   -4.7070   21.2361 H   0  0  0  0  0  0  0  0  0  0  0  0
    5.8979   -4.5732   19.5798 H   0  0  0  0  0  0  0  0  0  0  0  0
  1  2  1  0
  2  3  1  0
  3  4  1  0
  4  5  1  0
  5  6  1  0
  6  7  2  0
  6  8  1  0
  8  9  2  0
  9 10  1  0
 10 11  2  0
 11 12  1  0
 11 13  1  0
 13 14  1  0
 13 15  2  0
 15 16  1  0
 16 17  2  0
 17 18  1  0
 18 19  1  0
 18 20  1  0
 18 21  1  0
 16 22  1  0
 15 23  1  0
  9 24  1  0
  5 25  1  0
  4 26  1  0
 26 27  2  0
 27 28  1  0
 28 29  2  0
 29 30  1  0
 30 31  2  0
 31 32  1  0
 29 33  1  0
 28 34  1  0
 27 35  1  0
  4 36  1  6
  3 37  1  0
  3 38  1  0
  1 39  1  0
  1 40  1  0
  1 41  1  0
 12  8  1  0
 31 26  1  0
 17 10  1  0
M  END
>  <plip>  (1) 
-0.17857142857142858

>  <filename>  (1) 
[H][c]1[n][c]([H])[c]([C@@]([H])([N]([H])[C](=[O])[c]2[o][c]3[c]([F])[c]([H])[c]([H])[c]([C]([H])([H])[H])[c]3[c]2[H])[C]([H])([H])[O][C]([H])([H])[H])[c]([H])[c]1[H]

$$$$
