
     RDKit          3D

 38 39  0  0  0  0  0  0  0  0999 V2000
    9.3140    4.1335   22.8925 C   0  0  0  0  0  0  0  0  0  0  0  0
    8.5870    3.2068   23.8045 C   0  0  0  0  0  0  0  0  0  0  0  0
    8.3488    3.5607   25.0365 N   0  0  0  0  0  0  0  0  0  0  0  0
    7.6838    2.5024   25.6201 O   0  0  0  0  0  0  0  0  0  0  0  0
    7.5368    1.5127   24.7437 C   0  0  0  0  0  0  0  0  0  0  0  0
    6.7951    0.2811   25.1613 C   0  0  0  0  0  0  0  0  0  0  0  0
    6.9489   -0.0652   26.6500 C   0  0  0  0  0  0  0  0  0  0  0  0
    6.4631   -1.0262   26.8552 H   0  0  0  0  0  0  0  0  0  0  0  0
    8.0029   -0.1435   26.9371 H   0  0  0  0  0  0  0  0  0  0  0  0
    6.4803    0.6926   27.2893 H   0  0  0  0  0  0  0  0  0  0  0  0
    5.3172    0.4125   24.7647 C   0  0  0  0  0  0  0  0  0  0  0  0
    5.2309    0.6395   23.6965 H   0  0  0  0  0  0  0  0  0  0  0  0
    4.8111    1.2096   25.3246 H   0  0  0  0  0  0  0  0  0  0  0  0
    4.7951   -0.5278   24.9739 H   0  0  0  0  0  0  0  0  0  0  0  0
    7.2385   -0.5105   24.5463 H   0  0  0  0  0  0  0  0  0  0  0  0
    8.0747    1.9031   23.5449 C   0  0  0  0  0  0  0  0  0  0  0  0
    8.1612    1.2018   22.2698 C   0  0  0  0  0  0  0  0  0  0  0  0
    8.7973    1.6020   21.3210 O   0  0  0  0  0  0  0  0  0  0  0  0
    7.4549    0.0414   22.2544 O   0  0  0  0  0  0  0  0  0  0  0  0
    7.4144   -0.7019   21.0125 C   0  0  0  0  0  0  0  0  0  0  0  0
    6.7234   -2.0229   21.3029 C   0  0  0  0  0  0  0  0  0  0  0  0
    6.7018   -2.6142   20.3842 H   0  0  0  0  0  0  0  0  0  0  0  0
    7.2440   -2.5991   22.0745 H   0  0  0  0  0  0  0  0  0  0  0  0
    5.6861   -1.8592   21.6196 H   0  0  0  0  0  0  0  0  0  0  0  0
    6.6852    0.0675   19.9282 C   0  0  0  0  0  0  0  0  0  0  0  0
    5.4478    0.6857   20.1569 C   0  0  0  0  0  0  0  0  0  0  0  0
    4.8023    1.3177   19.0945 C   0  0  0  0  0  0  0  0  0  0  0  0
    5.3981    1.2860   17.8285 C   0  0  0  0  0  0  0  0  0  0  0  0
    6.5586    0.6643   17.5800 N   0  0  0  0  0  0  0  0  0  0  0  0
    7.1790    0.0865   18.6206 C   0  0  0  0  0  0  0  0  0  0  0  0
    8.1227   -0.4055   18.3784 H   0  0  0  0  0  0  0  0  0  0  0  0
    4.9319    1.7863   16.9799 H   0  0  0  0  0  0  0  0  0  0  0  0
    3.8648    1.8398   19.2369 H   0  0  0  0  0  0  0  0  0  0  0  0
    4.9938    0.6522   21.1494 H   0  0  0  0  0  0  0  0  0  0  0  0
    8.4492   -0.8722   20.6931 H   0  0  0  0  0  0  0  0  0  0  0  0
    8.7022    4.3380   22.0100 H   0  0  0  0  0  0  0  0  0  0  0  0
   10.2395    3.6651   22.5464 H   0  0  0  0  0  0  0  0  0  0  0  0
    9.5414    5.0678   23.4161 H   0  0  0  0  0  0  0  0  0  0  0  0
  1  2  1  0
  2  3  2  0
  3  4  1  0
  4  5  1  0
  5  6  1  0
  6  7  1  0
  7  8  1  0
  7  9  1  0
  7 10  1  0
  6 11  1  0
 11 12  1  0
 11 13  1  0
 11 14  1  0
  6 15  1  0
  5 16  2  0
 16 17  1  0
 17 18  2  0
 17 19  1  0
 19 20  1  0
 20 21  1  0
 21 22  1  0
 21 23  1  0
 21 24  1  0
 20 25  1  0
 25 26  2  0
 26 27  1  0
 27 28  2  0
 28 29  1  0
 29 30  2  0
 30 31  1  0
 28 32  1  0
 27 33  1  0
 26 34  1  0
 20 35  1  0
  1 36  1  0
  1 37  1  0
  1 38  1  0
 16  2  1  0
 30 25  1  0
M  END
>  <plip>  (1) 
-0.07142857142857142

>  <filename>  (1) 
[H][c]1[n][c]([H])[c]([C]([H])([O][C](=[O])[c]2[c]([C]([H])([H])[H])[n][o][c]2[C]([H])([C]([H])([H])[H])[C]([H])([H])[H])[C]([H])([H])[H])[c]([H])[c]1[H]

$$$$
