
     RDKit          3D

 50 52  0  0  0  0  0  0  0  0999 V2000
    8.2844    3.7865   25.2574 C   0  0  0  0  0  0  0  0  0  0  0  0
    7.5473    2.8912   24.4623 O   0  0  0  0  0  0  0  0  0  0  0  0
    8.3368    2.0418   23.6549 C   0  0  0  0  0  0  0  0  0  0  0  0
    7.4213    1.2227   22.7548 C   0  0  0  0  0  0  0  0  0  0  0  0
    8.2301    0.2330   21.9003 C   0  0  0  0  0  0  0  0  0  0  0  0
    7.4451   -0.7401   20.9859 C   0  0  0  0  0  0  0  0  0  0  0  0
    6.6159   -1.6702   21.7426 N   0  0  0  0  0  0  0  0  0  0  0  0
    7.1353   -2.6474   22.5385 C   0  0  0  0  0  0  0  0  0  0  0  0
    8.3329   -2.8257   22.6532 O   0  0  0  0  0  0  0  0  0  0  0  0
    6.1095   -3.5826   23.1722 C   0  0  0  0  0  0  0  0  0  0  0  0
    5.7927   -3.3935   24.6766 C   0  0  0  0  0  0  0  0  0  0  0  0
    7.0261   -3.3220   25.3926 O   0  0  0  0  0  0  0  0  0  0  0  0
    7.4320   -2.1147   25.9122 C   0  0  0  0  0  0  0  0  0  0  0  0
    8.6588   -2.0707   26.5783 C   0  0  0  0  0  0  0  0  0  0  0  0
    9.0860   -0.8742   27.1661 C   0  0  0  0  0  0  0  0  0  0  0  0
    8.3100    0.2875   27.0389 C   0  0  0  0  0  0  0  0  0  0  0  0
    7.0981    0.2487   26.3442 C   0  0  0  0  0  0  0  0  0  0  0  0
    6.6231   -0.9629   25.8479 C   0  0  0  0  0  0  0  0  0  0  0  0
    5.3154   -1.0715   25.3369 N   0  0  0  0  0  0  0  0  0  0  0  0
    4.7683   -2.2809   25.0132 C   0  0  0  0  0  0  0  0  0  0  0  0
    3.5690   -2.4555   24.9615 O   0  0  0  0  0  0  0  0  0  0  0  0
    4.6219   -0.3780   25.5741 H   0  0  0  0  0  0  0  0  0  0  0  0
    6.5115    1.1445   26.1742 H   0  0  0  0  0  0  0  0  0  0  0  0
    8.6375    1.2163   27.4993 H   0  0  0  0  0  0  0  0  0  0  0  0
   10.0213   -0.8424   27.7208 H   0  0  0  0  0  0  0  0  0  0  0  0
    9.2510   -2.9812   26.6327 H   0  0  0  0  0  0  0  0  0  0  0  0
    5.2984   -4.3025   25.0262 H   0  0  0  0  0  0  0  0  0  0  0  0
    6.5725   -4.5708   23.0941 H   0  0  0  0  0  0  0  0  0  0  0  0
    5.1821   -3.5970   22.5940 H   0  0  0  0  0  0  0  0  0  0  0  0
    5.6247   -1.4950   21.7717 H   0  0  0  0  0  0  0  0  0  0  0  0
    6.6240   -0.0654   19.9078 C   0  0  0  0  0  0  0  0  0  0  0  0
    5.4010    0.5857   20.1371 C   0  0  0  0  0  0  0  0  0  0  0  0
    4.7899    1.2716   19.0843 C   0  0  0  0  0  0  0  0  0  0  0  0
    5.4110    1.2799   17.8306 C   0  0  0  0  0  0  0  0  0  0  0  0
    6.5582    0.6337   17.5753 N   0  0  0  0  0  0  0  0  0  0  0  0
    7.1307   -0.0137   18.5979 C   0  0  0  0  0  0  0  0  0  0  0  0
    8.0632   -0.5269   18.3595 H   0  0  0  0  0  0  0  0  0  0  0  0
    4.9715    1.8274   16.9991 H   0  0  0  0  0  0  0  0  0  0  0  0
    3.8584    1.8089   19.2226 H   0  0  0  0  0  0  0  0  0  0  0  0
    4.9438    0.5841   21.1322 H   0  0  0  0  0  0  0  0  0  0  0  0
    8.2176   -1.3380   20.4853 H   0  0  0  0  0  0  0  0  0  0  0  0
    8.8348   -0.4109   22.5538 H   0  0  0  0  0  0  0  0  0  0  0  0
    8.9251    0.7914   21.2559 H   0  0  0  0  0  0  0  0  0  0  0  0
    6.8497    1.9076   22.1128 H   0  0  0  0  0  0  0  0  0  0  0  0
    6.6940    0.6889   23.3862 H   0  0  0  0  0  0  0  0  0  0  0  0
    9.0388    2.6336   23.0352 H   0  0  0  0  0  0  0  0  0  0  0  0
    8.9486    1.3691   24.2832 H   0  0  0  0  0  0  0  0  0  0  0  0
    8.9180    3.2669   25.9948 H   0  0  0  0  0  0  0  0  0  0  0  0
    8.9282    4.4463   24.6532 H   0  0  0  0  0  0  0  0  0  0  0  0
    7.5611    4.4065   25.7933 H   0  0  0  0  0  0  0  0  0  0  0  0
  1  2  1  0
  2  3  1  0
  3  4  1  0
  4  5  1  0
  5  6  1  0
  6  7  1  0
  7  8  1  0
  8  9  2  0
  8 10  1  0
 10 11  1  0
 11 12  1  0
 12 13  1  0
 13 14  2  0
 14 15  1  0
 15 16  2  0
 16 17  1  0
 17 18  2  0
 18 19  1  0
 19 20  1  0
 20 21  2  0
 19 22  1  0
 17 23  1  0
 16 24  1  0
 15 25  1  0
 14 26  1  0
 11 27  1  0
 10 28  1  0
 10 29  1  0
  7 30  1  0
  6 31  1  0
 31 32  2  0
 32 33  1  0
 33 34  2  0
 34 35  1  0
 35 36  2  0
 36 37  1  0
 34 38  1  0
 33 39  1  0
 32 40  1  0
  6 41  1  0
  5 42  1  0
  5 43  1  0
  4 44  1  0
  4 45  1  0
  3 46  1  0
  3 47  1  0
  1 48  1  0
  1 49  1  0
  1 50  1  0
 20 11  1  0
 36 31  1  0
 18 13  1  0
M  END
>  <plip>  (1) 
-0.03333333333333333

>  <filename>  (1) 
[H][c]1[n][c]([H])[c]([C]([H])([N]([H])[C](=[O])[C]([H])([H])[C]2([H])[O][c]3[c]([H])[c]([H])[c]([H])[c]([H])[c]3[N]([H])[C]2=[O])[C]([H])([H])[C]([H])([H])[C]([H])([H])[O][C]([H])([H])[H])[c]([H])[c]1[H]

$$$$
