
     RDKit          3D

 32 35  0  0  0  0  0  0  0  0999 V2000
    8.5183   -3.6594   22.1875 C   0  0  0  0  0  0  0  0  0  0  0  0
    8.0981   -2.2613   21.9036 C   0  0  0  0  0  0  0  0  0  0  0  0
    7.6760   -1.8751   20.7214 N   0  0  0  0  0  0  0  0  0  0  0  0
    7.3290   -0.5875   20.9214 N   0  0  0  0  0  0  0  0  0  0  0  0
    6.6342    0.0835   19.8858 C   0  0  0  0  0  0  0  0  0  0  0  0
    5.4041    0.7047   20.1126 C   0  0  0  0  0  0  0  0  0  0  0  0
    4.7898    1.3179   19.0193 C   0  0  0  0  0  0  0  0  0  0  0  0
    5.4199    1.2858   17.7725 C   0  0  0  0  0  0  0  0  0  0  0  0
    6.5692    0.6227   17.5445 N   0  0  0  0  0  0  0  0  0  0  0  0
    7.1473    0.0156   18.5804 C   0  0  0  0  0  0  0  0  0  0  0  0
    8.0534   -0.5568   18.3863 H   0  0  0  0  0  0  0  0  0  0  0  0
    4.9938    1.8119   16.9228 H   0  0  0  0  0  0  0  0  0  0  0  0
    3.8348    1.8157   19.1293 H   0  0  0  0  0  0  0  0  0  0  0  0
    4.9513    0.7069   21.1061 H   0  0  0  0  0  0  0  0  0  0  0  0
    7.6113   -0.2374   22.2171 C   0  0  0  0  0  0  0  0  0  0  0  0
    7.4645    1.1242   22.7605 C   0  0  0  0  0  0  0  0  0  0  0  0
    7.3209    2.2104   22.0078 N   0  0  0  0  0  0  0  0  0  0  0  0
    7.2111    3.2373   22.8731 N   0  0  0  0  0  0  0  0  0  0  0  0
    7.2900    2.8579   24.1682 C   0  0  0  0  0  0  0  0  0  0  0  0
    7.2268    3.6483   25.2518 N   0  0  0  0  0  0  0  0  0  0  0  0
    7.3507    2.9879   26.4028 C   0  0  0  0  0  0  0  0  0  0  0  0
    7.5205    1.5833   26.5178 C   0  0  0  0  0  0  0  0  0  0  0  0
    7.5720    0.7923   25.3813 C   0  0  0  0  0  0  0  0  0  0  0  0
    7.4590    1.4658   24.1505 C   0  0  0  0  0  0  0  0  0  0  0  0
    7.6957   -0.2886   25.4049 H   0  0  0  0  0  0  0  0  0  0  0  0
    7.6105    1.1395   27.4982 H   0  0  0  0  0  0  0  0  0  0  0  0
    7.3193    3.5896   27.3093 H   0  0  0  0  0  0  0  0  0  0  0  0
    7.1178    4.1949   22.5771 H   0  0  0  0  0  0  0  0  0  0  0  0
    8.0761   -1.3025   22.8551 N   0  0  0  0  0  0  0  0  0  0  0  0
    9.5070   -3.6557   22.6505 H   0  0  0  0  0  0  0  0  0  0  0  0
    7.8154   -4.1163   22.8877 H   0  0  0  0  0  0  0  0  0  0  0  0
    8.5135   -4.2405   21.2673 H   0  0  0  0  0  0  0  0  0  0  0  0
  1  2  1  0
  2  3  2  0
  3  4  1  0
  4  5  1  0
  5  6  2  0
  6  7  1  0
  7  8  2  0
  8  9  1  0
  9 10  2  0
 10 11  1  0
  8 12  1  0
  7 13  1  0
  6 14  1  0
  4 15  1  0
 15 16  1  0
 16 17  2  0
 17 18  1  0
 18 19  1  0
 19 20  2  0
 20 21  1  0
 21 22  2  0
 22 23  1  0
 23 24  2  0
 23 25  1  0
 22 26  1  0
 21 27  1  0
 18 28  1  0
 15 29  2  0
  1 30  1  0
  1 31  1  0
  1 32  1  0
 29  2  1  0
 10  5  1  0
 24 16  1  0
 24 19  1  0
M  END
>  <plip>  (1) 
-0.07142857142857142

>  <filename>  (1) 
[H][c]1[n][c]([H])[c](-[n]2[n][c]([C]([H])([H])[H])[n][c]2-[c]2[n][n]([H])[c]3[n][c]([H])[c]([H])[c]([H])[c]23)[c]([H])[c]1[H]

$$$$
