
     RDKit          3D

 28 29  0  0  0  0  0  0  0  0999 V2000
    4.9100    1.7788   16.9972 H   0  0  0  0  0  0  0  0  0  0  0  0
    5.3963    1.2932   17.8388 C   0  0  0  0  0  0  0  0  0  0  0  0
    6.5618    0.6817   17.5743 N   0  0  0  0  0  0  0  0  0  0  0  0
    7.1742    0.0696   18.5973 C   0  0  0  0  0  0  0  0  0  0  0  0
    8.1210   -0.4332   18.3750 H   0  0  0  0  0  0  0  0  0  0  0  0
    6.6653    0.0348   19.9029 C   0  0  0  0  0  0  0  0  0  0  0  0
    7.3585   -0.7145   20.9938 C   0  0  0  0  0  0  0  0  0  0  0  0
    7.1993   -0.2181   21.9564 H   0  0  0  0  0  0  0  0  0  0  0  0
    8.4496   -0.7190   20.8308 H   0  0  0  0  0  0  0  0  0  0  0  0
    6.7635   -2.1280   21.1421 C   0  0  1  0  0  0  0  0  0  0  0  0
    5.6817   -2.0858   21.3173 H   0  0  0  0  0  0  0  0  0  0  0  0
    6.8416   -2.8034   19.9621 F   0  0  0  0  0  0  0  0  0  0  0  0
    7.4464   -2.9127   22.2494 C   0  0  0  0  0  0  0  0  0  0  0  0
    6.7777   -3.0578   23.4667 C   0  0  0  0  0  0  0  0  0  0  0  0
    5.7604   -2.6444   23.5763 H   0  0  0  0  0  0  0  0  0  0  0  0
    7.3740   -3.7013   24.5477 C   0  0  0  0  0  0  0  0  0  0  0  0
    6.8416   -3.8079   25.4884 H   0  0  0  0  0  0  0  0  0  0  0  0
    8.6713   -4.2011   24.4223 C   0  0  0  0  0  0  0  0  0  0  0  0
    9.1562   -4.7079   25.2561 H   0  0  0  0  0  0  0  0  0  0  0  0
    9.3629   -4.0122   23.2405 C   0  0  0  0  0  0  0  0  0  0  0  0
   10.3972   -4.2829   23.2095 H   0  0  0  0  0  0  0  0  0  0  0  0
    8.8248   -3.3268   22.0485 C   0  0  0  0  0  0  0  0  0  0  0  0
    9.4573   -2.8373   20.7610 C   0  0  0  0  0  0  0  0  0  0  0  0
    9.4574   -2.8373   20.7611 N   0  0  0  0  0  0  0  0  0  0  0  0
    5.4411    0.6614   20.1502 C   0  0  0  0  0  0  0  0  0  0  0  0
    5.0103    0.6317   21.1531 H   0  0  0  0  0  0  0  0  0  0  0  0
    4.7995    1.3167   19.1032 C   0  0  0  0  0  0  0  0  0  0  0  0
    3.8687    1.8464   19.2574 H   0  0  0  0  0  0  0  0  0  0  0  0
  1  2  1  0
  2  3  2  0
  3  4  1  0
  4  5  1  0
  4  6  2  0
  6  7  1  0
  7  8  1  0
  7  9  1  0
  7 10  1  0
 10 11  1  1
 10 12  1  0
 10 13  1  0
 13 14  2  0
 14 15  1  0
 14 16  1  0
 16 17  1  0
 16 18  2  0
 18 19  1  0
 18 20  1  0
 20 21  1  0
 20 22  2  0
 22 23  1  0
 23 24  3  0
  6 25  1  0
 25 26  1  0
 25 27  2  0
 27 28  1  0
 27  2  1  0
 22 13  1  0
M  END
>  <plip>  (1) 
-0.03333333333333333

>  <filename>  (1) 
[H][c]1[n][c]([H])[c]([C]([H])([H])[C@@]([H])([F])[c]2[c]([H])[c]([H])[c]([H])[c]([H])[c]2[C]#[N])[c]([H])[c]1[H]

$$$$
