
     RDKit          3D

 31 32  0  0  0  0  0  0  0  0999 V2000
    6.1869   -1.6439   21.4357 H   0  0  0  0  0  0  0  0  0  0  0  0
    6.7487   -0.9622   20.7953 C   0  0  0  0  0  0  0  0  0  0  0  0
    8.0238   -0.7180   21.1274 C   0  0  0  0  0  0  0  0  0  0  0  0
    8.6152   -1.5592   21.9956 F   0  0  0  0  0  0  0  0  0  0  0  0
    8.8960    0.3989   20.5755 C   0  0  0  0  0  0  0  0  0  0  0  0
    8.2428    1.2672   20.4158 H   0  0  0  0  0  0  0  0  0  0  0  0
    9.2253    0.0688   19.5808 H   0  0  0  0  0  0  0  0  0  0  0  0
   10.1134    0.7462   21.4035 C   0  0  0  0  0  0  0  0  0  0  0  0
   11.2565   -0.0538   21.2903 C   0  0  0  0  0  0  0  0  0  0  0  0
   11.2868   -0.8282   20.5296 H   0  0  0  0  0  0  0  0  0  0  0  0
   12.3419    0.1228   22.1474 C   0  0  0  0  0  0  0  0  0  0  0  0
   13.2102   -0.5238   22.0506 H   0  0  0  0  0  0  0  0  0  0  0  0
   12.3252    1.1220   23.1267 C   0  0  0  0  0  0  0  0  0  0  0  0
   13.4969    1.2657   24.0653 C   0  0  0  0  0  0  0  0  0  0  0  0
   13.2258    0.9925   25.0940 H   0  0  0  0  0  0  0  0  0  0  0  0
   13.8328    2.3079   24.0689 H   0  0  0  0  0  0  0  0  0  0  0  0
   14.3336    0.6214   23.7615 H   0  0  0  0  0  0  0  0  0  0  0  0
   11.2044    1.9709   23.2020 C   0  0  0  0  0  0  0  0  0  0  0  0
   11.1850    2.7652   23.9473 H   0  0  0  0  0  0  0  0  0  0  0  0
   10.1110    1.7864   22.3424 C   0  0  0  0  0  0  0  0  0  0  0  0
    9.2514    2.4579   22.3908 H   0  0  0  0  0  0  0  0  0  0  0  0
    6.0822   -0.2670   19.6645 C   0  0  0  0  0  0  0  0  0  0  0  0
    6.6205   -0.2719   18.3564 C   0  0  0  0  0  0  0  0  0  0  0  0
    7.4072   -0.9823   18.0959 H   0  0  0  0  0  0  0  0  0  0  0  0
    6.2324    0.5459   17.3673 N   0  0  0  0  0  0  0  0  0  0  0  0
    5.2346    1.3989   17.6423 C   0  0  0  0  0  0  0  0  0  0  0  0
    4.9733    2.1012   16.8527 H   0  0  0  0  0  0  0  0  0  0  0  0
    4.5452    1.4095   18.8601 C   0  0  0  0  0  0  0  0  0  0  0  0
    3.7356    2.1170   19.0062 H   0  0  0  0  0  0  0  0  0  0  0  0
    4.9562    0.5436   19.8785 C   0  0  0  0  0  0  0  0  0  0  0  0
    4.4312    0.5125   20.8352 H   0  0  0  0  0  0  0  0  0  0  0  0
  1  2  1  0
  2  3  2  3
  3  4  1  0
  3  5  1  0
  5  6  1  0
  5  7  1  0
  5  8  1  0
  8  9  2  0
  9 10  1  0
  9 11  1  0
 11 12  1  0
 11 13  2  0
 13 14  1  0
 14 15  1  0
 14 16  1  0
 14 17  1  0
 13 18  1  0
 18 19  1  0
 18 20  2  0
 20 21  1  0
  2 22  1  0
 22 23  2  0
 23 24  1  0
 23 25  1  0
 25 26  2  0
 26 27  1  0
 26 28  1  0
 28 29  1  0
 28 30  2  0
 30 31  1  0
 20  8  1  0
 30 22  1  0
M  END
>  <plip>  (1) 
-0.10714285714285714

>  <filename>  (1) 
[H][C](=[C]([F])[C]([H])([H])[c]1[c]([H])[c]([H])[c]([C]([H])([H])[H])[c]([H])[c]1[H])[c]1[c]([H])[n][c]([H])[c]([H])[c]1[H]

$$$$
