
     RDKit          3D

 23 24  0  0  0  0  0  0  0  0999 V2000
    2.9740   -4.6620   22.8090 H   0  0  0  0  0  0  0  0  0  0  0  0
    3.9723   -4.2412   22.8444 C   0  0  0  0  0  0  0  0  0  0  0  0
    4.5927   -3.8699   21.6768 N   0  0  0  0  0  0  0  0  0  0  0  0
    5.7733   -3.3851   21.9391 C   0  0  0  0  0  0  0  0  0  0  0  0
    6.5601   -3.0715   20.8546 N   0  0  0  0  0  0  0  0  0  0  0  0
    5.9577   -3.2088   20.0450 H   0  0  0  0  0  0  0  0  0  0  0  0
    7.6249   -2.1520   20.7406 N   0  0  0  0  0  0  0  0  0  0  0  0
    8.5766   -2.4793   20.9256 H   0  0  0  0  0  0  0  0  0  0  0  0
    7.6719   -0.5329   21.3068 S   0  0  0  0  0  4  0  0  0  0  0  0
    9.0944   -0.2283   21.0001 O   0  0  0  0  0  0  0  0  0  0  0  0
    6.6707    0.1151   19.9791 C   0  0  0  0  0  0  0  0  0  0  0  0
    7.2033    0.0252   18.6950 C   0  0  0  0  0  0  0  0  0  0  0  0
    8.1359   -0.5102   18.5169 H   0  0  0  0  0  0  0  0  0  0  0  0
    6.6123    0.5990   17.6409 N   0  0  0  0  0  0  0  0  0  0  0  0
    5.4508    1.2423   17.8453 C   0  0  0  0  0  0  0  0  0  0  0  0
    5.0068    1.7283   16.9765 H   0  0  0  0  0  0  0  0  0  0  0  0
    4.8144    1.2957   19.0903 C   0  0  0  0  0  0  0  0  0  0  0  0
    3.8648    1.8058   19.1877 H   0  0  0  0  0  0  0  0  0  0  0  0
    5.4239    0.6973   20.1921 C   0  0  0  0  0  0  0  0  0  0  0  0
    4.9484    0.6800   21.1744 H   0  0  0  0  0  0  0  0  0  0  0  0
    6.2087   -3.3333   23.6145 S   0  0  0  0  0  0  0  0  0  0  0  0
    4.6701   -4.0465   23.9841 C   0  0  0  0  0  0  0  0  0  0  0  0
    4.3839   -4.2942   24.9961 H   0  0  0  0  0  0  0  0  0  0  0  0
  1  2  1  0
  2  3  1  0
  3  4  2  0
  4  5  1  0
  5  6  1  0
  5  7  1  0
  7  8  1  0
  9  7  1  6
  9 10  2  0
  9 11  1  0
 11 12  2  0
 12 13  1  0
 12 14  1  0
 14 15  2  0
 15 16  1  0
 15 17  1  0
 17 18  1  0
 17 19  2  0
 19 20  1  0
  4 21  1  0
 21 22  1  0
 22 23  1  0
 22  2  2  0
 19 11  1  0
M  END
>  <plip>  (1) 
-0.1

>  <filename>  (1) 
[H][c]1[n][c]([N]([H])[N]([H])[S@@](=[O])[c]2[c]([H])[n][c]([H])[c]([H])[c]2[H])[s][c]1[H]

$$$$
