
     RDKit          3D

 33 34  0  0  0  0  0  0  0  0999 V2000
    4.9656    1.8008   16.9737 H   0  0  0  0  0  0  0  0  0  0  0  0
    5.4101    1.2771   17.8177 C   0  0  0  0  0  0  0  0  0  0  0  0
    6.5551    0.6188   17.5765 N   0  0  0  0  0  0  0  0  0  0  0  0
    7.1243   -0.0165   18.6094 C   0  0  0  0  0  0  0  0  0  0  0  0
    8.0668   -0.5229   18.3909 H   0  0  0  0  0  0  0  0  0  0  0  0
    6.6084   -0.0219   19.9117 C   0  0  0  0  0  0  0  0  0  0  0  0
    7.3682   -0.7575   20.9769 C   0  0  0  0  0  0  0  0  0  0  0  0
    7.1207   -0.3629   21.9784 H   0  0  0  0  0  0  0  0  0  0  0  0
    8.4423   -0.5885   20.8167 H   0  0  0  0  0  0  0  0  0  0  0  0
    7.1579   -2.1904   20.8546 N   0  0  0  0  0  0  0  0  0  0  0  0
    6.1744   -2.4348   20.9126 H   0  0  0  0  0  0  0  0  0  0  0  0
    7.8347   -3.0289   21.8300 C   0  0  2  0  0  0  0  0  0  0  0  0
    8.9116   -2.7922   21.8956 H   0  0  0  0  0  0  0  0  0  0  0  0
    7.6411   -4.3132   21.1952 N   0  0  0  0  0  0  0  0  0  0  0  0
    6.6281   -4.3725   21.1598 H   0  0  0  0  0  0  0  0  0  0  0  0
    7.8261   -4.0387   20.2299 H   0  0  0  0  0  0  0  0  0  0  0  0
    7.2688   -2.9587   23.2678 C   0  0  0  0  0  0  0  0  0  0  0  0
    7.2223   -1.9062   23.5857 H   0  0  0  0  0  0  0  0  0  0  0  0
    6.2325   -3.3160   23.2368 H   0  0  0  0  0  0  0  0  0  0  0  0
    8.0922   -3.7672   24.2540 C   0  0  0  0  0  0  0  0  0  0  0  0
    7.7394   -5.0690   24.6425 C   0  0  0  0  0  0  0  0  0  0  0  0
    6.8090   -5.4908   24.2664 H   0  0  0  0  0  0  0  0  0  0  0  0
    8.4814   -5.8653   25.4222 N   0  0  0  0  0  0  0  0  0  0  0  0
    9.6727   -5.3961   25.8153 C   0  0  0  0  0  0  0  0  0  0  0  0
   10.2725   -6.0562   26.4398 H   0  0  0  0  0  0  0  0  0  0  0  0
   10.1498   -4.1352   25.4509 C   0  0  0  0  0  0  0  0  0  0  0  0
   11.1568   -3.8386   25.6955 H   0  0  0  0  0  0  0  0  0  0  0  0
    9.3312   -3.2930   24.7043 C   0  0  0  0  0  0  0  0  0  0  0  0
    9.6418   -2.2740   24.4739 H   0  0  0  0  0  0  0  0  0  0  0  0
    5.4088    0.6637   20.1403 C   0  0  0  0  0  0  0  0  0  0  0  0
    4.9686    0.7071   21.1387 H   0  0  0  0  0  0  0  0  0  0  0  0
    4.7950    1.3170   19.0710 C   0  0  0  0  0  0  0  0  0  0  0  0
    3.8711    1.8687   19.2012 H   0  0  0  0  0  0  0  0  0  0  0  0
  1  2  1  0
  2  3  2  0
  3  4  1  0
  4  5  1  0
  4  6  2  0
  6  7  1  0
  7  8  1  0
  7  9  1  0
  7 10  1  0
 10 11  1  0
 10 12  1  0
 12 13  1  1
 12 14  1  0
 14 15  1  0
 14 16  1  0
 12 17  1  0
 17 18  1  0
 17 19  1  0
 17 20  1  0
 20 21  2  0
 21 22  1  0
 21 23  1  0
 23 24  2  0
 24 25  1  0
 24 26  1  0
 26 27  1  0
 26 28  2  0
 28 29  1  0
  6 30  1  0
 30 31  1  0
 30 32  2  0
 32 33  1  0
 32  2  1  0
 28 20  1  0
M  END
>  <plip>  (1) 
-0.13793103448275862

>  <filename>  (1) 
[H][c]1[n][c]([H])[c]([C]([H])([H])[N]([H])[C@]([H])([N]([H])[H])[C]([H])([H])[c]2[c]([H])[n][c]([H])[c]([H])[c]2[H])[c]([H])[c]1[H]

$$$$
