
     RDKit          3D

 24 26  0  0  0  0  0  0  0  0999 V2000
    4.9254    1.7729   17.0018 H   0  0  0  0  0  0  0  0  0  0  0  0
    5.4114    1.2851   17.8457 C   0  0  0  0  0  0  0  0  0  0  0  0
    6.5755    0.6660   17.5975 N   0  0  0  0  0  0  0  0  0  0  0  0
    7.1821    0.0518   18.6174 C   0  0  0  0  0  0  0  0  0  0  0  0
    8.1273   -0.4329   18.3834 H   0  0  0  0  0  0  0  0  0  0  0  0
    6.6524    0.0108   19.9131 C   0  0  0  0  0  0  0  0  0  0  0  0
    7.3633   -0.6941   20.9793 C   0  0  0  0  0  0  0  0  0  0  0  0
    8.5498   -1.3481   20.8208 N   0  0  0  0  0  0  0  0  0  0  0  0
    8.8041   -1.8189   22.0156 C   0  0  0  0  0  0  0  0  0  0  0  0
    9.6755   -2.4072   22.3002 H   0  0  0  0  0  0  0  0  0  0  0  0
    7.8200   -1.4776   22.8746 N   0  0  0  0  0  0  0  0  0  0  0  0
    7.7694   -1.8184   24.2364 C   0  0  0  0  0  0  0  0  0  0  0  0
    8.6726   -2.5201   24.8670 N   0  0  0  0  0  0  0  0  0  0  0  0
    8.2164   -2.6028   26.1586 C   0  0  0  0  0  0  0  0  0  0  0  0
    8.7528   -3.1286   26.9346 H   0  0  0  0  0  0  0  0  0  0  0  0
    7.0280   -1.9475   26.3066 C   0  0  0  0  0  0  0  0  0  0  0  0
    6.3924   -1.8121   27.1793 H   0  0  0  0  0  0  0  0  0  0  0  0
    6.7530   -1.4455   25.0534 N   0  0  0  0  0  0  0  0  0  0  0  0
    5.9650   -0.9069   24.7483 H   0  0  0  0  0  0  0  0  0  0  0  0
    6.8800   -0.7464   22.2085 N   0  0  0  0  0  0  0  0  0  0  0  0
    5.4302    0.6564   20.1659 C   0  0  0  0  0  0  0  0  0  0  0  0
    4.9989    0.6353   21.1721 H   0  0  0  0  0  0  0  0  0  0  0  0
    4.8058    1.3091   19.1090 C   0  0  0  0  0  0  0  0  0  0  0  0
    3.8732    1.8440   19.2585 H   0  0  0  0  0  0  0  0  0  0  0  0
  1  2  1  0
  2  3  2  0
  3  4  1  0
  4  5  1  0
  4  6  2  0
  6  7  1  0
  7  8  1  0
  8  9  2  0
  9 10  1  0
  9 11  1  0
 11 12  1  0
 12 13  2  0
 13 14  1  0
 14 15  1  0
 14 16  2  0
 16 17  1  0
 16 18  1  0
 18 19  1  0
 11 20  1  0
  6 21  1  0
 21 22  1  0
 21 23  2  0
 23 24  1  0
 23  2  1  0
 20  7  2  0
 18 12  1  0
M  END
>  <plip>  (1) 
-0.06896551724137931

>  <filename>  (1) 
[H][c]1[n][c]([H])[c](-[c]2[n][c]([H])[n](-[c]3[n][c]([H])[c]([H])[n]3[H])[n]2)[c]([H])[c]1[H]

$$$$
