
     RDKit          3D

 26 27  0  0  0  0  0  0  0  0999 V2000
    4.9368    1.8017   16.9733 H   0  0  0  0  0  0  0  0  0  0  0  0
    5.3982    1.2962   17.8190 C   0  0  0  0  0  0  0  0  0  0  0  0
    6.5530    0.6665   17.5658 N   0  0  0  0  0  0  0  0  0  0  0  0
    7.1566    0.0532   18.5945 C   0  0  0  0  0  0  0  0  0  0  0  0
    8.1069   -0.4267   18.3524 H   0  0  0  0  0  0  0  0  0  0  0  0
    6.6603    0.0271   19.9017 C   0  0  0  0  0  0  0  0  0  0  0  0
    7.3586   -0.7962   20.9761 C   0  0  0  0  0  0  0  0  0  0  0  0
    6.7549   -2.1307   21.0000 N   0  0  0  0  0  0  0  0  0  0  0  0
    6.2759   -2.9415   20.2684 C   0  0  0  0  0  0  0  0  0  0  0  0
    5.6425   -4.0884   19.3778 S   0  0  0  0  0  0  0  0  0  0  0  0
    7.2535   -0.1433   22.3717 C   0  0  0  0  0  0  0  0  0  0  0  0
    7.3201    0.9414   22.2149 H   0  0  0  0  0  0  0  0  0  0  0  0
    6.2817   -0.3625   22.8232 H   0  0  0  0  0  0  0  0  0  0  0  0
    8.4504   -0.6316   23.2215 C   0  0  0  0  0  0  0  0  0  0  0  0
    8.8739    0.1952   23.8045 H   0  0  0  0  0  0  0  0  0  0  0  0
    8.1270   -1.3867   23.9477 H   0  0  0  0  0  0  0  0  0  0  0  0
    9.4658   -1.2346   22.2122 C   0  0  0  0  0  0  0  0  0  0  0  0
    9.5464   -2.3166   22.3691 H   0  0  0  0  0  0  0  0  0  0  0  0
   10.4798   -0.8318   22.3292 H   0  0  0  0  0  0  0  0  0  0  0  0
    8.8908   -0.9360   20.8084 C   0  0  0  0  0  0  0  0  0  0  0  0
    9.1413   -1.7111   20.0775 H   0  0  0  0  0  0  0  0  0  0  0  0
    9.2783    0.0190   20.4281 H   0  0  0  0  0  0  0  0  0  0  0  0
    5.4358    0.6710   20.1385 C   0  0  0  0  0  0  0  0  0  0  0  0
    4.9891    0.6678   21.1373 H   0  0  0  0  0  0  0  0  0  0  0  0
    4.7967    1.3210   19.0815 C   0  0  0  0  0  0  0  0  0  0  0  0
    3.8641    1.8531   19.2275 H   0  0  0  0  0  0  0  0  0  0  0  0
  1  2  1  0
  2  3  2  0
  3  4  1  0
  4  5  1  0
  4  6  2  0
  6  7  1  0
  7  8  1  0
  8  9  2  0
  9 10  2  0
  7 11  1  0
 11 12  1  0
 11 13  1  0
 11 14  1  0
 14 15  1  0
 14 16  1  0
 14 17  1  0
 17 18  1  0
 17 19  1  0
 17 20  1  0
 20 21  1  0
 20 22  1  0
  6 23  1  0
 23 24  1  0
 23 25  2  0
 25 26  1  0
 25  2  1  0
 20  7  1  0
M  END
>  <plip>  (1) 
-0.03571428571428571

>  <filename>  (1) 
[H][c]1[n][c]([H])[c]([C]2([N]=[C]=[S])[C]([H])([H])[C]([H])([H])[C]([H])([H])[C]2([H])[H])[c]([H])[c]1[H]

$$$$
