
     RDKit          3D

 45 47  0  0  0  0  0  0  0  0999 V2000
    6.5955   -4.3754   20.6906 C   0  0  0  0  0  0  0  0  0  0  0  0
    7.2200   -3.0865   20.6724 O   0  0  0  0  0  0  0  0  0  0  0  0
    6.6162   -2.0893   21.3367 C   0  0  0  0  0  0  0  0  0  0  0  0
    5.6309   -2.2605   22.0038 O   0  0  0  0  0  0  0  0  0  0  0  0
    7.3581   -0.7494   21.0497 C   0  0  0  0  0  0  0  0  0  0  0  0
    7.3986    0.0064   22.2825 O   0  0  0  0  0  0  0  0  0  0  0  0
    8.0532    1.1988   22.2841 C   0  0  0  0  0  0  0  0  0  0  0  0
    8.7465    1.5736   21.3743 O   0  0  0  0  0  0  0  0  0  0  0  0
    7.8500    1.9545   23.6112 C   0  0  0  0  0  0  0  0  0  0  0  0
    6.6690    2.7450   23.5281 O   0  0  0  0  0  0  0  0  0  0  0  0
    6.2836    3.5545   24.5620 C   0  0  0  0  0  0  0  0  0  0  0  0
    5.0965    4.2777   24.3134 C   0  0  0  0  0  0  0  0  0  0  0  0
    4.5727    5.1250   25.2734 C   0  0  0  0  0  0  0  0  0  0  0  0
    5.2068    5.2965   26.5246 C   0  0  0  0  0  0  0  0  0  0  0  0
    4.7157    6.1705   27.6031 C   0  0  0  0  0  0  0  0  0  0  0  0
    3.4444    6.9712   27.4216 C   0  0  0  0  0  0  0  0  0  0  0  0
    3.5318    7.6556   26.5714 H   0  0  0  0  0  0  0  0  0  0  0  0
    2.5907    6.3121   27.2338 H   0  0  0  0  0  0  0  0  0  0  0  0
    3.2143    7.5699   28.3086 H   0  0  0  0  0  0  0  0  0  0  0  0
    5.4264    6.2344   28.7433 C   0  0  0  0  0  0  0  0  0  0  0  0
    6.6646    5.4728   28.9468 C   0  0  0  0  0  0  0  0  0  0  0  0
    7.3329    5.5057   29.9460 O   0  0  0  0  0  0  0  0  0  0  0  0
    7.0897    4.6671   27.9099 O   0  0  0  0  0  0  0  0  0  0  0  0
    6.3964    4.5704   26.7419 C   0  0  0  0  0  0  0  0  0  0  0  0
    6.9401    3.7079   25.7820 C   0  0  0  0  0  0  0  0  0  0  0  0
    7.8585    3.1859   26.0258 H   0  0  0  0  0  0  0  0  0  0  0  0
    5.1418    6.8500   29.5899 H   0  0  0  0  0  0  0  0  0  0  0  0
    3.6544    5.6728   25.0711 H   0  0  0  0  0  0  0  0  0  0  0  0
    4.6232    4.1474   23.3484 H   0  0  0  0  0  0  0  0  0  0  0  0
    7.7738    1.2251   24.4265 H   0  0  0  0  0  0  0  0  0  0  0  0
    8.7293    2.5932   23.7453 H   0  0  0  0  0  0  0  0  0  0  0  0
    6.6708    0.0306   19.9261 C   0  0  0  0  0  0  0  0  0  0  0  0
    5.4464    0.6727   20.1615 C   0  0  0  0  0  0  0  0  0  0  0  0
    4.8100    1.3187   19.0991 C   0  0  0  0  0  0  0  0  0  0  0  0
    5.4192    1.2945   17.8396 C   0  0  0  0  0  0  0  0  0  0  0  0
    6.5856    0.6823   17.5876 N   0  0  0  0  0  0  0  0  0  0  0  0
    7.1916    0.0810   18.6239 C   0  0  0  0  0  0  0  0  0  0  0  0
    8.1416   -0.4000   18.3855 H   0  0  0  0  0  0  0  0  0  0  0  0
    4.9415    1.7817   16.9922 H   0  0  0  0  0  0  0  0  0  0  0  0
    3.8660    1.8391   19.2349 H   0  0  0  0  0  0  0  0  0  0  0  0
    5.0085    0.6605   21.1628 H   0  0  0  0  0  0  0  0  0  0  0  0
    8.3761   -1.0226   20.7493 H   0  0  0  0  0  0  0  0  0  0  0  0
    7.1808   -4.9891   20.0113 H   0  0  0  0  0  0  0  0  0  0  0  0
    5.5606   -4.3125   20.3462 H   0  0  0  0  0  0  0  0  0  0  0  0
    6.6097   -4.7957   21.6983 H   0  0  0  0  0  0  0  0  0  0  0  0
  1  2  1  0
  2  3  1  0
  3  4  2  0
  3  5  1  0
  5  6  1  0
  6  7  1  0
  7  8  2  0
  7  9  1  0
  9 10  1  0
 10 11  1  0
 11 12  2  0
 12 13  1  0
 13 14  2  0
 14 15  1  0
 15 16  1  0
 16 17  1  0
 16 18  1  0
 16 19  1  0
 15 20  2  0
 20 21  1  0
 21 22  2  0
 21 23  1  0
 23 24  1  0
 24 25  2  0
 25 26  1  0
 20 27  1  0
 13 28  1  0
 12 29  1  0
  9 30  1  0
  9 31  1  0
  5 32  1  0
 32 33  2  0
 33 34  1  0
 34 35  2  0
 35 36  1  0
 36 37  2  0
 37 38  1  0
 35 39  1  0
 34 40  1  0
 33 41  1  0
  5 42  1  0
  1 43  1  0
  1 44  1  0
  1 45  1  0
 25 11  1  0
 37 32  1  0
 24 14  1  0
M  END
>  <plip>  (1) 
-0.14285714285714285

>  <filename>  (1) 
[H][c]1[n][c]([H])[c]([C]([H])([O][C](=[O])[C]([H])([H])[O][c]2[c]([H])[c]([H])[c]3[c]([C]([H])([H])[H])[c]([H])[c](=[O])[o][c]3[c]2[H])[C](=[O])[O][C]([H])([H])[H])[c]([H])[c]1[H]

$$$$
