
     RDKit          3D

 40 42  0  0  0  0  0  0  0  0999 V2000
   10.0100    1.6011   22.2799 C   0  0  0  0  0  0  0  0  0  0  0  0
    9.2629    0.6105   21.5609 O   0  0  0  0  0  0  0  0  0  0  0  0
    8.0126    0.3369   21.9956 C   0  0  0  0  0  0  0  0  0  0  0  0
    7.4863    0.8795   22.9328 O   0  0  0  0  0  0  0  0  0  0  0  0
    7.3864   -0.7183   21.0411 C   0  0  0  0  0  0  0  0  0  0  0  0
    6.5250   -1.5648   21.8207 O   0  0  0  0  0  0  0  0  0  0  0  0
    5.9588   -2.6498   21.2362 C   0  0  0  0  0  0  0  0  0  0  0  0
    6.1273   -2.9517   20.0799 O   0  0  0  0  0  0  0  0  0  0  0  0
    5.1112   -3.3790   22.2216 C   0  0  0  0  0  0  0  0  0  0  0  0
    4.5550   -4.5776   21.9836 C   0  0  0  0  0  0  0  0  0  0  0  0
    3.5006   -5.2726   22.7572 C   0  0  0  0  0  0  0  0  0  0  0  0
    2.7929   -4.6870   23.8258 C   0  0  0  0  0  0  0  0  0  0  0  0
    1.8436   -5.4187   24.5696 C   0  0  0  0  0  0  0  0  0  0  0  0
    1.6255   -6.7358   24.2168 C   0  0  0  0  0  0  0  0  0  0  0  0
    0.8162   -7.6546   24.8190 O   0  0  0  0  0  0  0  0  0  0  0  0
    0.9815   -8.8642   24.0829 C   0  0  0  0  0  0  0  0  0  0  0  0
    1.8944   -8.6267   23.0124 O   0  0  0  0  0  0  0  0  0  0  0  0
    2.2887   -7.3231   23.1396 C   0  0  0  0  0  0  0  0  0  0  0  0
    3.2080   -6.6202   22.3942 C   0  0  0  0  0  0  0  0  0  0  0  0
    3.6973   -7.1107   21.5632 H   0  0  0  0  0  0  0  0  0  0  0  0
    0.0162   -9.1758   23.6753 H   0  0  0  0  0  0  0  0  0  0  0  0
    1.3780   -9.6492   24.7357 H   0  0  0  0  0  0  0  0  0  0  0  0
    1.3070   -4.9907   25.4072 H   0  0  0  0  0  0  0  0  0  0  0  0
    2.9611   -3.6434   24.0883 H   0  0  0  0  0  0  0  0  0  0  0  0
    4.8958   -5.1411   21.1076 H   0  0  0  0  0  0  0  0  0  0  0  0
    4.9679   -2.8577   23.1615 H   0  0  0  0  0  0  0  0  0  0  0  0
    6.6306   -0.0354   19.9022 C   0  0  0  0  0  0  0  0  0  0  0  0
    5.4226    0.6333   20.1475 C   0  0  0  0  0  0  0  0  0  0  0  0
    4.8005    1.2971   19.0895 C   0  0  0  0  0  0  0  0  0  0  0  0
    5.4135    1.2757   17.8311 C   0  0  0  0  0  0  0  0  0  0  0  0
    6.5643    0.6380   17.5725 N   0  0  0  0  0  0  0  0  0  0  0  0
    7.1469   -0.0001   18.6000 C   0  0  0  0  0  0  0  0  0  0  0  0
    8.0933   -0.4960   18.3720 H   0  0  0  0  0  0  0  0  0  0  0  0
    4.9634    1.8067   16.9957 H   0  0  0  0  0  0  0  0  0  0  0  0
    3.8737    1.8445   19.2306 H   0  0  0  0  0  0  0  0  0  0  0  0
    4.9932    0.6443   21.1516 H   0  0  0  0  0  0  0  0  0  0  0  0
    8.2283   -1.3008   20.6481 H   0  0  0  0  0  0  0  0  0  0  0  0
    9.5044    2.5685   22.2337 H   0  0  0  0  0  0  0  0  0  0  0  0
   10.1445    1.3118   23.3260 H   0  0  0  0  0  0  0  0  0  0  0  0
   10.9822    1.6722   21.7914 H   0  0  0  0  0  0  0  0  0  0  0  0
  1  2  1  0
  2  3  1  0
  3  4  2  0
  3  5  1  0
  5  6  1  0
  6  7  1  0
  7  8  2  0
  7  9  1  0
  9 10  2  3
 10 11  1  0
 11 12  2  0
 12 13  1  0
 13 14  2  0
 14 15  1  0
 15 16  1  0
 16 17  1  0
 17 18  1  0
 18 19  2  0
 19 20  1  0
 16 21  1  0
 16 22  1  0
 13 23  1  0
 12 24  1  0
 10 25  1  0
  9 26  1  0
  5 27  1  0
 27 28  2  0
 28 29  1  0
 29 30  2  0
 30 31  1  0
 31 32  2  0
 32 33  1  0
 30 34  1  0
 29 35  1  0
 28 36  1  0
  5 37  1  0
  1 38  1  0
  1 39  1  0
  1 40  1  0
 19 11  1  0
 32 27  1  0
 18 14  1  0
M  END
>  <plip>  (1) 
-0.06666666666666667

>  <filename>  (1) 
[H][C]([C](=[O])[O][C]([H])([C](=[O])[O][C]([H])([H])[H])[c]1[c]([H])[n][c]([H])[c]([H])[c]1[H])=[C]([H])[c]1[c]([H])[c]([H])[c]2[c]([c]1[H])[O][C]([H])([H])[O]2

$$$$
