
     RDKit          3D

 35 37  0  0  0  0  0  0  0  0999 V2000
    8.9661   -6.3444   26.1221 C   0  0  0  0  0  0  0  0  0  0  0  0
    8.5236   -5.1749   27.4404 S   0  0  0  0  0  0  0  0  0  0  0  0
    7.3710   -4.2608   26.4316 C   0  0  0  0  0  0  0  0  0  0  0  0
    6.0370   -4.7146   26.3212 C   0  0  0  0  0  0  0  0  0  0  0  0
    5.1679   -4.1707   25.4442 N   0  0  0  0  0  0  0  0  0  0  0  0
    5.6340   -3.1676   24.6860 C   0  0  0  0  0  0  0  0  0  0  0  0
    6.9853   -2.6950   24.8263 C   0  0  0  0  0  0  0  0  0  0  0  0
    7.5568   -1.6870   24.1251 N   0  0  0  0  0  0  0  0  0  0  0  0
    6.8796   -0.9595   23.0854 C   0  0  0  0  0  0  0  0  0  0  0  0
    7.7138    0.0502   22.2919 C   0  0  0  0  0  0  0  0  0  0  0  0
    7.4320   -0.7319   20.9651 C   0  0  0  0  0  0  0  0  0  0  0  0
    6.6820    0.0082   19.8813 C   0  0  0  0  0  0  0  0  0  0  0  0
    5.4592    0.6579   20.1246 C   0  0  0  0  0  0  0  0  0  0  0  0
    4.8074    1.3160   19.0792 C   0  0  0  0  0  0  0  0  0  0  0  0
    5.3957    1.3054   17.8098 C   0  0  0  0  0  0  0  0  0  0  0  0
    6.5557    0.6851   17.5429 N   0  0  0  0  0  0  0  0  0  0  0  0
    7.1700    0.0678   18.5608 C   0  0  0  0  0  0  0  0  0  0  0  0
    8.1153   -0.4110   18.3069 H   0  0  0  0  0  0  0  0  0  0  0  0
    4.9217    1.8140   16.9717 H   0  0  0  0  0  0  0  0  0  0  0  0
    3.8709    1.8425   19.2351 H   0  0  0  0  0  0  0  0  0  0  0  0
    5.0191    0.6470   21.1227 H   0  0  0  0  0  0  0  0  0  0  0  0
    6.5904   -1.7623   21.7857 C   0  0  0  0  0  0  0  0  0  0  0  0
    6.9778   -2.7857   21.8208 H   0  0  0  0  0  0  0  0  0  0  0  0
    5.5395   -1.8306   21.4815 H   0  0  0  0  0  0  0  0  0  0  0  0
    8.3462   -1.1695   20.5394 H   0  0  0  0  0  0  0  0  0  0  0  0
    8.7550    0.1243   22.6205 H   0  0  0  0  0  0  0  0  0  0  0  0
    7.2880    1.0577   22.3047 H   0  0  0  0  0  0  0  0  0  0  0  0
    5.9847   -0.4923   23.5202 H   0  0  0  0  0  0  0  0  0  0  0  0
    8.5301   -1.6341   24.3941 H   0  0  0  0  0  0  0  0  0  0  0  0
    7.8551   -3.2437   25.6983 N   0  0  0  0  0  0  0  0  0  0  0  0
    4.9529   -2.7236   23.9590 H   0  0  0  0  0  0  0  0  0  0  0  0
    5.6755   -5.5312   26.9422 H   0  0  0  0  0  0  0  0  0  0  0  0
    8.0965   -6.9410   25.8393 H   0  0  0  0  0  0  0  0  0  0  0  0
    9.7557   -7.0198   26.4392 H   0  0  0  0  0  0  0  0  0  0  0  0
    9.3217   -5.7880   25.2519 H   0  0  0  0  0  0  0  0  0  0  0  0
  1  2  1  0
  2  3  1  0
  3  4  2  0
  4  5  1  0
  5  6  2  0
  6  7  1  0
  7  8  1  0
  8  9  1  0
  9 10  1  0
 10 11  1  0
 11 12  1  0
 12 13  2  0
 13 14  1  0
 14 15  2  0
 15 16  1  0
 16 17  2  0
 17 18  1  0
 15 19  1  0
 14 20  1  0
 13 21  1  0
 11 22  1  0
 22 23  1  0
 22 24  1  0
 11 25  1  0
 10 26  1  0
 10 27  1  0
  9 28  1  0
  8 29  1  0
  7 30  2  0
  6 31  1  0
  4 32  1  0
  1 33  1  0
  1 34  1  0
  1 35  1  0
 30  3  1  0
 22  9  1  0
 17 12  1  0
M  END
>  <plip>  (1) 
-0.03571428571428571

>  <filename>  (1) 
[H][c]1[n][c]([H])[c]([N]([H])[C]2([H])[C]([H])([H])[C]([H])([c]3[c]([H])[n][c]([H])[c]([H])[c]3[H])[C]2([H])[H])[n][c]1[S][C]([H])([H])[H]

$$$$
