
     RDKit          3D

 34 35  0  0  0  0  0  0  0  0999 V2000
    5.0794    1.8132   17.0291 H   0  0  0  0  0  0  0  0  0  0  0  0
    5.5032    1.2577   17.8631 C   0  0  0  0  0  0  0  0  0  0  0  0
    6.6241    0.5665   17.6079 N   0  0  0  0  0  0  0  0  0  0  0  0
    7.1804   -0.1264   18.6117 C   0  0  0  0  0  0  0  0  0  0  0  0
    8.0757   -0.6946   18.3603 H   0  0  0  0  0  0  0  0  0  0  0  0
    6.6476   -0.1613   19.9188 C   0  0  0  0  0  0  0  0  0  0  0  0
    7.2560   -0.9060   20.9728 N   0  0  0  0  0  0  0  0  0  0  0  0
    6.6050   -1.8882   21.6918 C   0  0  0  0  0  0  0  0  0  0  0  0
    5.5614   -2.0861   21.4990 H   0  0  0  0  0  0  0  0  0  0  0  0
    7.4825   -2.4540   22.5758 C   0  0  0  0  0  0  0  0  0  0  0  0
    7.2530   -3.2236   23.3050 H   0  0  0  0  0  0  0  0  0  0  0  0
    8.7241   -1.7817   22.4024 C   0  0  0  0  0  0  0  0  0  0  0  0
    9.6381   -1.9683   22.9559 H   0  0  0  0  0  0  0  0  0  0  0  0
    8.5564   -0.7892   21.4651 C   0  0  0  0  0  0  0  0  0  0  0  0
    9.4466    0.3893   21.1744 C   0  0  0  0  0  0  0  0  0  0  0  0
   10.4746    0.0924   21.4264 H   0  0  0  0  0  0  0  0  0  0  0  0
    9.4700    0.6377   20.0979 H   0  0  0  0  0  0  0  0  0  0  0  0
    9.0609    1.5496   21.9956 N   0  0  0  0  0  0  0  0  0  0  0  0
    8.0881    1.7644   21.8043 H   0  0  0  0  0  0  0  0  0  0  0  0
    9.8678    2.7593   21.8752 C   0  0  0  0  0  0  0  0  0  0  0  0
    9.2120    3.6260   22.0233 H   0  0  0  0  0  0  0  0  0  0  0  0
   10.3493    2.8407   20.8890 H   0  0  0  0  0  0  0  0  0  0  0  0
   10.9867    2.8236   22.9289 C   0  0  0  0  0  0  0  0  0  0  0  0
   10.5416    2.7846   23.9329 H   0  0  0  0  0  0  0  0  0  0  0  0
   11.5979    1.9290   22.7982 H   0  0  0  0  0  0  0  0  0  0  0  0
   11.8890    3.9088   22.7807 O   0  0  0  0  0  0  0  0  0  0  0  0
   11.4563    5.1798   23.2104 C   0  0  0  0  0  0  0  0  0  0  0  0
   12.1985    5.9000   22.8528 H   0  0  0  0  0  0  0  0  0  0  0  0
   11.4171    5.2587   24.3069 H   0  0  0  0  0  0  0  0  0  0  0  0
   10.4764    5.4713   22.8025 H   0  0  0  0  0  0  0  0  0  0  0  0
    5.4599    0.5440   20.1605 C   0  0  0  0  0  0  0  0  0  0  0  0
    5.0214    0.5228   21.1597 H   0  0  0  0  0  0  0  0  0  0  0  0
    4.8814    1.2683   19.1182 C   0  0  0  0  0  0  0  0  0  0  0  0
    3.9705    1.8388   19.2667 H   0  0  0  0  0  0  0  0  0  0  0  0
  1  2  1  0
  2  3  2  0
  3  4  1  0
  4  5  1  0
  4  6  2  0
  6  7  1  0
  7  8  1  0
  8  9  1  0
  8 10  2  0
 10 11  1  0
 10 12  1  0
 12 13  1  0
 12 14  2  0
 14 15  1  0
 15 16  1  0
 15 17  1  0
 15 18  1  0
 18 19  1  0
 18 20  1  0
 20 21  1  0
 20 22  1  0
 20 23  1  0
 23 24  1  0
 23 25  1  0
 23 26  1  0
 26 27  1  0
 27 28  1  0
 27 29  1  0
 27 30  1  0
  6 31  1  0
 31 32  1  0
 31 33  2  0
 33 34  1  0
 33  2  1  0
 14  7  1  0
M  END
>  <plip>  (1) 
-0.07142857142857142

>  <filename>  (1) 
[H][c]1[n][c]([H])[c](-[n]2[c]([H])[c]([H])[c]([H])[c]2[C]([H])([H])[N]([H])[C]([H])([H])[C]([H])([H])[O][C]([H])([H])[H])[c]([H])[c]1[H]

$$$$
