
     RDKit          3D

 40 41  0  0  0  0  0  0  0  0999 V2000
    5.0986    1.8863   16.3739 H   0  0  0  0  0  0  0  0  0  0  0  0
    5.5619    1.4140   17.2367 C   0  0  0  0  0  0  0  0  0  0  0  0
    6.5857    0.5982   16.9824 N   0  0  0  0  0  0  0  0  0  0  0  0
    7.2078    0.0217   18.0193 C   0  0  0  0  0  0  0  0  0  0  0  0
    8.0472   -0.6194   17.7531 H   0  0  0  0  0  0  0  0  0  0  0  0
    6.8505    0.2112   19.3709 C   0  0  0  0  0  0  0  0  0  0  0  0
    7.5978   -0.4475   20.5702 C   0  0  0  0  0  0  0  0  0  0  0  0
    6.8253   -1.6958   21.0354 C   0  0  0  0  0  0  0  0  0  0  0  0
    5.8137   -1.4446   21.3721 H   0  0  0  0  0  0  0  0  0  0  0  0
    7.3466   -2.2212   21.8440 H   0  0  0  0  0  0  0  0  0  0  0  0
    6.7400   -2.3926   20.1929 H   0  0  0  0  0  0  0  0  0  0  0  0
    9.0472   -0.8079   20.1903 C   0  0  0  0  0  0  0  0  0  0  0  0
    9.6160    0.0874   19.9281 H   0  0  0  0  0  0  0  0  0  0  0  0
    9.5683   -1.3403   20.9927 H   0  0  0  0  0  0  0  0  0  0  0  0
    9.0560   -1.4722   19.3248 H   0  0  0  0  0  0  0  0  0  0  0  0
    7.7101    0.8279   21.9832 S   0  0  0  0  0  0  0  0  0  0  0  0
    6.3587    1.1059   22.4811 O   0  0  0  0  0  0  0  0  0  0  0  0
    8.5637    1.9000   21.4725 O   0  0  0  0  0  0  0  0  0  0  0  0
    8.5710    0.0803   23.3909 C   0  0  0  0  0  0  0  0  0  0  0  0
    9.4574   -0.4264   22.9869 H   0  0  0  0  0  0  0  0  0  0  0  0
    7.8826   -0.6658   23.7929 H   0  0  0  0  0  0  0  0  0  0  0  0
    8.8717    1.2023   24.3854 C   0  0  0  0  0  0  0  0  0  0  0  0
   10.0167    2.0698   24.1670 C   0  0  0  0  0  0  0  0  0  0  0  0
   10.7834    1.8038   23.4536 H   0  0  0  0  0  0  0  0  0  0  0  0
   10.0126    3.2687   24.8776 C   0  0  0  0  0  0  0  0  0  0  0  0
   10.3170    4.1828   24.3640 H   0  0  0  0  0  0  0  0  0  0  0  0
    8.6766    3.4024   25.6328 C   0  0  0  0  0  0  0  0  0  0  0  0
    7.8819    4.3751   25.8357 H   0  0  0  0  0  0  0  0  0  0  0  0
    8.6940    3.4618   25.9880 C   0  0  0  0  0  0  0  0  0  0  0  0
    8.8661    3.1949   27.1002 H   0  0  0  0  0  0  0  0  0  0  0  0
    7.9985    1.6447   25.3580 C   0  0  0  0  0  0  0  0  0  0  0  0
    6.9483    0.8637   25.7173 O   0  0  0  0  0  0  0  0  0  0  0  0
    6.5011    0.7149   27.0675 C   0  0  0  0  0  0  0  0  0  0  0  0
    5.7674   -0.1104   27.0755 H   0  0  0  0  0  0  0  0  0  0  0  0
    7.3290    0.4484   27.7373 H   0  0  0  0  0  0  0  0  0  0  0  0
    6.0052    1.6195   27.4446 H   0  0  0  0  0  0  0  0  0  0  0  0
    5.7267    1.0287   19.6027 C   0  0  0  0  0  0  0  0  0  0  0  0
    5.3632    1.1744   20.6163 H   0  0  0  0  0  0  0  0  0  0  0  0
    5.0932    1.6531   18.5271 C   0  0  0  0  0  0  0  0  0  0  0  0
    4.2639    2.3325   18.6825 H   0  0  0  0  0  0  0  0  0  0  0  0
  1  2  1  0
  2  3  2  0
  3  4  1  0
  4  5  1  0
  4  6  2  0
  6  7  1  0
  7  8  1  0
  8  9  1  0
  8 10  1  0
  8 11  1  0
  7 12  1  0
 12 13  1  0
 12 14  1  0
 12 15  1  0
  7 16  1  0
 16 17  2  0
 16 18  2  0
 16 19  1  0
 19 20  1  0
 19 21  1  0
 19 22  1  0
 22 23  2  0
 23 24  1  0
 23 25  1  0
 25 26  1  0
 25 27  2  0
 27 28  1  0
 27 29  1  0
 29 30  1  0
 29 31  2  0
 31 32  1  0
 32 33  1  0
 33 34  1  0
 33 35  1  0
 33 36  1  0
  6 37  1  0
 37 38  1  0
 37 39  2  0
 39 40  1  0
 39  2  1  0
 31 22  1  0
M  END
>  <plip>  (1) 
-0.07142857142857142

>  <filename>  (1) 
[H][c]1[n][c]([H])[c]([C]([C]([H])([H])[H])([C]([H])([H])[H])[S](=[O])(=[O])[C]([H])([H])[c]2[c]([H])[c]([H])[c]([H])[c]([H])[c]2[O][C]([H])([H])[H])[c]([H])[c]1[H]

$$$$
