
     RDKit          3D

 44 46  0  0  0  0  0  0  0  0999 V2000
    5.1330    1.8379   16.9983 H   0  0  0  0  0  0  0  0  0  0  0  0
    5.5068    1.2824   17.8544 C   0  0  0  0  0  0  0  0  0  0  0  0
    6.6481    0.6041   17.6641 N   0  0  0  0  0  0  0  0  0  0  0  0
    7.1545   -0.0689   18.6921 C   0  0  0  0  0  0  0  0  0  0  0  0
    8.0713   -0.6264   18.5204 H   0  0  0  0  0  0  0  0  0  0  0  0
    6.5392   -0.0790   19.9365 C   0  0  0  0  0  0  0  0  0  0  0  0
    7.3395   -1.0524   21.1585 S   0  0  0  0  0  0  0  0  0  0  0  0
    8.4311   -1.7496   20.4814 O   0  0  0  0  0  0  0  0  0  0  0  0
    6.2810   -1.8157   21.8233 O   0  0  0  0  0  0  0  0  0  0  0  0
    8.2427    0.2169   22.6194 C   0  0  0  0  0  0  0  0  0  0  0  0
    9.4803    0.8590   22.2031 N   0  0  0  0  0  0  0  0  0  0  0  0
    9.6081    1.3747   20.8469 C   0  0  0  0  0  0  0  0  0  0  0  0
    8.7968    2.0920   20.6095 H   0  0  0  0  0  0  0  0  0  0  0  0
    9.5542    0.5500   20.1226 H   0  0  0  0  0  0  0  0  0  0  0  0
   10.9660    2.0780   20.8746 C   0  0  0  0  0  0  0  0  0  0  0  0
   11.7591    1.3182   20.8292 H   0  0  0  0  0  0  0  0  0  0  0  0
   11.1654    2.7856   20.0664 H   0  0  0  0  0  0  0  0  0  0  0  0
   10.9454    2.7307   22.2591 C   0  0  2  0  0  0  0  0  0  0  0  0
   10.2773    3.5999   22.2627 H   0  0  0  0  0  0  0  0  0  0  0  0
   12.3096    3.0564   22.8501 C   0  0  0  0  0  0  0  0  0  0  0  0
   12.2243    3.8291   23.6297 H   0  0  0  0  0  0  0  0  0  0  0  0
   12.9937    3.4652   22.0853 H   0  0  0  0  0  0  0  0  0  0  0  0
   12.7917    1.7989   23.4323 N   0  0  0  0  0  0  0  0  0  0  0  0
   14.0738    1.3045   22.9824 C   0  0  0  0  0  0  0  0  0  0  0  0
   14.7146    2.1425   22.6896 H   0  0  0  0  0  0  0  0  0  0  0  0
   14.0213    0.6424   22.1009 H   0  0  0  0  0  0  0  0  0  0  0  0
   14.5787    0.7558   23.7848 H   0  0  0  0  0  0  0  0  0  0  0  0
   11.6932    0.8143   23.4826 C   0  0  0  0  0  0  0  0  0  0  0  0
   11.6277    0.3408   24.4713 H   0  0  0  0  0  0  0  0  0  0  0  0
   11.8300   -0.0073   22.7564 H   0  0  0  0  0  0  0  0  0  0  0  0
   10.3927    1.5782   23.1128 C   0  0  2  0  0  0  0  0  0  0  0  0
    9.8960    1.9302   24.0296 H   0  0  0  0  0  0  0  0  0  0  0  0
    7.1308    1.2090   23.0032 C   0  0  0  0  0  0  0  0  0  0  0  0
    6.8732    1.8970   22.1881 H   0  0  0  0  0  0  0  0  0  0  0  0
    6.2296    0.6626   23.3038 H   0  0  0  0  0  0  0  0  0  0  0  0
    7.4641    1.8031   23.8632 H   0  0  0  0  0  0  0  0  0  0  0  0
    8.5406   -0.7779   23.7428 C   0  0  0  0  0  0  0  0  0  0  0  0
    8.8717   -0.2316   24.6352 H   0  0  0  0  0  0  0  0  0  0  0  0
    9.3342   -1.4669   23.4334 H   0  0  0  0  0  0  0  0  0  0  0  0
    7.6393   -1.3467   23.9944 H   0  0  0  0  0  0  0  0  0  0  0  0
    5.3403    0.5924   20.1562 C   0  0  0  0  0  0  0  0  0  0  0  0
    4.8070    0.5618   21.1103 H   0  0  0  0  0  0  0  0  0  0  0  0
    4.8280    1.3006   19.0758 C   0  0  0  0  0  0  0  0  0  0  0  0
    3.9157    1.8748   19.1620 H   0  0  0  0  0  0  0  0  0  0  0  0
  1  2  1  0
  2  3  2  0
  3  4  1  0
  4  5  1  0
  4  6  2  0
  6  7  1  0
  7  8  2  0
  7  9  2  0
  7 10  1  0
 10 11  1  0
 11 12  1  0
 12 13  1  0
 12 14  1  0
 12 15  1  0
 15 16  1  0
 15 17  1  0
 15 18  1  0
 18 19  1  6
 18 20  1  0
 20 21  1  0
 20 22  1  0
 20 23  1  0
 23 24  1  0
 24 25  1  0
 24 26  1  0
 24 27  1  0
 23 28  1  0
 28 29  1  0
 28 30  1  0
 28 31  1  0
 31 32  1  1
 10 33  1  0
 33 34  1  0
 33 35  1  0
 33 36  1  0
 10 37  1  0
 37 38  1  0
 37 39  1  0
 37 40  1  0
  6 41  1  0
 41 42  1  0
 41 43  2  0
 43 44  1  0
 43  2  1  0
 31 11  1  0
 31 18  1  0
M  END
>  <plip>  (1) 
-0.10714285714285714

>  <filename>  (1) 
[H][c]1[n][c]([H])[c]([S](=[O])(=[O])[C]([N]2[C]([H])([H])[C]([H])([H])[C@]3([H])[C]([H])([H])[N]([C]([H])([H])[H])[C]([H])([H])[C@]23[H])([C]([H])([H])[H])[C]([H])([H])[H])[c]([H])[c]1[H]

$$$$
