
     RDKit          3D

 30 32  0  0  0  0  0  0  0  0999 V2000
    5.1319    1.8208   17.0601 H   0  0  0  0  0  0  0  0  0  0  0  0
    5.5719    1.3255   17.9228 C   0  0  0  0  0  0  0  0  0  0  0  0
    6.7332    0.6881   17.7047 N   0  0  0  0  0  0  0  0  0  0  0  0
    7.2805    0.0425   18.7442 C   0  0  0  0  0  0  0  0  0  0  0  0
    8.2158   -0.4826   18.5380 H   0  0  0  0  0  0  0  0  0  0  0  0
    6.7162   -0.0248   20.0322 C   0  0  0  0  0  0  0  0  0  0  0  0
    7.3869   -0.8406   21.1229 C   0  0  0  0  0  0  0  0  0  0  0  0
    6.6347   -1.1493   21.8599 H   0  0  0  0  0  0  0  0  0  0  0  0
    7.7886   -1.7708   20.7005 H   0  0  0  0  0  0  0  0  0  0  0  0
    8.4897   -0.0817   21.8671 C   0  0  0  0  0  0  0  0  0  0  0  0
    7.9373    1.1663   22.5301 C   0  0  1  0  0  0  0  0  0  0  0  0
    7.0005    0.9507   23.0354 H   0  0  0  0  0  0  0  0  0  0  0  0
    8.6922    2.2969   23.1818 C   0  0  0  0  0  0  0  0  0  0  0  0
    9.7736    2.2799   23.0959 H   0  0  0  0  0  0  0  0  0  0  0  0
    8.3326    2.7685   24.0919 H   0  0  0  0  0  0  0  0  0  0  0  0
    7.9814    2.5199   21.8817 C   0  0  1  0  0  0  0  0  0  0  0  0
    7.0396    3.0827   21.8971 H   0  0  0  0  0  0  0  0  0  0  0  0
    8.8564    2.6569   20.7587 N   0  0  0  0  0  0  0  0  0  0  0  0
    9.0816    3.6381   20.6114 H   0  0  0  0  0  0  0  0  0  0  0  0
    8.3946    2.3270   19.9166 H   0  0  0  0  0  0  0  0  0  0  0  0
    9.5795   -0.8385   22.5881 C   0  0  0  0  0  0  0  0  0  0  0  0
    9.5717   -1.9257   22.6032 H   0  0  0  0  0  0  0  0  0  0  0  0
    9.9641   -0.3788   23.4934 H   0  0  0  0  0  0  0  0  0  0  0  0
    9.8860   -0.1191   21.3019 C   0  0  0  0  0  0  0  0  0  0  0  0
   10.0515   -0.7153   20.4072 H   0  0  0  0  0  0  0  0  0  0  0  0
   10.4815    0.7881   21.3395 H   0  0  0  0  0  0  0  0  0  0  0  0
    5.5254    0.6955   20.2449 C   0  0  0  0  0  0  0  0  0  0  0  0
    5.0603    0.7213   21.2336 H   0  0  0  0  0  0  0  0  0  0  0  0
    4.9334    1.3582   19.1655 C   0  0  0  0  0  0  0  0  0  0  0  0
    3.9910    1.8903   19.2646 H   0  0  0  0  0  0  0  0  0  0  0  0
  1  2  1  0
  2  3  2  0
  3  4  1  0
  4  5  1  0
  4  6  2  0
  6  7  1  0
  7  8  1  0
  7  9  1  0
  7 10  1  0
 10 11  1  0
 11 12  1  1
 11 13  1  0
 13 14  1  0
 13 15  1  0
 13 16  1  0
 16 17  1  1
 16 18  1  0
 18 19  1  0
 18 20  1  0
 10 21  1  0
 21 22  1  0
 21 23  1  0
 21 24  1  0
 24 25  1  0
 24 26  1  0
  6 27  1  0
 27 28  1  0
 27 29  2  0
 29 30  1  0
 29  2  1  0
 24 10  1  0
 16 11  1  0
M  END
>  <plip>  (1) 
-0.10714285714285714

>  <filename>  (1) 
[H][c]1[n][c]([H])[c]([C]([H])([H])[C]2([C@@]3([H])[C]([H])([H])[C@@]3([H])[N]([H])[H])[C]([H])([H])[C]2([H])[H])[c]([H])[c]1[H]

$$$$
