
     RDKit          3D

 38 40  0  0  0  0  0  0  0  0999 V2000
    4.9459    1.7900   16.9877 H   0  0  0  0  0  0  0  0  0  0  0  0
    5.4070    1.2886   17.8351 C   0  0  0  0  0  0  0  0  0  0  0  0
    6.5687    0.6634   17.5865 N   0  0  0  0  0  0  0  0  0  0  0  0
    7.1661    0.0395   18.6035 C   0  0  0  0  0  0  0  0  0  0  0  0
    8.1134   -0.4497   18.3750 H   0  0  0  0  0  0  0  0  0  0  0  0
    6.6529    0.0192   19.9094 C   0  0  0  0  0  0  0  0  0  0  0  0
    7.4039   -0.6531   20.9647 C   0  0  0  0  0  0  0  0  0  0  0  0
    7.9623   -1.8809   20.7519 N   0  0  0  0  0  0  0  0  0  0  0  0
    8.3995   -2.2836   21.9135 C   0  0  0  0  0  0  0  0  0  0  0  0
    8.8901   -3.2275   22.1232 H   0  0  0  0  0  0  0  0  0  0  0  0
    8.1797   -1.3665   22.8828 N   0  0  0  0  0  0  0  0  0  0  0  0
    8.4027   -1.4693   23.8652 H   0  0  0  0  0  0  0  0  0  0  0  0
    7.5666   -0.2750   22.2841 C   0  0  0  0  0  0  0  0  0  0  0  0
    7.1430    0.9561   22.9937 C   0  0  0  0  0  0  0  0  0  0  0  0
    6.8292    0.9624   24.1810 O   0  0  0  0  0  0  0  0  0  0  0  0
    7.1327    2.0822   22.2378 N   0  0  0  0  0  0  0  0  0  0  0  0
    7.5362    2.0023   21.3190 H   0  0  0  0  0  0  0  0  0  0  0  0
    6.7027    3.3620   22.7927 C   0  0  0  0  0  0  0  0  0  0  0  0
    6.5139    4.0507   21.9605 H   0  0  0  0  0  0  0  0  0  0  0  0
    5.7529    3.1999   23.3227 H   0  0  0  0  0  0  0  0  0  0  0  0
    7.7136    3.9790   23.7849 C   0  0  0  0  0  0  0  0  0  0  0  0
    7.8998    3.2407   24.5770 H   0  0  0  0  0  0  0  0  0  0  0  0
    8.6676    4.1387   23.2650 H   0  0  0  0  0  0  0  0  0  0  0  0
    7.2060    5.2824   24.3724 C   0  0  0  0  0  0  0  0  0  0  0  0
    6.4069    5.2868   25.5275 C   0  0  0  0  0  0  0  0  0  0  0  0
    6.1844    4.3379   26.0129 H   0  0  0  0  0  0  0  0  0  0  0  0
    5.8972    6.4836   26.0446 C   0  0  0  0  0  0  0  0  0  0  0  0
    5.2840    6.4645   26.9429 H   0  0  0  0  0  0  0  0  0  0  0  0
    6.1745    7.6968   25.4026 C   0  0  0  0  0  0  0  0  0  0  0  0
    5.7824    8.6287   25.8041 H   0  0  0  0  0  0  0  0  0  0  0  0
    6.9559    7.7054   24.2404 C   0  0  0  0  0  0  0  0  0  0  0  0
    7.1693    8.6413   23.7285 H   0  0  0  0  0  0  0  0  0  0  0  0
    7.4612    6.5039   23.7296 C   0  0  0  0  0  0  0  0  0  0  0  0
    8.0567    6.5009   22.8188 H   0  0  0  0  0  0  0  0  0  0  0  0
    5.4231    0.6504   20.1509 C   0  0  0  0  0  0  0  0  0  0  0  0
    4.9816    0.6493   21.1488 H   0  0  0  0  0  0  0  0  0  0  0  0
    4.7995    1.3049   19.0925 C   0  0  0  0  0  0  0  0  0  0  0  0
    3.8710    1.8392   19.2393 H   0  0  0  0  0  0  0  0  0  0  0  0
  1  2  1  0
  2  3  2  0
  3  4  1  0
  4  5  1  0
  4  6  2  0
  6  7  1  0
  7  8  1  0
  8  9  2  0
  9 10  1  0
  9 11  1  0
 11 12  1  0
 11 13  1  0
 13 14  1  0
 14 15  2  0
 14 16  1  0
 16 17  1  0
 16 18  1  0
 18 19  1  0
 18 20  1  0
 18 21  1  0
 21 22  1  0
 21 23  1  0
 21 24  1  0
 24 25  2  0
 25 26  1  0
 25 27  1  0
 27 28  1  0
 27 29  2  0
 29 30  1  0
 29 31  1  0
 31 32  1  0
 31 33  2  0
 33 34  1  0
  6 35  1  0
 35 36  1  0
 35 37  2  0
 37 38  1  0
 37  2  1  0
 13  7  2  0
 33 24  1  0
M  END
>  <cnnaffinity>  (1) 
-5.0137

>  <filename>  (1) 
[H]c1nc([H])c(-c2nc([H])n([H])c2C(=O)N([H])C([H])([H])C([H])([H])c2c([H])c([H])c([H])c([H])c2[H])c([H])c1[H]

$$$$
