
     RDKit          3D

 46 50  0  0  0  0  0  0  0  0999 V2000
    4.8068    1.2873   18.9263 C   0  0  0  0  0  0  0  0  0  0  0  0
    5.3987    1.3003   17.6597 C   0  0  0  0  0  0  0  0  0  0  0  0
    6.5074    0.6089   17.3532 N   0  0  0  0  0  0  0  0  0  0  0  0
    7.0853   -0.0900   18.3392 C   0  0  0  0  0  0  0  0  0  0  0  0
    6.6044   -0.1371   19.6595 C   0  0  0  0  0  0  0  0  0  0  0  0
    7.4007   -0.7439   20.8071 C   0  0  0  0  0  0  0  0  0  0  0  0
    8.1516    0.3155   21.5620 C   0  0  0  0  0  0  0  0  0  0  0  0
    7.5857    1.0893   22.4643 N   0  0  0  0  0  0  0  0  0  0  0  0
    8.5924    1.9191   22.8348 N   0  0  0  0  0  0  0  0  0  0  0  0
    8.4144    2.9226   23.8846 C   0  0  0  0  0  0  0  0  0  0  0  0
    9.3720    2.7743   25.0884 C   0  0  0  0  0  0  0  0  0  0  0  0
    8.5033    3.2311   26.2776 C   0  0  0  0  0  0  0  0  0  0  0  0
    7.2881    3.7174   25.7263 O   0  0  0  0  0  0  0  0  0  0  0  0
    7.0419    2.9464   24.5639 C   0  0  0  0  0  0  0  0  0  0  0  0
    6.2634    3.4328   23.9706 H   0  0  0  0  0  0  0  0  0  0  0  0
    6.7153    1.9257   24.8097 H   0  0  0  0  0  0  0  0  0  0  0  0
    8.3063    2.3767   26.9466 H   0  0  0  0  0  0  0  0  0  0  0  0
    8.9348    4.0452   26.8649 H   0  0  0  0  0  0  0  0  0  0  0  0
   10.2768    3.3675   24.9321 H   0  0  0  0  0  0  0  0  0  0  0  0
    9.6810    1.7343   25.2229 H   0  0  0  0  0  0  0  0  0  0  0  0
    8.5565    3.9197   23.4593 H   0  0  0  0  0  0  0  0  0  0  0  0
    9.7277    1.5782   22.1612 C   0  0  0  0  0  0  0  0  0  0  0  0
   11.0430    2.2192   22.3679 C   0  0  0  0  0  0  0  0  0  0  0  0
   11.1743    3.6035   22.4960 C   0  0  0  0  0  0  0  0  0  0  0  0
   12.4198    4.2158   22.7783 C   0  0  0  0  0  0  0  0  0  0  0  0
   13.5637    3.4595   22.8585 C   0  0  0  0  0  0  0  0  0  0  0  0
   13.4841    2.0452   22.6731 C   0  0  0  0  0  0  0  0  0  0  0  0
   14.6491    1.2237   22.6301 C   0  0  0  0  0  0  0  0  0  0  0  0
   14.6571   -0.0804   22.4884 N   0  0  0  0  0  0  0  0  0  0  0  0
   13.4553   -0.6954   22.3662 C   0  0  0  0  0  0  0  0  0  0  0  0
   12.2577   -0.0270   22.3411 C   0  0  0  0  0  0  0  0  0  0  0  0
   12.2266    1.4012   22.4518 C   0  0  0  0  0  0  0  0  0  0  0  0
   11.3422   -0.5822   22.2186 H   0  0  0  0  0  0  0  0  0  0  0  0
   13.4864   -1.7790   22.2812 H   0  0  0  0  0  0  0  0  0  0  0  0
   15.6204    1.7117   22.6381 H   0  0  0  0  0  0  0  0  0  0  0  0
   14.5296    3.9258   23.0419 H   0  0  0  0  0  0  0  0  0  0  0  0
   12.4536    5.2907   22.9398 H   0  0  0  0  0  0  0  0  0  0  0  0
   10.3174    4.2613   22.3864 H   0  0  0  0  0  0  0  0  0  0  0  0
    9.4574    0.5741   21.3305 N   0  0  0  0  0  0  0  0  0  0  0  0
    6.7278   -1.2465   21.5129 H   0  0  0  0  0  0  0  0  0  0  0  0
    8.1333   -1.4777   20.4562 H   0  0  0  0  0  0  0  0  0  0  0  0
    5.4189    0.5535   19.9414 C   0  0  0  0  0  0  0  0  0  0  0  0
    5.0115    0.5379   20.9547 H   0  0  0  0  0  0  0  0  0  0  0  0
    7.9920   -0.6351   18.0707 H   0  0  0  0  0  0  0  0  0  0  0  0
    4.9605    1.8938   16.8600 H   0  0  0  0  0  0  0  0  0  0  0  0
    3.9101    1.8664   19.1132 H   0  0  0  0  0  0  0  0  0  0  0  0
  1  2  2  0
  2  3  1  0
  3  4  2  0
  4  5  1  0
  5  6  1  0
  6  7  1  0
  7  8  2  0
  8  9  1  0
  9 10  1  0
 10 11  1  0
 11 12  1  0
 12 13  1  0
 13 14  1  0
 14 15  1  0
 14 16  1  0
 12 17  1  0
 12 18  1  0
 11 19  1  0
 11 20  1  0
 10 21  1  0
  9 22  1  0
 22 23  1  0
 23 24  2  0
 24 25  1  0
 25 26  2  0
 26 27  1  0
 27 28  2  0
 28 29  1  0
 29 30  2  0
 30 31  1  0
 31 32  2  0
 31 33  1  0
 30 34  1  0
 28 35  1  0
 26 36  1  0
 25 37  1  0
 24 38  1  0
 22 39  2  0
  6 40  1  0
  6 41  1  0
  5 42  2  0
 42 43  1  0
  4 44  1  0
  2 45  1  0
  1 46  1  0
 42  1  1  0
 39  7  1  0
 14 10  1  0
 32 23  1  0
 32 27  1  0
M  END
>  <cnnaffinity>  (1) 
-6.38902

>  <filename>  (1) 
[H]c1nc([H])c(C([H])([H])c2nc(-c3c([H])c([H])c([H])c4c([H])nc([H])c([H])c34)n(C3([H])C([H])([H])OC([H])([H])C3([H])[H])n2)c([H])c1[H]

$$$$
