
     RDKit          3D

 48 52  0  0  0  0  0  0  0  0999 V2000
    8.1244    6.6321   22.5729 F   0  0  0  0  0  0  0  0  0  0  0  0
    8.4066    5.5247   23.2757 C   0  0  0  0  0  0  0  0  0  0  0  0
    8.4704    4.2891   22.6681 C   0  0  0  0  0  0  0  0  0  0  0  0
    8.8266    3.1091   23.4129 C   0  0  0  0  0  0  0  0  0  0  0  0
    8.8702    1.7919   22.6804 C   0  0  0  0  0  0  0  0  0  0  0  0
    7.7873    1.1075   22.3539 N   0  0  0  0  0  0  0  0  0  0  0  0
    8.2645    0.1062   21.5708 C   0  0  0  0  0  0  0  0  0  0  0  0
    7.3888   -0.8506   20.8111 C   0  0  0  0  0  0  0  0  0  0  0  0
    6.6213   -0.1810   19.6706 C   0  0  0  0  0  0  0  0  0  0  0  0
    5.4597    0.5472   19.9633 C   0  0  0  0  0  0  0  0  0  0  0  0
    4.8440    1.2824   18.9499 C   0  0  0  0  0  0  0  0  0  0  0  0
    5.4114    1.2678   17.6744 C   0  0  0  0  0  0  0  0  0  0  0  0
    6.5109    0.5631   17.3612 N   0  0  0  0  0  0  0  0  0  0  0  0
    7.0908   -0.1382   18.3442 C   0  0  0  0  0  0  0  0  0  0  0  0
    8.0004   -0.6751   18.0660 H   0  0  0  0  0  0  0  0  0  0  0  0
    4.9655    1.8482   16.8689 H   0  0  0  0  0  0  0  0  0  0  0  0
    3.9565    1.8753   19.1445 H   0  0  0  0  0  0  0  0  0  0  0  0
    5.0880    0.5681   20.9893 H   0  0  0  0  0  0  0  0  0  0  0  0
    6.6911   -1.2865   21.5333 H   0  0  0  0  0  0  0  0  0  0  0  0
    8.0296   -1.6555   20.4402 H   0  0  0  0  0  0  0  0  0  0  0  0
    9.5701    0.1010   21.4332 N   0  0  0  0  0  0  0  0  0  0  0  0
    9.9655    1.1942   22.1311 N   0  0  0  0  0  0  0  0  0  0  0  0
   11.3844    1.5748   22.0166 C   0  0  0  0  0  0  0  0  0  0  0  0
   11.5071    3.0830   21.7013 C   0  0  0  0  0  0  0  0  0  0  0  0
   12.8461    3.7858   21.9946 C   0  0  0  0  0  0  0  0  0  0  0  0
   13.6777    3.1330   23.1140 C   0  0  0  0  0  0  0  0  0  0  0  0
   12.8827    2.1787   24.0084 C   0  0  0  0  0  0  0  0  0  0  0  0
   12.2219    1.0625   23.2117 C   0  0  0  0  0  0  0  0  0  0  0  0
   13.0194    0.4145   22.8198 H   0  0  0  0  0  0  0  0  0  0  0  0
   11.6204    0.4373   23.8834 H   0  0  0  0  0  0  0  0  0  0  0  0
   13.5587    1.6861   24.7061 H   0  0  0  0  0  0  0  0  0  0  0  0
   12.1344    2.7331   24.5955 H   0  0  0  0  0  0  0  0  0  0  0  0
   14.4879    2.5493   22.6651 H   0  0  0  0  0  0  0  0  0  0  0  0
   14.1378    3.9147   23.7313 H   0  0  0  0  0  0  0  0  0  0  0  0
   12.6190    4.8170   22.2846 H   0  0  0  0  0  0  0  0  0  0  0  0
   13.4324    3.8725   21.0767 H   0  0  0  0  0  0  0  0  0  0  0  0
   11.2468    3.1783   20.6453 H   0  0  0  0  0  0  0  0  0  0  0  0
   10.7477    3.6222   22.2616 H   0  0  0  0  0  0  0  0  0  0  0  0
   11.7114    1.0213   21.1358 H   0  0  0  0  0  0  0  0  0  0  0  0
    9.1279    3.2063   24.7700 C   0  0  0  0  0  0  0  0  0  0  0  0
    9.0706    4.4849   25.3857 C   0  0  0  0  0  0  0  0  0  0  0  0
    8.6825    5.6139   24.6529 C   0  0  0  0  0  0  0  0  0  0  0  0
    8.7009    6.6182   25.5656 N   0  0  0  0  0  0  0  0  0  0  0  0
    9.0797    6.1538   26.7736 N   0  0  0  0  0  0  0  0  0  0  0  0
    9.3051    4.8938   26.6855 N   0  0  0  0  0  0  0  0  0  0  0  0
    8.3481    7.5599   25.4745 H   0  0  0  0  0  0  0  0  0  0  0  0
    9.3754    2.3339   25.3641 H   0  0  0  0  0  0  0  0  0  0  0  0
    8.2926    4.2347   21.5970 H   0  0  0  0  0  0  0  0  0  0  0  0
  1  2  1  0
  2  3  2  0
  3  4  1  0
  4  5  1  0
  5  6  2  0
  6  7  1  0
  7  8  1  0
  8  9  1  0
  9 10  2  0
 10 11  1  0
 11 12  2  0
 12 13  1  0
 13 14  2  0
 14 15  1  0
 12 16  1  0
 11 17  1  0
 10 18  1  0
  8 19  1  0
  8 20  1  0
  7 21  2  0
 21 22  1  0
 22 23  1  0
 23 24  1  0
 24 25  1  0
 25 26  1  0
 26 27  1  0
 27 28  1  0
 28 29  1  0
 28 30  1  0
 27 31  1  0
 27 32  1  0
 26 33  1  0
 26 34  1  0
 25 35  1  0
 25 36  1  0
 24 37  1  0
 24 38  1  0
 23 39  1  0
  4 40  2  0
 40 41  1  0
 41 42  2  0
 42 43  1  0
 43 44  1  0
 44 45  2  0
 43 46  1  0
 40 47  1  0
  3 48  1  0
 42  2  1  0
 22  5  1  0
 28 23  1  0
 45 41  1  0
 14  9  1  0
M  END
>  <cnnaffinity>  (1) 
-6.21486

>  <filename>  (1) 
[H]c1nc([H])c(C([H])([H])c2nc(-c3c([H])c(F)c4c(nnn4[H])c3[H])n(C3([H])C([H])([H])C([H])([H])C([H])([H])C([H])([H])C3([H])[H])n2)c([H])c1[H]

$$$$
