
     RDKit          3D

 36 39  0  0  0  0  0  0  0  0999 V2000
    5.0104    1.7783   16.8737 H   0  0  0  0  0  0  0  0  0  0  0  0
    5.4872    1.3617   17.7594 C   0  0  0  0  0  0  0  0  0  0  0  0
    6.7034    0.8263   17.5899 N   0  0  0  0  0  0  0  0  0  0  0  0
    7.3018    0.3016   18.6684 C   0  0  0  0  0  0  0  0  0  0  0  0
    8.2913   -0.1139   18.4745 H   0  0  0  0  0  0  0  0  0  0  0  0
    6.7331    0.2343   19.9475 C   0  0  0  0  0  0  0  0  0  0  0  0
    7.5211   -0.4750   21.0453 C   0  0  0  0  0  0  0  0  0  0  0  0
    8.7412    0.2122   21.4115 N   0  0  0  0  0  0  0  0  0  0  0  0
    9.5702   -0.0398   20.8961 H   0  0  0  0  0  0  0  0  0  0  0  0
    8.7747    1.4778   21.9892 C   0  0  0  0  0  0  0  0  0  0  0  0
    7.5738    2.0858   22.4577 C   0  0  0  0  0  0  0  0  0  0  0  0
    6.6509    1.5380   22.3341 H   0  0  0  0  0  0  0  0  0  0  0  0
    7.5513    3.3349   23.0494 C   0  0  0  0  0  0  0  0  0  0  0  0
    6.6228    3.7753   23.3932 H   0  0  0  0  0  0  0  0  0  0  0  0
    8.7798    4.0194   23.1579 C   0  0  0  0  0  0  0  0  0  0  0  0
   10.0061    3.4217   22.7778 C   0  0  0  0  0  0  0  0  0  0  0  0
   10.9784    4.4194   23.1223 C   0  0  0  0  0  0  0  0  0  0  0  0
   12.0573    4.3714   23.0422 H   0  0  0  0  0  0  0  0  0  0  0  0
   10.4178    5.5011   23.6308 N   0  0  0  0  0  0  0  0  0  0  0  0
    9.0890    5.2554   23.6368 N   0  0  0  0  0  0  0  0  0  0  0  0
    8.4463    5.9729   23.9363 H   0  0  0  0  0  0  0  0  0  0  0  0
    9.9964    2.1257   22.1784 C   0  0  0  0  0  0  0  0  0  0  0  0
   10.9129    1.6070   21.9136 H   0  0  0  0  0  0  0  0  0  0  0  0
    7.8310   -1.9658   20.7671 C   0  0  0  0  0  0  0  0  0  0  0  0
    7.1415   -2.3347   20.0058 H   0  0  0  0  0  0  0  0  0  0  0  0
    8.8678   -2.1751   20.4887 H   0  0  0  0  0  0  0  0  0  0  0  0
    7.3684   -2.3513   22.1911 C   0  0  0  0  0  0  0  0  0  0  0  0
    6.7103   -3.2228   22.2859 H   0  0  0  0  0  0  0  0  0  0  0  0
    8.2073   -2.4727   22.8860 H   0  0  0  0  0  0  0  0  0  0  0  0
    6.7070   -0.9603   22.2802 C   0  0  0  0  0  0  0  0  0  0  0  0
    6.8138   -0.4110   23.2198 H   0  0  0  0  0  0  0  0  0  0  0  0
    5.6683   -0.9903   21.9626 H   0  0  0  0  0  0  0  0  0  0  0  0
    5.4678    0.8301   20.1066 C   0  0  0  0  0  0  0  0  0  0  0  0
    4.9857    0.8778   21.0865 H   0  0  0  0  0  0  0  0  0  0  0  0
    4.8329    1.3883   18.9953 C   0  0  0  0  0  0  0  0  0  0  0  0
    3.8594    1.8557   19.0754 H   0  0  0  0  0  0  0  0  0  0  0  0
  1  2  1  0
  2  3  2  0
  3  4  1  0
  4  5  1  0
  4  6  2  0
  6  7  1  0
  7  8  1  0
  8  9  1  0
  8 10  1  0
 10 11  2  0
 11 12  1  0
 11 13  1  0
 13 14  1  0
 13 15  2  0
 15 16  1  0
 16 17  1  0
 17 18  1  0
 17 19  2  0
 19 20  1  0
 20 21  1  0
 16 22  2  0
 22 23  1  0
  7 24  1  0
 24 25  1  0
 24 26  1  0
 24 27  1  0
 27 28  1  0
 27 29  1  0
 27 30  1  0
 30 31  1  0
 30 32  1  0
  6 33  1  0
 33 34  1  0
 33 35  2  0
 35 36  1  0
 35  2  1  0
 30  7  1  0
 22 10  1  0
 20 15  1  0
M  END
>  <cnnaffinity>  (1) 
-4.67648

>  <filename>  (1) 
[H]c1nc([H])c(C2(N([H])c3c([H])c([H])c4c(c([H])nn4[H])c3[H])C([H])([H])C([H])([H])C2([H])[H])c([H])c1[H]

$$$$
