
     RDKit          3D

 41 44  0  0  0  0  0  0  0  0999 V2000
    9.7385    0.4111   20.1270 H   0  0  0  0  0  0  0  0  0  0  0  0
    9.4639    0.8985   21.0592 C   0  0  0  0  0  0  0  0  0  0  0  0
    8.3346    0.5708   21.7031 C   0  0  0  0  0  0  0  0  0  0  0  0
    7.4468   -0.5421   21.1574 C   0  0  1  0  0  0  0  0  0  0  0  0
    6.6237    0.0625   19.9714 C   0  0  0  0  0  0  0  0  0  0  0  0
    7.1408    0.0852   18.6576 C   0  0  0  0  0  0  0  0  0  0  0  0
    8.0872   -0.4092   18.4276 H   0  0  0  0  0  0  0  0  0  0  0  0
    6.5671    0.6861   17.6052 N   0  0  0  0  0  0  0  0  0  0  0  0
    5.4050    1.3194   17.8161 C   0  0  0  0  0  0  0  0  0  0  0  0
    4.9547    1.8121   16.9562 H   0  0  0  0  0  0  0  0  0  0  0  0
    4.7804    1.3574   19.0650 C   0  0  0  0  0  0  0  0  0  0  0  0
    3.8358    1.8780   19.1721 H   0  0  0  0  0  0  0  0  0  0  0  0
    5.3970    0.7266   20.1539 C   0  0  0  0  0  0  0  0  0  0  0  0
    4.9123    0.7409   21.1306 H   0  0  0  0  0  0  0  0  0  0  0  0
    8.3680   -1.7630   20.7380 C   0  0  0  0  0  0  0  0  0  0  0  0
    9.4414   -1.5731   20.8796 H   0  0  0  0  0  0  0  0  0  0  0  0
    8.1707   -1.8806   19.6914 H   0  0  0  0  0  0  0  0  0  0  0  0
    7.9579   -2.9617   21.6083 C   0  0  2  0  0  0  0  0  0  0  0  0
    8.7349   -3.7256   21.6795 H   0  0  0  0  0  0  0  0  0  0  0  0
    6.5938   -3.4950   21.1527 C   0  0  0  0  0  0  0  0  0  0  0  0
    6.5812   -3.7635   20.0912 H   0  0  0  0  0  0  0  0  0  0  0  0
    6.3135   -4.3873   21.7234 H   0  0  0  0  0  0  0  0  0  0  0  0
    5.6513   -2.3090   21.4859 C   0  0  0  0  0  0  0  0  0  0  0  0
    4.7786   -2.6327   22.0642 H   0  0  0  0  0  0  0  0  0  0  0  0
    5.2985   -1.8603   20.5592 H   0  0  0  0  0  0  0  0  0  0  0  0
    6.5771   -1.3012   22.2372 C   0  0  1  0  0  0  0  0  0  0  0  0
    6.0716   -0.6274   22.9333 H   0  0  0  0  0  0  0  0  0  0  0  0
    7.5783   -2.2586   22.9162 C   0  0  0  0  0  0  0  0  0  0  0  0
    8.4292   -1.7454   23.3845 H   0  0  0  0  0  0  0  0  0  0  0  0
    7.1104   -2.9250   23.6597 H   0  0  0  0  0  0  0  0  0  0  0  0
    7.9098    1.3342   22.9444 C   0  0  0  0  0  0  0  0  0  0  0  0
    6.8453    1.5827   22.8729 H   0  0  0  0  0  0  0  0  0  0  0  0
    8.0237    0.6840   23.8235 H   0  0  0  0  0  0  0  0  0  0  0  0
    8.7340    2.6180   23.1436 C   0  0  0  0  0  0  0  0  0  0  0  0
    8.3676    3.3947   22.4582 H   0  0  0  0  0  0  0  0  0  0  0  0
    8.6047    3.0056   24.1605 H   0  0  0  0  0  0  0  0  0  0  0  0
   10.1648    2.4243   22.8835 N   0  0  0  0  0  0  0  0  0  0  0  0
   10.4704    1.6514   23.4705 H   0  0  0  0  0  0  0  0  0  0  0  0
   10.3839    1.9990   21.5030 C   0  0  0  0  0  0  0  0  0  0  0  0
   11.4341    1.7137   21.3752 H   0  0  0  0  0  0  0  0  0  0  0  0
   10.2270    2.8418   20.8293 H   0  0  0  0  0  0  0  0  0  0  0  0
  1  2  1  0
  2  3  2  0
  4  3  1  1
  4  5  1  0
  5  6  2  0
  6  7  1  0
  6  8  1  0
  8  9  2  0
  9 10  1  0
  9 11  1  0
 11 12  1  0
 11 13  2  0
 13 14  1  0
  4 15  1  0
 15 16  1  0
 15 17  1  0
 15 18  1  0
 18 19  1  1
 18 20  1  0
 20 21  1  0
 20 22  1  0
 20 23  1  0
 23 24  1  0
 23 25  1  0
 23 26  1  0
 26 27  1  1
 26 28  1  0
 28 29  1  0
 28 30  1  0
  3 31  1  0
 31 32  1  0
 31 33  1  0
 31 34  1  0
 34 35  1  0
 34 36  1  0
 34 37  1  0
 37 38  1  0
 37 39  1  0
 39 40  1  0
 39 41  1  0
 39  2  1  0
 26  4  1  0
 13  5  1  0
 28 18  1  0
M  END
>  <cnnaffinity>  (1) 
-4.62937

>  <filename>  (1) 
[H]C1=C([C@@]2(c3c([H])nc([H])c([H])c3[H])C([H])([H])[C@]3([H])C([H])([H])C([H])([H])[C@@]2([H])C3([H])[H])C([H])([H])C([H])([H])N([H])C1([H])[H]

$$$$
