
     RDKit          3D

 34 35  0  0  0  0  0  0  0  0999 V2000
    4.9476    1.7841   16.7562 H   0  0  0  0  0  0  0  0  0  0  0  0
    5.3082    1.3716   17.6956 C   0  0  0  0  0  0  0  0  0  0  0  0
    6.4902    0.7424   17.6431 N   0  0  0  0  0  0  0  0  0  0  0  0
    6.9577    0.2326   18.7892 C   0  0  0  0  0  0  0  0  0  0  0  0
    7.9162   -0.2731   18.7099 H   0  0  0  0  0  0  0  0  0  0  0  0
    6.3061    0.3070   20.0399 C   0  0  0  0  0  0  0  0  0  0  0  0
    6.9747   -0.2853   21.2868 C   0  0  2  0  0  0  0  0  0  0  0  0
    6.2911   -0.1783   22.1381 H   0  0  0  0  0  0  0  0  0  0  0  0
    8.3487    0.4025   21.5751 C   0  0  0  0  0  0  0  0  0  0  0  0
    8.5474    0.4704   22.6583 H   0  0  0  0  0  0  0  0  0  0  0  0
    8.3975    1.4212   21.1711 H   0  0  0  0  0  0  0  0  0  0  0  0
    9.2990   -0.4705   20.8982 N   0  0  0  0  0  0  0  0  0  0  0  0
   10.3045   -0.3773   20.9445 H   0  0  0  0  0  0  0  0  0  0  0  0
    8.9037   -1.7759   20.9405 C   0  0  0  0  0  0  0  0  0  0  0  0
    9.6739   -2.7011   20.8244 O   0  0  0  0  0  0  0  0  0  0  0  0
    7.3435   -1.7964   21.0983 C   0  0  1  0  0  0  0  0  0  0  0  0
    6.9932   -2.1373   20.1163 H   0  0  0  0  0  0  0  0  0  0  0  0
    6.7456   -2.7151   22.0796 N   0  0  0  0  0  0  0  0  0  0  0  0
    7.0705   -2.7020   23.0345 H   0  0  0  0  0  0  0  0  0  0  0  0
    6.1691   -3.9221   21.7109 C   0  0  0  0  0  0  0  0  0  0  0  0
    5.8387   -4.2076   20.5731 O   0  0  0  0  0  0  0  0  0  0  0  0
    5.9942   -4.7426   22.7865 N   0  0  0  0  0  0  0  0  0  0  0  0
    6.2682   -4.3870   23.6829 H   0  0  0  0  0  0  0  0  0  0  0  0
    5.6753   -6.1486   22.6193 C   0  0  0  0  0  0  0  0  0  0  0  0
    5.2799   -6.5249   23.5684 H   0  0  0  0  0  0  0  0  0  0  0  0
    4.8752   -6.2189   21.8737 H   0  0  0  0  0  0  0  0  0  0  0  0
    6.8658   -6.9892   22.1649 C   0  0  0  0  0  0  0  0  0  0  0  0
    6.5732   -8.0431   22.1142 H   0  0  0  0  0  0  0  0  0  0  0  0
    7.1935   -6.6694   21.1709 H   0  0  0  0  0  0  0  0  0  0  0  0
    7.7169   -6.8999   22.8494 H   0  0  0  0  0  0  0  0  0  0  0  0
    5.0701    0.9743   20.0603 C   0  0  0  0  0  0  0  0  0  0  0  0
    4.5075    1.0874   20.9891 H   0  0  0  0  0  0  0  0  0  0  0  0
    4.5627    1.5095   18.8693 C   0  0  0  0  0  0  0  0  0  0  0  0
    3.6148    2.0384   18.8380 H   0  0  0  0  0  0  0  0  0  0  0  0
  1  2  1  0
  2  3  2  0
  3  4  1  0
  4  5  1  0
  4  6  2  0
  6  7  1  0
  7  8  1  1
  7  9  1  0
  9 10  1  0
  9 11  1  0
  9 12  1  0
 12 13  1  0
 12 14  1  0
 14 15  2  0
 14 16  1  0
 16 17  1  6
 16 18  1  0
 18 19  1  0
 18 20  1  0
 20 21  2  0
 20 22  1  0
 22 23  1  0
 22 24  1  0
 24 25  1  0
 24 26  1  0
 24 27  1  0
 27 28  1  0
 27 29  1  0
 27 30  1  0
  6 31  1  0
 31 32  1  0
 31 33  2  0
 33 34  1  0
 33  2  1  0
 16  7  1  0
M  END
>  <cnnaffinity>  (1) 
-4.62015

>  <filename>  (1) 
[H]c1nc([H])c([C@]2([H])C([H])([H])N([H])C(=O)[C@@]2([H])N([H])C(=O)N([H])C([H])([H])C([H])([H])[H])c([H])c1[H]

$$$$
