
     RDKit          3D

 36 39  0  0  0  0  0  0  0  0999 V2000
   12.2465   -2.5525   22.5176 F   0  0  0  0  0  0  0  0  0  0  0  0
   11.3048   -1.6283   22.2710 C   0  0  0  0  0  0  0  0  0  0  0  0
   11.3212   -0.7393   23.2855 F   0  0  0  0  0  0  0  0  0  0  0  0
   11.6638   -0.9850   21.1614 F   0  0  0  0  0  0  0  0  0  0  0  0
    9.9877   -2.3778   22.1364 C   0  0  0  0  0  0  0  0  0  0  0  0
    8.8031   -1.5550   22.0112 N   0  0  0  0  0  0  0  0  0  0  0  0
    8.5204   -1.0685   20.7797 N   0  0  0  0  0  0  0  0  0  0  0  0
    7.3054   -0.5694   20.9204 C   0  0  0  0  0  0  0  0  0  0  0  0
    6.5770    0.0937   19.8372 C   0  0  0  0  0  0  0  0  0  0  0  0
    5.3441    0.7339   20.0342 C   0  0  0  0  0  0  0  0  0  0  0  0
    4.7575    1.3739   18.9438 C   0  0  0  0  0  0  0  0  0  0  0  0
    5.4083    1.3310   17.7052 C   0  0  0  0  0  0  0  0  0  0  0  0
    6.5634    0.6838   17.4981 N   0  0  0  0  0  0  0  0  0  0  0  0
    7.1328    0.0824   18.5482 C   0  0  0  0  0  0  0  0  0  0  0  0
    8.0679   -0.4394   18.3485 H   0  0  0  0  0  0  0  0  0  0  0  0
    4.9773    1.8382   16.8447 H   0  0  0  0  0  0  0  0  0  0  0  0
    3.8228    1.9136   19.0418 H   0  0  0  0  0  0  0  0  0  0  0  0
    4.8630    0.7217   21.0165 H   0  0  0  0  0  0  0  0  0  0  0  0
    6.7710   -0.7426   22.1507 N   0  0  0  0  0  0  0  0  0  0  0  0
    7.7353   -1.3439   22.8307 C   0  0  0  0  0  0  0  0  0  0  0  0
    7.8009   -1.7320   24.2526 C   0  0  0  0  0  0  0  0  0  0  0  0
    8.8684   -1.4680   25.0904 C   0  0  0  0  0  0  0  0  0  0  0  0
    8.8699   -1.9851   26.4199 C   0  0  0  0  0  0  0  0  0  0  0  0
    7.8117   -2.7086   26.9036 C   0  0  0  0  0  0  0  0  0  0  0  0
    6.6492   -2.8714   26.0995 C   0  0  0  0  0  0  0  0  0  0  0  0
    5.4861   -3.4361   26.3835 N   0  0  0  0  0  0  0  0  0  0  0  0
    4.7986   -3.3676   25.2260 C   0  0  0  0  0  0  0  0  0  0  0  0
    3.1941   -3.9605   25.0755 Cl  0  0  0  0  0  0  0  0  0  0  0  0
    5.5079   -2.7904   24.2111 C   0  0  0  0  0  0  0  0  0  0  0  0
    6.6991   -2.4110   24.7820 N   0  0  0  0  0  0  0  0  0  0  0  0
    5.3033   -2.6289   23.1697 H   0  0  0  0  0  0  0  0  0  0  0  0
    7.8128   -3.1955   27.8633 H   0  0  0  0  0  0  0  0  0  0  0  0
    9.7257   -1.8016   27.0663 H   0  0  0  0  0  0  0  0  0  0  0  0
    9.7062   -0.8655   24.7583 H   0  0  0  0  0  0  0  0  0  0  0  0
   10.0733   -2.9379   21.2071 H   0  0  0  0  0  0  0  0  0  0  0  0
    9.9015   -3.0767   22.9675 H   0  0  0  0  0  0  0  0  0  0  0  0
  1  2  1  0
  2  3  1  0
  2  4  1  0
  2  5  1  0
  5  6  1  0
  6  7  1  0
  7  8  2  0
  8  9  1  0
  9 10  2  0
 10 11  1  0
 11 12  2  0
 12 13  1  0
 13 14  2  0
 14 15  1  0
 12 16  1  0
 11 17  1  0
 10 18  1  0
  8 19  1  0
 19 20  2  0
 20 21  1  0
 21 22  2  0
 22 23  1  0
 23 24  2  0
 24 25  1  0
 25 26  2  0
 26 27  1  0
 27 28  1  0
 27 29  2  0
 29 30  1  0
 29 31  1  0
 24 32  1  0
 23 33  1  0
 22 34  1  0
  5 35  1  0
  5 36  1  0
 20  6  1  0
 30 21  1  0
 14  9  1  0
 30 25  1  0
M  END
>  <cnnaffinity>  (1) 
-5.93265

>  <filename>  (1) 
[H]c1nc([H])c(-c2nc(-c3c([H])c([H])c([H])c4nc(Cl)c([H])n34)n(C([H])([H])C(F)(F)F)n2)c([H])c1[H]

$$$$
