
     RDKit          3D

 43 45  0  0  0  0  0  0  0  0999 V2000
    6.8644   -4.1385   23.5494 C   0  0  0  0  0  0  0  0  0  0  0  0
    7.7907   -3.4114   24.4257 N   0  0  0  0  0  0  0  0  0  0  0  0
    8.3251   -4.1355   25.4777 C   0  0  0  0  0  0  0  0  0  0  0  0
    8.1665   -5.3403   25.5749 O   0  0  0  0  0  0  0  0  0  0  0  0
    9.1673   -3.3898   26.4998 C   0  0  0  0  0  0  0  0  0  0  0  0
    8.8734   -1.8957   26.6417 C   0  0  0  0  0  0  0  0  0  0  0  0
    8.7925   -1.2587   25.2551 C   0  0  0  0  0  0  0  0  0  0  0  0
    7.7585   -1.9250   24.3235 C   0  0  0  0  0  0  0  0  0  0  0  0
    7.8386   -1.4031   22.8785 C   0  0  0  0  0  0  0  0  0  0  0  0
    6.9169   -0.6492   22.2931 N   0  0  0  0  0  0  0  0  0  0  0  0
    7.3790   -0.5003   21.0299 C   0  0  0  0  0  0  0  0  0  0  0  0
    6.6510    0.1376   19.9405 C   0  0  0  0  0  0  0  0  0  0  0  0
    5.4030    0.7610   20.0936 C   0  0  0  0  0  0  0  0  0  0  0  0
    4.8314    1.3420   18.9646 C   0  0  0  0  0  0  0  0  0  0  0  0
    5.5047    1.2625   17.7397 C   0  0  0  0  0  0  0  0  0  0  0  0
    6.6796    0.6342   17.5805 N   0  0  0  0  0  0  0  0  0  0  0  0
    7.2312    0.0857   18.6634 C   0  0  0  0  0  0  0  0  0  0  0  0
    8.1798   -0.4295   18.5094 H   0  0  0  0  0  0  0  0  0  0  0  0
    5.0809    1.7207   16.8492 H   0  0  0  0  0  0  0  0  0  0  0  0
    3.8874    1.8717   19.0220 H   0  0  0  0  0  0  0  0  0  0  0  0
    4.9050    0.7882   21.0657 H   0  0  0  0  0  0  0  0  0  0  0  0
    8.5369   -1.0922   20.8132 N   0  0  0  0  0  0  0  0  0  0  0  0
    8.8363   -1.6713   21.9938 N   0  0  0  0  0  0  0  0  0  0  0  0
    9.9758   -2.5827   22.0056 C   0  0  0  0  0  0  0  0  0  0  0  0
   11.2733   -2.0309   22.6024 C   0  0  0  0  0  0  0  0  0  0  0  0
   12.0941   -1.0975   21.7346 C   0  0  0  0  0  0  0  0  0  0  0  0
   12.7729   -1.7551   20.7740 F   0  0  0  0  0  0  0  0  0  0  0  0
   13.0171   -0.4660   22.4926 F   0  0  0  0  0  0  0  0  0  0  0  0
   11.3416   -0.1636   21.1386 F   0  0  0  0  0  0  0  0  0  0  0  0
   11.0605   -1.4672   23.5055 H   0  0  0  0  0  0  0  0  0  0  0  0
   11.9235   -2.8674   22.8735 H   0  0  0  0  0  0  0  0  0  0  0  0
    9.6713   -3.4909   22.5329 H   0  0  0  0  0  0  0  0  0  0  0  0
   10.1266   -2.8295   20.9546 H   0  0  0  0  0  0  0  0  0  0  0  0
    6.7593   -1.6000   24.6444 H   0  0  0  0  0  0  0  0  0  0  0  0
    8.5414   -0.1975   25.3296 H   0  0  0  0  0  0  0  0  0  0  0  0
    9.7836   -1.3113   24.8086 H   0  0  0  0  0  0  0  0  0  0  0  0
    7.9376   -1.7303   27.1903 H   0  0  0  0  0  0  0  0  0  0  0  0
    9.6690   -1.4150   27.2296 H   0  0  0  0  0  0  0  0  0  0  0  0
   10.1956   -3.5629   26.1658 H   0  0  0  0  0  0  0  0  0  0  0  0
    9.0544   -3.9380   27.4373 H   0  0  0  0  0  0  0  0  0  0  0  0
    7.3982   -4.8767   22.9424 H   0  0  0  0  0  0  0  0  0  0  0  0
    6.3547   -3.4400   22.8847 H   0  0  0  0  0  0  0  0  0  0  0  0
    6.1062   -4.6629   24.1353 H   0  0  0  0  0  0  0  0  0  0  0  0
  1  2  1  0
  2  3  1  0
  3  4  2  0
  3  5  1  0
  5  6  1  0
  6  7  1  0
  7  8  1  0
  8  9  1  0
  9 10  2  0
 10 11  1  0
 11 12  1  0
 12 13  2  0
 13 14  1  0
 14 15  2  0
 15 16  1  0
 16 17  2  0
 17 18  1  0
 15 19  1  0
 14 20  1  0
 13 21  1  0
 11 22  2  0
 22 23  1  0
 23 24  1  0
 24 25  1  0
 25 26  1  0
 26 27  1  0
 26 28  1  0
 26 29  1  0
 25 30  1  0
 25 31  1  0
 24 32  1  0
 24 33  1  0
  8 34  1  0
  7 35  1  0
  7 36  1  0
  6 37  1  0
  6 38  1  0
  5 39  1  0
  5 40  1  0
  1 41  1  0
  1 42  1  0
  1 43  1  0
  8  2  1  0
 23  9  1  0
 17 12  1  0
M  END
>  <cnnaffinity>  (1) 
-6.28633

>  <filename>  (1) 
[H]c1nc([H])c(-c2nc(C3([H])N(C([H])([H])[H])C(=O)C([H])([H])C([H])([H])C3([H])[H])n(C([H])([H])C([H])([H])C(F)(F)F)n2)c([H])c1[H]

$$$$
