
     RDKit          3D

 33 36  0  0  0  0  0  0  0  0999 V2000
    5.0142    1.7739   16.9227 H   0  0  0  0  0  0  0  0  0  0  0  0
    5.4684    1.2879   17.7837 C   0  0  0  0  0  0  0  0  0  0  0  0
    6.6309    0.6578   17.5571 N   0  0  0  0  0  0  0  0  0  0  0  0
    7.2168    0.0577   18.5947 C   0  0  0  0  0  0  0  0  0  0  0  0
    8.1510   -0.4670   18.3985 H   0  0  0  0  0  0  0  0  0  0  0  0
    6.6872    0.0658   19.8907 C   0  0  0  0  0  0  0  0  0  0  0  0
    7.4320   -0.6246   20.9399 C   0  0  0  0  0  0  0  0  0  0  0  0
    8.5755   -1.3418   20.7494 N   0  0  0  0  0  0  0  0  0  0  0  0
    8.8700   -1.8745   21.8983 N   0  0  0  0  0  0  0  0  0  0  0  0
    7.9344   -1.4838   22.7384 N   0  0  0  0  0  0  0  0  0  0  0  0
    7.8395   -1.9279   24.1191 C   0  0  0  0  0  0  0  0  0  0  0  0
    8.8157   -1.7848   24.5913 H   0  0  0  0  0  0  0  0  0  0  0  0
    7.1080   -1.2478   24.5659 H   0  0  0  0  0  0  0  0  0  0  0  0
    7.4522   -3.3319   24.2702 N   0  0  0  0  0  0  0  0  0  0  0  0
    6.3330   -3.9262   23.6679 C   0  0  0  0  0  0  0  0  0  0  0  0
    5.7155   -3.4614   22.7429 O   0  0  0  0  0  0  0  0  0  0  0  0
    6.0694   -5.1863   24.4181 C   0  0  0  0  0  0  0  0  0  0  0  0
    5.0363   -6.1200   24.2976 C   0  0  0  0  0  0  0  0  0  0  0  0
    4.3457   -6.0917   23.4559 H   0  0  0  0  0  0  0  0  0  0  0  0
    4.8960   -7.0680   25.3144 C   0  0  0  0  0  0  0  0  0  0  0  0
    4.0704   -7.7715   25.2446 H   0  0  0  0  0  0  0  0  0  0  0  0
    5.7888   -7.1089   26.4090 C   0  0  0  0  0  0  0  0  0  0  0  0
    5.6604   -7.8463   27.2062 H   0  0  0  0  0  0  0  0  0  0  0  0
    6.8622   -6.2129   26.4745 C   0  0  0  0  0  0  0  0  0  0  0  0
    7.5730   -6.2388   27.2976 H   0  0  0  0  0  0  0  0  0  0  0  0
    6.9878   -5.2610   25.4612 C   0  0  0  0  0  0  0  0  0  0  0  0
    7.9309   -4.1111   25.3232 C   0  0  0  0  0  0  0  0  0  0  0  0
    8.9148   -3.8450   25.9738 O   0  0  0  0  0  0  0  0  0  0  0  0
    7.0290   -0.6884   22.1982 N   0  0  0  0  0  0  0  0  0  0  0  0
    5.4573    0.7057   20.1195 C   0  0  0  0  0  0  0  0  0  0  0  0
    5.0051    0.7133   21.1147 H   0  0  0  0  0  0  0  0  0  0  0  0
    4.8416    1.3275   19.0355 C   0  0  0  0  0  0  0  0  0  0  0  0
    3.8969    1.8484   19.1441 H   0  0  0  0  0  0  0  0  0  0  0  0
  1  2  1  0
  2  3  2  0
  3  4  1  0
  4  5  1  0
  4  6  2  0
  6  7  1  0
  7  8  1  0
  8  9  2  0
  9 10  1  0
 10 11  1  0
 11 12  1  0
 11 13  1  0
 11 14  1  0
 14 15  1  0
 15 16  2  0
 15 17  1  0
 17 18  2  0
 18 19  1  0
 18 20  1  0
 20 21  1  0
 20 22  2  0
 22 23  1  0
 22 24  1  0
 24 25  1  0
 24 26  2  0
 26 27  1  0
 27 28  2  0
 10 29  1  0
  6 30  1  0
 30 31  1  0
 30 32  2  0
 32 33  1  0
 32  2  1  0
 29  7  2  0
 27 14  1  0
 26 17  1  0
M  END
>  <cnnaffinity>  (1) 
-5.27985

>  <filename>  (1) 
[H]c1nc([H])c(-c2nnn(C([H])([H])N3C(=O)c4c([H])c([H])c([H])c([H])c4C3=O)n2)c([H])c1[H]

$$$$
