
     RDKit          3D

 38 40  0  0  0  0  0  0  0  0999 V2000
    5.8457    7.0256   26.4082 F   0  0  0  0  0  0  0  0  0  0  0  0
    6.9273    6.4084   25.9242 C   0  0  0  0  0  0  0  0  0  0  0  0
    8.1662    6.9824   26.1881 C   0  0  0  0  0  0  0  0  0  0  0  0
    9.2813    6.3211   25.6710 C   0  0  0  0  0  0  0  0  0  0  0  0
    9.0895    5.1663   24.9208 C   0  0  0  0  0  0  0  0  0  0  0  0
    7.7698    4.6942   24.7326 C   0  0  0  0  0  0  0  0  0  0  0  0
    7.5212    3.5689   24.0030 N   0  0  0  0  0  0  0  0  0  0  0  0
    6.2347    2.8661   24.0798 C   0  0  0  0  0  0  0  0  0  0  0  0
    6.4315    1.3521   23.9354 C   0  0  0  0  0  0  0  0  0  0  0  0
    7.1732    1.0103   22.6996 N   0  0  0  0  0  0  0  0  0  0  0  0
    7.3343   -0.2831   22.3222 C   0  0  0  0  0  0  0  0  0  0  0  0
    7.4048   -1.5834   23.3539 S   0  0  0  0  0  0  0  0  0  0  0  0
    7.4920   -0.5247   20.9632 N   0  0  0  0  0  0  0  0  0  0  0  0
    6.7130    0.0595   19.9065 C   0  0  0  0  0  0  0  0  0  0  0  0
    5.4695    0.6643   20.1463 C   0  0  0  0  0  0  0  0  0  0  0  0
    4.8170    1.3016   19.0839 C   0  0  0  0  0  0  0  0  0  0  0  0
    5.4089    1.2909   17.8189 C   0  0  0  0  0  0  0  0  0  0  0  0
    6.5694    0.6662   17.5560 N   0  0  0  0  0  0  0  0  0  0  0  0
    7.1921    0.0631   18.5760 C   0  0  0  0  0  0  0  0  0  0  0  0
    8.1366   -0.4376   18.3543 H   0  0  0  0  0  0  0  0  0  0  0  0
    4.9353    1.7994   16.9844 H   0  0  0  0  0  0  0  0  0  0  0  0
    3.8758    1.8159   19.2360 H   0  0  0  0  0  0  0  0  0  0  0  0
    5.0212    0.6367   21.1402 H   0  0  0  0  0  0  0  0  0  0  0  0
    7.7008   -1.5125   20.8979 H   0  0  0  0  0  0  0  0  0  0  0  0
    7.8759    2.1157   22.0143 C   0  0  0  0  0  0  0  0  0  0  0  0
    8.5014    3.0827   23.0241 C   0  0  0  0  0  0  0  0  0  0  0  0
    8.9325    3.9182   22.4553 H   0  0  0  0  0  0  0  0  0  0  0  0
    9.3286    2.5691   23.5349 H   0  0  0  0  0  0  0  0  0  0  0  0
    7.1746    2.6562   21.3690 H   0  0  0  0  0  0  0  0  0  0  0  0
    8.6658    1.7090   21.3828 H   0  0  0  0  0  0  0  0  0  0  0  0
    6.9553    0.9575   24.8129 H   0  0  0  0  0  0  0  0  0  0  0  0
    5.4481    0.8697   23.9143 H   0  0  0  0  0  0  0  0  0  0  0  0
    5.5622    3.2237   23.2881 H   0  0  0  0  0  0  0  0  0  0  0  0
    5.7443    3.0877   25.0304 H   0  0  0  0  0  0  0  0  0  0  0  0
    6.6976    5.3061   25.2619 N   0  0  0  0  0  0  0  0  0  0  0  0
    9.9129    4.6165   24.4869 H   0  0  0  0  0  0  0  0  0  0  0  0
   10.2850    6.7082   25.8449 H   0  0  0  0  0  0  0  0  0  0  0  0
    8.2071    7.8891   26.7681 H   0  0  0  0  0  0  0  0  0  0  0  0
  1  2  1  0
  2  3  2  0
  3  4  1  0
  4  5  2  0
  5  6  1  0
  6  7  1  0
  7  8  1  0
  8  9  1  0
  9 10  1  0
 10 11  1  0
 11 12  2  0
 11 13  1  0
 13 14  1  0
 14 15  2  0
 15 16  1  0
 16 17  2  0
 17 18  1  0
 18 19  2  0
 19 20  1  0
 17 21  1  0
 16 22  1  0
 15 23  1  0
 13 24  1  0
 10 25  1  0
 25 26  1  0
 26 27  1  0
 26 28  1  0
 25 29  1  0
 25 30  1  0
  9 31  1  0
  9 32  1  0
  8 33  1  0
  8 34  1  0
  6 35  2  0
  5 36  1  0
  4 37  1  0
  3 38  1  0
 35  2  1  0
 26  7  1  0
 19 14  1  0
M  END
>  <cnnaffinity>  (1) 
-5.04918

>  <filename>  (1) 
[H]c1nc([H])c(N([H])C(=S)N2C([H])([H])C([H])([H])N(c3nc(F)c([H])c([H])c3[H])C([H])([H])C2([H])[H])c([H])c1[H]

$$$$
