
     RDKit          3D

 41 43  0  0  0  0  0  0  0  0999 V2000
    5.1356    1.7304   16.6024 H   0  0  0  0  0  0  0  0  0  0  0  0
    5.4990    1.2669   17.5168 C   0  0  0  0  0  0  0  0  0  0  0  0
    6.6365    0.5626   17.4109 N   0  0  0  0  0  0  0  0  0  0  0  0
    7.1295    0.0054   18.5313 C   0  0  0  0  0  0  0  0  0  0  0  0
    8.0513   -0.5658   18.4233 H   0  0  0  0  0  0  0  0  0  0  0  0
    6.5171    0.1157   19.8047 C   0  0  0  0  0  0  0  0  0  0  0  0
    7.0716   -0.4558   20.9717 N   0  0  0  0  0  0  0  0  0  0  0  0
    6.4761   -0.3573   21.7913 H   0  0  0  0  0  0  0  0  0  0  0  0
    8.4774   -0.3975   21.2182 C   0  0  0  0  0  0  0  0  0  0  0  0
    9.3709    0.7030   21.0271 C   0  0  0  0  0  0  0  0  0  0  0  0
    9.1276    1.7030   20.6978 H   0  0  0  0  0  0  0  0  0  0  0  0
   10.6325    0.4000   21.2871 N   0  0  0  0  0  0  0  0  0  0  0  0
   10.5638   -0.8983   21.6710 N   0  0  0  0  0  0  0  0  0  0  0  0
   11.3903   -1.4551   21.8153 H   0  0  0  0  0  0  0  0  0  0  0  0
    9.3126   -1.4116   21.6665 C   0  0  0  0  0  0  0  0  0  0  0  0
    9.0848   -2.7320   22.0774 N   0  0  0  0  0  0  0  0  0  0  0  0
    8.0815   -2.8981   22.0454 H   0  0  0  0  0  0  0  0  0  0  0  0
    9.7498   -3.1094   23.3399 C   0  0  0  0  0  0  0  0  0  0  0  0
   10.8119   -3.2859   23.1172 H   0  0  0  0  0  0  0  0  0  0  0  0
    9.7095   -2.2734   24.0579 H   0  0  0  0  0  0  0  0  0  0  0  0
    9.1701   -4.3634   24.0019 C   0  0  0  0  0  0  0  0  0  0  0  0
    8.1099   -4.1824   24.2796 H   0  0  0  0  0  0  0  0  0  0  0  0
    9.1744   -5.1737   23.2592 H   0  0  0  0  0  0  0  0  0  0  0  0
   10.0021   -4.7643   25.1492 N   0  0  0  0  0  0  0  0  0  0  0  0
    9.6702   -4.1434   26.4493 C   0  0  0  0  0  0  0  0  0  0  0  0
    9.5681   -3.0582   26.3504 H   0  0  0  0  0  0  0  0  0  0  0  0
   10.5064   -4.3488   27.1241 H   0  0  0  0  0  0  0  0  0  0  0  0
    8.4314   -4.7490   27.1385 C   0  0  0  0  0  0  0  0  0  0  0  0
    8.2977   -4.3147   28.1354 H   0  0  0  0  0  0  0  0  0  0  0  0
    7.5235   -4.5392   26.5520 H   0  0  0  0  0  0  0  0  0  0  0  0
    8.5859   -6.1499   27.3350 O   0  0  0  0  0  0  0  0  0  0  0  0
    8.9411   -6.8335   26.1399 C   0  0  0  0  0  0  0  0  0  0  0  0
    8.0643   -6.9034   25.4886 H   0  0  0  0  0  0  0  0  0  0  0  0
    9.2592   -7.8408   26.4242 H   0  0  0  0  0  0  0  0  0  0  0  0
   10.1149   -6.2054   25.3847 C   0  0  0  0  0  0  0  0  0  0  0  0
   11.0148   -6.3779   25.9877 H   0  0  0  0  0  0  0  0  0  0  0  0
   10.2279   -6.7460   24.4386 H   0  0  0  0  0  0  0  0  0  0  0  0
    5.2997    0.8072   19.8769 C   0  0  0  0  0  0  0  0  0  0  0  0
    4.7773    0.8772   20.8330 H   0  0  0  0  0  0  0  0  0  0  0  0
    4.7972    1.4117   18.7190 C   0  0  0  0  0  0  0  0  0  0  0  0
    3.8833    1.9964   18.7416 H   0  0  0  0  0  0  0  0  0  0  0  0
  1  2  1  0
  2  3  2  0
  3  4  1  0
  4  5  1  0
  4  6  2  0
  6  7  1  0
  7  8  1  0
  7  9  1  0
  9 10  1  0
 10 11  1  0
 10 12  2  0
 12 13  1  0
 13 14  1  0
 13 15  1  0
 15 16  1  0
 16 17  1  0
 16 18  1  0
 18 19  1  0
 18 20  1  0
 18 21  1  0
 21 22  1  0
 21 23  1  0
 21 24  1  0
 24 25  1  0
 25 26  1  0
 25 27  1  0
 25 28  1  0
 28 29  1  0
 28 30  1  0
 28 31  1  0
 31 32  1  0
 32 33  1  0
 32 34  1  0
 32 35  1  0
 35 36  1  0
 35 37  1  0
  6 38  1  0
 38 39  1  0
 38 40  2  0
 40 41  1  0
 40  2  1  0
 15  9  2  0
 35 24  1  0
M  END
>  <cnnaffinity>  (1) 
-5.07819

>  <filename>  (1) 
[H]c1nc([H])c(N([H])c2c([H])nn([H])c2N([H])C([H])([H])C([H])([H])N2C([H])([H])C([H])([H])OC([H])([H])C2([H])[H])c([H])c1[H]

$$$$
