
     RDKit          3D

 47 51  0  0  0  0  0  0  0  0999 V2000
    7.9856    2.3047   25.5033 C   0  0  0  0  0  0  0  0  0  0  0  0
    8.5456    2.8946   24.2138 C   0  0  0  0  0  0  0  0  0  0  0  0
    7.7904    4.1538   23.7682 C   0  0  0  0  0  0  0  0  0  0  0  0
    6.4051    4.0475   23.1993 C   0  0  0  0  0  0  0  0  0  0  0  0
    7.5387    4.5223   22.3280 C   0  0  0  0  0  0  0  0  0  0  0  0
    7.5623    5.5719   22.0321 H   0  0  0  0  0  0  0  0  0  0  0  0
    7.8914    3.8353   21.5588 H   0  0  0  0  0  0  0  0  0  0  0  0
    5.6334    4.7486   23.5153 H   0  0  0  0  0  0  0  0  0  0  0  0
    6.0509    3.0350   23.0097 H   0  0  0  0  0  0  0  0  0  0  0  0
    7.9641    4.9881   24.4479 H   0  0  0  0  0  0  0  0  0  0  0  0
    8.6423    1.8660   23.1575 N   0  0  0  0  0  0  0  0  0  0  0  0
    7.6238    1.0104   22.8539 N   0  0  0  0  0  0  0  0  0  0  0  0
    8.0448    0.4322   21.7446 C   0  0  0  0  0  0  0  0  0  0  0  0
    7.2999   -0.6263   20.9853 C   0  0  0  0  0  0  0  0  0  0  0  0
    6.5578   -0.0263   19.8079 C   0  0  0  0  0  0  0  0  0  0  0  0
    5.3566    0.6539   20.0311 C   0  0  0  0  0  0  0  0  0  0  0  0
    4.7603    1.3373   18.9719 C   0  0  0  0  0  0  0  0  0  0  0  0
    5.3943    1.3136   17.7252 C   0  0  0  0  0  0  0  0  0  0  0  0
    6.5305    0.6411   17.4779 N   0  0  0  0  0  0  0  0  0  0  0  0
    7.0860   -0.0137   18.5059 C   0  0  0  0  0  0  0  0  0  0  0  0
    8.0063   -0.5631   18.2931 H   0  0  0  0  0  0  0  0  0  0  0  0
    4.9730    1.8561   16.8832 H   0  0  0  0  0  0  0  0  0  0  0  0
    3.8368    1.8922   19.1043 H   0  0  0  0  0  0  0  0  0  0  0  0
    4.9124    0.6409   21.0291 H   0  0  0  0  0  0  0  0  0  0  0  0
    6.6099   -1.1210   21.6769 H   0  0  0  0  0  0  0  0  0  0  0  0
    8.0350   -1.3627   20.6417 H   0  0  0  0  0  0  0  0  0  0  0  0
    9.2388    0.8821   21.2868 N   0  0  0  0  0  0  0  0  0  0  0  0
    9.6251    1.7219   22.2287 C   0  0  0  0  0  0  0  0  0  0  0  0
   10.9570    2.3347   22.3877 C   0  0  0  0  0  0  0  0  0  0  0  0
   11.1871    3.7088   22.4405 C   0  0  0  0  0  0  0  0  0  0  0  0
   12.5000    4.2151   22.5505 C   0  0  0  0  0  0  0  0  0  0  0  0
   12.6855    5.5419   22.4867 F   0  0  0  0  0  0  0  0  0  0  0  0
   13.5933    3.4011   22.7365 C   0  0  0  0  0  0  0  0  0  0  0  0
   13.3929    1.9980   22.7372 C   0  0  0  0  0  0  0  0  0  0  0  0
   14.4821    1.1688   22.9002 N   0  0  0  0  0  0  0  0  0  0  0  0
   14.2419   -0.1222   22.8149 C   0  0  0  0  0  0  0  0  0  0  0  0
   12.9411   -0.6668   22.5594 C   0  0  0  0  0  0  0  0  0  0  0  0
   11.8760    0.0867   22.4498 N   0  0  0  0  0  0  0  0  0  0  0  0
   12.0682    1.4480   22.5178 C   0  0  0  0  0  0  0  0  0  0  0  0
   12.8206   -1.7426   22.4361 H   0  0  0  0  0  0  0  0  0  0  0  0
   15.0601   -0.8198   22.9553 H   0  0  0  0  0  0  0  0  0  0  0  0
   14.5969    3.7898   22.8429 H   0  0  0  0  0  0  0  0  0  0  0  0
   10.3661    4.4218   22.4031 H   0  0  0  0  0  0  0  0  0  0  0  0
    9.5747    3.1880   24.4236 H   0  0  0  0  0  0  0  0  0  0  0  0
    8.0384    3.0399   26.3139 H   0  0  0  0  0  0  0  0  0  0  0  0
    6.9444    2.0010   25.3712 H   0  0  0  0  0  0  0  0  0  0  0  0
    8.5715    1.4306   25.7981 H   0  0  0  0  0  0  0  0  0  0  0  0
  1  2  1  0
  2  3  1  0
  3  4  1  0
  4  5  1  0
  5  6  1  0
  5  7  1  0
  4  8  1  0
  4  9  1  0
  3 10  1  0
  2 11  1  0
 11 12  1  0
 12 13  2  0
 13 14  1  0
 14 15  1  0
 15 16  2  0
 16 17  1  0
 17 18  2  0
 18 19  1  0
 19 20  2  0
 20 21  1  0
 18 22  1  0
 17 23  1  0
 16 24  1  0
 14 25  1  0
 14 26  1  0
 13 27  1  0
 27 28  2  0
 28 29  1  0
 29 30  2  0
 30 31  1  0
 31 32  1  0
 31 33  2  0
 33 34  1  0
 34 35  2  0
 35 36  1  0
 36 37  2  0
 37 38  1  0
 38 39  2  0
 37 40  1  0
 36 41  1  0
 33 42  1  0
 30 43  1  0
  2 44  1  0
  1 45  1  0
  1 46  1  0
  1 47  1  0
  5  3  1  0
 28 11  1  0
 39 29  1  0
 20 15  1  0
 39 34  1  0
M  END
>  <cnnaffinity>  (1) 
-6.88324

>  <filename>  (1) 
[H]c1nc2c([H])c(F)c([H])c(-c3nc(C([H])([H])c4c([H])nc([H])c([H])c4[H])nn3C([H])(C([H])([H])[H])C3([H])C([H])([H])C3([H])[H])c2nc1[H]

$$$$
