
     RDKit          3D

 46 49  0  0  0  0  0  0  0  0999 V2000
   10.4651    0.7111   23.6686 C   0  0  0  0  0  0  0  0  0  0  0  0
   10.8255   -0.5671   23.7580 C   0  0  0  0  0  0  0  0  0  0  0  0
   11.1126   -1.4242   22.5541 C   0  0  0  0  0  0  0  0  0  0  0  0
   10.0029   -2.4287   22.1797 C   0  0  0  0  0  0  0  0  0  0  0  0
    8.6973   -1.8103   21.9752 N   0  0  0  0  0  0  0  0  0  0  0  0
    8.3929   -1.3414   20.7430 N   0  0  0  0  0  0  0  0  0  0  0  0
    7.3059   -0.6222   20.9525 C   0  0  0  0  0  0  0  0  0  0  0  0
    6.6009    0.0658   19.8810 C   0  0  0  0  0  0  0  0  0  0  0  0
    5.3796    0.7218   20.0899 C   0  0  0  0  0  0  0  0  0  0  0  0
    4.7862    1.3531   19.0006 C   0  0  0  0  0  0  0  0  0  0  0  0
    5.4334    1.3090   17.7590 C   0  0  0  0  0  0  0  0  0  0  0  0
    6.5943    0.6697   17.5493 N   0  0  0  0  0  0  0  0  0  0  0  0
    7.1577    0.0590   18.5948 C   0  0  0  0  0  0  0  0  0  0  0  0
    8.0912   -0.4703   18.4076 H   0  0  0  0  0  0  0  0  0  0  0  0
    4.9988    1.7998   16.8916 H   0  0  0  0  0  0  0  0  0  0  0  0
    3.8461    1.8836   19.1002 H   0  0  0  0  0  0  0  0  0  0  0  0
    4.9215    0.7238   21.0817 H   0  0  0  0  0  0  0  0  0  0  0  0
    6.9066   -0.5737   22.2465 N   0  0  0  0  0  0  0  0  0  0  0  0
    7.7928   -1.3335   22.8616 C   0  0  0  0  0  0  0  0  0  0  0  0
    7.7573   -1.6792   24.3290 C   0  0  0  0  0  0  0  0  0  0  0  0
    6.6440   -2.5848   24.6813 N   0  0  0  0  0  0  0  0  0  0  0  0
    5.4199   -2.0446   25.0571 C   0  0  0  0  0  0  0  0  0  0  0  0
    4.3304   -2.8138   25.2622 C   0  0  0  0  0  0  0  0  0  0  0  0
    4.3904   -4.2397   25.0455 C   0  0  0  0  0  0  0  0  0  0  0  0
    3.2994   -5.1010   25.3363 C   0  0  0  0  0  0  0  0  0  0  0  0
    3.3960   -6.4584   25.0954 C   0  0  0  0  0  0  0  0  0  0  0  0
    4.5615   -6.9920   24.4994 C   0  0  0  0  0  0  0  0  0  0  0  0
    5.6249   -6.1603   24.1948 C   0  0  0  0  0  0  0  0  0  0  0  0
    5.5782   -4.7954   24.5256 C   0  0  0  0  0  0  0  0  0  0  0  0
    6.7846   -3.9468   24.3480 C   0  0  0  0  0  0  0  0  0  0  0  0
    7.8546   -4.3701   23.9260 O   0  0  0  0  0  0  0  0  0  0  0  0
    6.5092   -6.5307   23.6892 H   0  0  0  0  0  0  0  0  0  0  0  0
    4.6181   -8.0516   24.2729 H   0  0  0  0  0  0  0  0  0  0  0  0
    2.5680   -7.1121   25.3606 H   0  0  0  0  0  0  0  0  0  0  0  0
    2.3956   -4.6631   25.7528 H   0  0  0  0  0  0  0  0  0  0  0  0
    3.4035   -2.3608   25.5925 H   0  0  0  0  0  0  0  0  0  0  0  0
    5.3890   -0.9612   25.1701 H   0  0  0  0  0  0  0  0  0  0  0  0
    8.6930   -2.1383   24.6561 H   0  0  0  0  0  0  0  0  0  0  0  0
    7.6485   -0.7510   24.8966 H   0  0  0  0  0  0  0  0  0  0  0  0
   10.2377   -2.8356   21.1964 H   0  0  0  0  0  0  0  0  0  0  0  0
    9.8876   -3.2491   22.8962 H   0  0  0  0  0  0  0  0  0  0  0  0
   11.2771   -0.7752   21.6815 H   0  0  0  0  0  0  0  0  0  0  0  0
   12.0239   -2.0111   22.7116 H   0  0  0  0  0  0  0  0  0  0  0  0
   10.9036   -1.0342   24.7461 H   0  0  0  0  0  0  0  0  0  0  0  0
   10.4154    1.1994   22.6948 H   0  0  0  0  0  0  0  0  0  0  0  0
   10.2032    1.3170   24.5336 H   0  0  0  0  0  0  0  0  0  0  0  0
  1  2  2  3
  2  3  1  0
  3  4  1  0
  4  5  1  0
  5  6  1  0
  6  7  2  0
  7  8  1  0
  8  9  2  0
  9 10  1  0
 10 11  2  0
 11 12  1  0
 12 13  2  0
 13 14  1  0
 11 15  1  0
 10 16  1  0
  9 17  1  0
  7 18  1  0
 18 19  2  0
 19 20  1  0
 20 21  1  0
 21 22  1  0
 22 23  2  0
 23 24  1  0
 24 25  2  0
 25 26  1  0
 26 27  2  0
 27 28  1  0
 28 29  2  0
 29 30  1  0
 30 31  2  0
 28 32  1  0
 27 33  1  0
 26 34  1  0
 25 35  1  0
 23 36  1  0
 22 37  1  0
 20 38  1  0
 20 39  1  0
  4 40  1  0
  4 41  1  0
  3 42  1  0
  3 43  1  0
  2 44  1  0
  1 45  1  0
  1 46  1  0
 19  5  1  0
 30 21  1  0
 13  8  1  0
 29 24  1  0
M  END
>  <cnnaffinity>  (1) 
-6.13734

>  <filename>  (1) 
[H]C([H])=C([H])C([H])([H])C([H])([H])n1nc(-c2c([H])nc([H])c([H])c2[H])nc1C([H])([H])n1c([H])c([H])c2c([H])c([H])c([H])c([H])c2c1=O

$$$$
