
     RDKit          3D

 29 31  0  0  0  0  0  0  0  0999 V2000
    9.1226   -2.6690   23.7255 H   0  0  0  0  0  0  0  0  0  0  0  0
    8.6262   -2.0844   22.9461 C   0  0  0  0  0  0  0  0  0  0  0  0
    8.3139   -2.7263   21.8180 N   0  0  0  0  0  0  0  0  0  0  0  0
    7.6610   -2.0178   20.9008 C   0  0  0  0  0  0  0  0  0  0  0  0
    7.2722   -2.5390   20.0314 H   0  0  0  0  0  0  0  0  0  0  0  0
    7.3826   -0.6596   21.0108 C   0  0  0  0  0  0  0  0  0  0  0  0
    6.6578    0.0307   19.8898 C   0  0  0  0  0  0  0  0  0  0  0  0
    7.1514    0.0703   18.5666 C   0  0  0  0  0  0  0  0  0  0  0  0
    8.1050   -0.4044   18.3302 H   0  0  0  0  0  0  0  0  0  0  0  0
    6.5447    0.6854   17.5459 N   0  0  0  0  0  0  0  0  0  0  0  0
    5.3827    1.3063   17.8100 C   0  0  0  0  0  0  0  0  0  0  0  0
    4.9133    1.8167   16.9685 H   0  0  0  0  0  0  0  0  0  0  0  0
    4.7915    1.3123   19.0768 C   0  0  0  0  0  0  0  0  0  0  0  0
    3.8634    1.8458   19.2275 H   0  0  0  0  0  0  0  0  0  0  0  0
    5.4319    0.6606   20.1319 C   0  0  0  0  0  0  0  0  0  0  0  0
    5.0286    0.6372   21.1450 H   0  0  0  0  0  0  0  0  0  0  0  0
    7.7577   -0.0936   22.2528 C   0  0  0  0  0  0  0  0  0  0  0  0
    7.5259    1.3529   22.5034 C   0  0  0  0  0  0  0  0  0  0  0  0
    8.0784    2.3088   21.6256 C   0  0  0  0  0  0  0  0  0  0  0  0
    8.6376    1.9791   20.7502 H   0  0  0  0  0  0  0  0  0  0  0  0
    7.8817    3.6692   21.8595 C   0  0  0  0  0  0  0  0  0  0  0  0
    8.3459    4.4233   21.2366 H   0  0  0  0  0  0  0  0  0  0  0  0
    7.0757    4.0980   22.9100 C   0  0  0  0  0  0  0  0  0  0  0  0
    6.8965    5.1538   23.0832 H   0  0  0  0  0  0  0  0  0  0  0  0
    6.4865    3.1654   23.7605 C   0  0  0  0  0  0  0  0  0  0  0  0
    5.5253    3.7603   25.0698 Cl  0  0  0  0  0  0  0  0  0  0  0  0
    6.7068    1.7907   23.5636 C   0  0  0  0  0  0  0  0  0  0  0  0
    5.9156    0.6521   24.5981 Cl  0  0  0  0  0  0  0  0  0  0  0  0
    8.3536   -0.8112   23.2178 N   0  0  0  0  0  0  0  0  0  0  0  0
  1  2  1  0
  2  3  2  0
  3  4  1  0
  4  5  1  0
  4  6  2  0
  6  7  1  0
  7  8  2  0
  8  9  1  0
  8 10  1  0
 10 11  2  0
 11 12  1  0
 11 13  1  0
 13 14  1  0
 13 15  2  0
 15 16  1  0
  6 17  1  0
 17 18  1  0
 18 19  2  0
 19 20  1  0
 19 21  1  0
 21 22  1  0
 21 23  2  0
 23 24  1  0
 23 25  1  0
 25 26  1  0
 25 27  2  0
 27 28  1  0
 17 29  2  0
 29  2  1  0
 15  7  1  0
 27 18  1  0
M  END
>  <cnnaffinity>  (1) 
-4.99135

>  <filename>  (1) 
[H]c1nc([H])c(-c2c([H])nc([H])c([H])c2[H])c(-c2c([H])c([H])c([H])c(Cl)c2Cl)n1

$$$$
