
     RDKit          3D

 44 46  0  0  0  0  0  0  0  0999 V2000
    4.9818    1.8088   16.9681 H   0  0  0  0  0  0  0  0  0  0  0  0
    5.4338    1.2992   17.8136 C   0  0  0  0  0  0  0  0  0  0  0  0
    6.5916    0.6668   17.5626 N   0  0  0  0  0  0  0  0  0  0  0  0
    7.1747    0.0335   18.5797 C   0  0  0  0  0  0  0  0  0  0  0  0
    8.1143   -0.4787   18.3682 H   0  0  0  0  0  0  0  0  0  0  0  0
    6.6467    0.0027   19.8752 C   0  0  0  0  0  0  0  0  0  0  0  0
    7.4095   -0.7090   20.8903 C   0  0  0  0  0  0  0  0  0  0  0  0
    8.4271   -1.4951   20.7259 N   0  0  0  0  0  0  0  0  0  0  0  0
    8.7640   -1.9579   21.9900 N   0  0  0  0  0  0  0  0  0  0  0  0
    7.9458   -1.3979   22.8241 C   0  0  0  0  0  0  0  0  0  0  0  0
    7.8473   -1.6414   24.2962 C   0  0  0  0  0  0  0  0  0  0  0  0
    6.8167   -2.5069   24.6994 O   0  0  0  0  0  0  0  0  0  0  0  0
    6.9510   -3.8419   24.2386 C   0  0  0  0  0  0  0  0  0  0  0  0
    7.9942   -4.0683   23.9600 H   0  0  0  0  0  0  0  0  0  0  0  0
    6.6819   -4.4913   25.0783 H   0  0  0  0  0  0  0  0  0  0  0  0
    6.0249   -4.1062   23.0376 C   0  0  0  0  0  0  0  0  0  0  0  0
    6.4197   -3.5697   22.1713 H   0  0  0  0  0  0  0  0  0  0  0  0
    5.0438   -3.6517   23.2333 H   0  0  0  0  0  0  0  0  0  0  0  0
    5.8585   -5.5170   22.6852 N   0  0  0  0  0  0  0  0  0  0  0  0
    7.0764   -6.1391   22.1580 C   0  0  0  0  0  0  0  0  0  0  0  0
    6.8131   -7.1598   21.8590 H   0  0  0  0  0  0  0  0  0  0  0  0
    7.8747   -6.2353   22.9228 H   0  0  0  0  0  0  0  0  0  0  0  0
    7.6086   -5.3935   20.9360 C   0  0  0  0  0  0  0  0  0  0  0  0
    6.8229   -5.3368   20.1730 H   0  0  0  0  0  0  0  0  0  0  0  0
    7.9360   -4.3753   21.1722 H   0  0  0  0  0  0  0  0  0  0  0  0
    8.4828   -5.8973   20.5178 H   0  0  0  0  0  0  0  0  0  0  0  0
    5.2379   -6.2662   23.7748 C   0  0  0  0  0  0  0  0  0  0  0  0
    4.3928   -5.6768   24.1387 H   0  0  0  0  0  0  0  0  0  0  0  0
    5.9078   -6.3820   24.6410 H   0  0  0  0  0  0  0  0  0  0  0  0
    4.6874   -7.6161   23.3764 C   0  0  0  0  0  0  0  0  0  0  0  0
    5.4777   -8.3205   23.1011 H   0  0  0  0  0  0  0  0  0  0  0  0
    4.1389   -8.0576   24.2104 H   0  0  0  0  0  0  0  0  0  0  0  0
    3.9884   -7.4766   22.5500 H   0  0  0  0  0  0  0  0  0  0  0  0
    8.0960   -0.5669   25.3038 C   0  0  0  0  0  0  0  0  0  0  0  0
    7.4307   -0.6083   26.1643 H   0  0  0  0  0  0  0  0  0  0  0  0
    8.3656    0.4325   24.9753 H   0  0  0  0  0  0  0  0  0  0  0  0
    9.0864   -1.6913   25.1471 C   0  0  0  0  0  0  0  0  0  0  0  0
    9.0951   -2.4628   25.9175 H   0  0  0  0  0  0  0  0  0  0  0  0
   10.0479   -1.4918   24.6808 H   0  0  0  0  0  0  0  0  0  0  0  0
    7.0576   -0.5887   22.1916 O   0  0  0  0  0  0  0  0  0  0  0  0
    5.4296    0.6569   20.1308 C   0  0  0  0  0  0  0  0  0  0  0  0
    4.9889    0.6547   21.1290 H   0  0  0  0  0  0  0  0  0  0  0  0
    4.8150    1.3161   19.0707 C   0  0  0  0  0  0  0  0  0  0  0  0
    3.8813    1.8519   19.2022 H   0  0  0  0  0  0  0  0  0  0  0  0
  1  2  1  0
  2  3  2  0
  3  4  1  0
  4  5  1  0
  4  6  2  0
  6  7  1  0
  7  8  2  0
  8  9  1  0
  9 10  2  0
 10 11  1  0
 11 12  1  0
 12 13  1  0
 13 14  1  0
 13 15  1  0
 13 16  1  0
 16 17  1  0
 16 18  1  0
 16 19  1  0
 19 20  1  0
 20 21  1  0
 20 22  1  0
 20 23  1  0
 23 24  1  0
 23 25  1  0
 23 26  1  0
 19 27  1  0
 27 28  1  0
 27 29  1  0
 27 30  1  0
 30 31  1  0
 30 32  1  0
 30 33  1  0
 11 34  1  0
 34 35  1  0
 34 36  1  0
 34 37  1  0
 37 38  1  0
 37 39  1  0
 10 40  1  0
  6 41  1  0
 41 42  1  0
 41 43  2  0
 43 44  1  0
 43  2  1  0
 40  7  1  0
 37 11  1  0
M  END
>  <cnnaffinity>  (1) 
-5.18666

>  <filename>  (1) 
[H]c1nc([H])c(-c2nnc(C3(OC([H])([H])C([H])([H])N(C([H])([H])C([H])([H])[H])C([H])([H])C([H])([H])[H])C([H])([H])C3([H])[H])o2)c([H])c1[H]

$$$$
