
     RDKit          3D

 32 34  0  0  0  0  0  0  0  0999 V2000
    4.9323    1.8148   16.9403 H   0  0  0  0  0  0  0  0  0  0  0  0
    5.4085    1.3134   17.7794 C   0  0  0  0  0  0  0  0  0  0  0  0
    6.5657    0.6849   17.5146 N   0  0  0  0  0  0  0  0  0  0  0  0
    7.1753    0.0650   18.5376 C   0  0  0  0  0  0  0  0  0  0  0  0
    8.1020   -0.4467   18.2939 H   0  0  0  0  0  0  0  0  0  0  0  0
    6.6947    0.0401   19.8755 C   0  0  0  0  0  0  0  0  0  0  0  0
    7.2553   -0.6266   20.9767 N   0  0  0  0  0  0  0  0  0  0  0  0
    8.4779   -0.7027   21.2815 C   0  0  0  0  0  0  0  0  0  0  0  0
    9.5214   -0.0556   20.6507 N   0  0  0  0  0  0  0  0  0  0  0  0
   10.1784    0.1089   21.3932 H   0  0  0  0  0  0  0  0  0  0  0  0
    9.1398    0.8165   20.3083 H   0  0  0  0  0  0  0  0  0  0  0  0
    8.9871   -1.4153   22.3289 N   0  0  0  0  0  0  0  0  0  0  0  0
    9.9250   -1.6774   22.0945 H   0  0  0  0  0  0  0  0  0  0  0  0
    8.2426   -2.2629   23.1774 C   0  0  0  0  0  0  0  0  0  0  0  0
    7.0075   -1.7793   23.6952 C   0  0  0  0  0  0  0  0  0  0  0  0
    6.6798   -0.7901   23.3938 H   0  0  0  0  0  0  0  0  0  0  0  0
    6.2387   -2.5539   24.5491 C   0  0  0  0  0  0  0  0  0  0  0  0
    5.2860   -2.1979   24.9325 H   0  0  0  0  0  0  0  0  0  0  0  0
    6.7118   -3.8304   24.8800 C   0  0  0  0  0  0  0  0  0  0  0  0
    7.9387   -4.3377   24.3854 C   0  0  0  0  0  0  0  0  0  0  0  0
    8.7137   -3.5299   23.5218 C   0  0  0  0  0  0  0  0  0  0  0  0
    9.6585   -3.8970   23.1267 H   0  0  0  0  0  0  0  0  0  0  0  0
    8.0799   -5.6522   24.9496 C   0  0  0  0  0  0  0  0  0  0  0  0
    8.9075   -6.3279   24.7882 H   0  0  0  0  0  0  0  0  0  0  0  0
    6.9854   -5.8863   25.7285 C   0  0  0  0  0  0  0  0  0  0  0  0
    6.7334   -6.7542   26.3258 H   0  0  0  0  0  0  0  0  0  0  0  0
    6.1520   -4.7891   25.6822 N   0  0  0  0  0  0  0  0  0  0  0  0
    5.2835   -4.6660   26.1694 H   0  0  0  0  0  0  0  0  0  0  0  0
    5.4594    0.6813   20.1056 C   0  0  0  0  0  0  0  0  0  0  0  0
    5.0457    0.6613   21.1165 H   0  0  0  0  0  0  0  0  0  0  0  0
    4.8153    1.3315   19.0512 C   0  0  0  0  0  0  0  0  0  0  0  0
    3.8733    1.8527   19.2055 H   0  0  0  0  0  0  0  0  0  0  0  0
  1  2  1  0
  2  3  2  0
  3  4  1  0
  4  5  1  0
  4  6  2  0
  6  7  1  0
  7  8  2  3
  8  9  1  0
  9 10  1  0
  9 11  1  0
  8 12  1  0
 12 13  1  0
 12 14  1  0
 14 15  2  0
 15 16  1  0
 15 17  1  0
 17 18  1  0
 17 19  2  0
 19 20  1  0
 20 21  2  0
 21 22  1  0
 20 23  1  0
 23 24  1  0
 23 25  2  0
 25 26  1  0
 25 27  1  0
 27 28  1  0
  6 29  1  0
 29 30  1  0
 29 31  2  0
 31 32  1  0
 31  2  1  0
 21 14  1  0
 27 19  1  0
M  END
>  <cnnaffinity>  (1) 
-5.05574

>  <filename>  (1) 
[H]c1nc([H])c(N=C(N([H])[H])N([H])c2c([H])c([H])c3c(c2[H])c([H])c([H])n3[H])c([H])c1[H]

$$$$
