
     RDKit          3D

 39 40  0  0  0  0  0  0  0  0999 V2000
    6.0923   -2.5371   21.0186 C   0  0  0  0  0  0  0  0  0  0  0  0
    7.4298   -1.8294   21.2390 C   0  0  0  0  0  0  0  0  0  0  0  0
    7.2782   -0.3120   21.2484 C   0  0  0  0  0  0  0  0  0  0  0  0
    8.5902    0.2656   21.4607 N   0  0  0  0  0  0  0  0  0  0  0  0
    8.7580    1.2553   22.3895 C   0  0  0  0  0  0  0  0  0  0  0  0
    7.8206    1.9579   22.7263 O   0  0  0  0  0  0  0  0  0  0  0  0
   10.0150    1.3781   22.9204 N   0  0  0  0  0  0  0  0  0  0  0  0
   10.5391    2.6454   23.1723 C   0  0  0  0  0  0  0  0  0  0  0  0
    9.7014    3.6692   23.6151 C   0  0  0  0  0  0  0  0  0  0  0  0
   10.1801    4.9738   23.7500 C   0  0  0  0  0  0  0  0  0  0  0  0
   11.5054    5.2570   23.4008 C   0  0  0  0  0  0  0  0  0  0  0  0
   12.3690    4.2325   22.9889 C   0  0  0  0  0  0  0  0  0  0  0  0
   13.7904    4.5481   22.6085 C   0  0  0  0  0  0  0  0  0  0  0  0
   14.4384    3.7237   22.9216 H   0  0  0  0  0  0  0  0  0  0  0  0
   13.8637    4.6599   21.5212 H   0  0  0  0  0  0  0  0  0  0  0  0
   14.1361    5.4749   23.0820 H   0  0  0  0  0  0  0  0  0  0  0  0
   11.8931    2.9103   22.9308 C   0  0  0  0  0  0  0  0  0  0  0  0
   13.0836    1.4632   22.5121 Br  0  0  0  0  0  0  0  0  0  0  0  0
   11.8753    6.2742   23.4415 H   0  0  0  0  0  0  0  0  0  0  0  0
    9.5109    5.7567   24.0971 H   0  0  0  0  0  0  0  0  0  0  0  0
    8.6775    3.4107   23.8570 H   0  0  0  0  0  0  0  0  0  0  0  0
   10.6656    0.6769   22.5865 H   0  0  0  0  0  0  0  0  0  0  0  0
    9.4030   -0.3156   21.3045 H   0  0  0  0  0  0  0  0  0  0  0  0
    6.6694    0.2473   19.9934 C   0  0  0  0  0  0  0  0  0  0  0  0
    5.4300    0.8776   20.0873 C   0  0  0  0  0  0  0  0  0  0  0  0
    4.8666    1.3959   18.9287 C   0  0  0  0  0  0  0  0  0  0  0  0
    5.5439    1.2765   17.7130 C   0  0  0  0  0  0  0  0  0  0  0  0
    6.7372    0.6596   17.6127 N   0  0  0  0  0  0  0  0  0  0  0  0
    7.2923    0.1610   18.7368 C   0  0  0  0  0  0  0  0  0  0  0  0
    8.2574   -0.3295   18.6506 H   0  0  0  0  0  0  0  0  0  0  0  0
    5.0805    1.6925   16.8225 H   0  0  0  0  0  0  0  0  0  0  0  0
    3.9144    1.9088   18.9684 H   0  0  0  0  0  0  0  0  0  0  0  0
    4.9318    0.9723   21.0510 H   0  0  0  0  0  0  0  0  0  0  0  0
    6.6215   -0.0508   22.0893 H   0  0  0  0  0  0  0  0  0  0  0  0
    7.8360   -2.1327   22.2082 H   0  0  0  0  0  0  0  0  0  0  0  0
    8.1441   -2.1238   20.4662 H   0  0  0  0  0  0  0  0  0  0  0  0
    6.2419   -3.6194   20.9582 H   0  0  0  0  0  0  0  0  0  0  0  0
    5.4119   -2.3286   21.8498 H   0  0  0  0  0  0  0  0  0  0  0  0
    5.6349   -2.1890   20.0871 H   0  0  0  0  0  0  0  0  0  0  0  0
  1  2  1  0
  2  3  1  0
  3  4  1  0
  4  5  1  0
  5  6  2  0
  5  7  1  0
  7  8  1  0
  8  9  2  0
  9 10  1  0
 10 11  2  0
 11 12  1  0
 12 13  1  0
 13 14  1  0
 13 15  1  0
 13 16  1  0
 12 17  2  0
 17 18  1  0
 11 19  1  0
 10 20  1  0
  9 21  1  0
  7 22  1  0
  4 23  1  0
  3 24  1  0
 24 25  2  0
 25 26  1  0
 26 27  2  0
 27 28  1  0
 28 29  2  0
 29 30  1  0
 27 31  1  0
 26 32  1  0
 25 33  1  0
  3 34  1  0
  2 35  1  0
  2 36  1  0
  1 37  1  0
  1 38  1  0
  1 39  1  0
 17  8  1  0
 29 24  1  0
M  END
>  <cnnaffinity>  (1) 
-4.99474

>  <filename>  (1) 
[H]c1nc([H])c(C([H])(N([H])C(=O)N([H])c2c([H])c([H])c([H])c(C([H])([H])[H])c2Br)C([H])([H])C([H])([H])[H])c([H])c1[H]

$$$$
