
     RDKit          3D

 34 36  0  0  0  0  0  0  0  0999 V2000
    6.8322   -3.7721   25.8604 H   0  0  0  0  0  0  0  0  0  0  0  0
    7.0136   -3.7161   24.7955 C   0  0  0  0  0  0  0  0  0  0  0  0
    7.5824   -4.5606   23.9431 C   0  0  0  0  0  0  0  0  0  0  0  0
    8.0152   -5.5402   24.0893 H   0  0  0  0  0  0  0  0  0  0  0  0
    7.5253   -3.9559   22.5705 C   0  0  0  0  0  0  0  0  0  0  0  0
    7.9271   -4.4216   21.5315 O   0  0  0  0  0  0  0  0  0  0  0  0
    6.8921   -2.7277   22.7016 N   0  0  0  0  0  0  0  0  0  0  0  0
    6.4463   -1.9170   21.5746 C   0  0  0  0  0  0  0  0  0  0  0  0
    6.2793   -2.5910   20.7342 H   0  0  0  0  0  0  0  0  0  0  0  0
    5.4820   -1.4908   21.8134 H   0  0  0  0  0  0  0  0  0  0  0  0
    7.3655   -0.7531   21.0909 C   0  0  1  0  0  0  0  0  0  0  0  0
    6.6587   -0.0281   19.9136 C   0  0  0  0  0  0  0  0  0  0  0  0
    7.1671    0.0491   18.6032 C   0  0  0  0  0  0  0  0  0  0  0  0
    8.1177   -0.4125   18.3537 H   0  0  0  0  0  0  0  0  0  0  0  0
    6.5601    0.6747   17.5841 N   0  0  0  0  0  0  0  0  0  0  0  0
    5.4003    1.2915   17.8325 C   0  0  0  0  0  0  0  0  0  0  0  0
    4.9216    1.7875   16.9904 H   0  0  0  0  0  0  0  0  0  0  0  0
    4.8086    1.3053   19.0983 C   0  0  0  0  0  0  0  0  0  0  0  0
    3.8811    1.8411   19.2523 H   0  0  0  0  0  0  0  0  0  0  0  0
    5.4397    0.6387   20.1479 C   0  0  0  0  0  0  0  0  0  0  0  0
    4.9992    0.6488   21.1483 H   0  0  0  0  0  0  0  0  0  0  0  0
    7.7071    0.2662   22.2154 C   0  0  0  0  0  0  0  0  0  0  0  0
    7.7631   -0.2454   23.1889 H   0  0  0  0  0  0  0  0  0  0  0  0
    6.9512    1.0569   22.3107 H   0  0  0  0  0  0  0  0  0  0  0  0
    8.9880    0.8596   21.8190 N   0  0  0  0  0  0  0  0  0  0  0  0
    9.5553    1.0519   22.6327 H   0  0  0  0  0  0  0  0  0  0  0  0
    9.6740   -0.0366   20.8858 C   0  0  0  0  0  0  0  0  0  0  0  0
   10.6862   -0.3041   21.2293 H   0  0  0  0  0  0  0  0  0  0  0  0
    9.7486    0.4583   19.9106 H   0  0  0  0  0  0  0  0  0  0  0  0
    8.7823   -1.2656   20.7774 C   0  0  0  0  0  0  0  0  0  0  0  0
    8.8611   -1.7607   19.8124 H   0  0  0  0  0  0  0  0  0  0  0  0
    9.0585   -1.9959   21.5451 H   0  0  0  0  0  0  0  0  0  0  0  0
    6.5605   -2.5076   24.0327 C   0  0  0  0  0  0  0  0  0  0  0  0
    6.0177   -1.5278   24.4757 O   0  0  0  0  0  0  0  0  0  0  0  0
  1  2  1  0
  2  3  2  0
  3  4  1  0
  3  5  1  0
  5  6  2  0
  5  7  1  0
  7  8  1  0
  8  9  1  0
  8 10  1  0
 11  8  1  1
 11 12  1  0
 12 13  2  0
 13 14  1  0
 13 15  1  0
 15 16  2  0
 16 17  1  0
 16 18  1  0
 18 19  1  0
 18 20  2  0
 20 21  1  0
 11 22  1  0
 22 23  1  0
 22 24  1  0
 22 25  1  0
 25 26  1  0
 25 27  1  0
 27 28  1  0
 27 29  1  0
 27 30  1  0
 30 31  1  0
 30 32  1  0
  7 33  1  0
 33 34  2  0
 33  2  1  0
 30 11  1  0
 20 12  1  0
M  END
>  <cnnaffinity>  (1) 
-4.71198

>  <filename>  (1) 
[H]C1=C([H])C(=O)N(C([H])([H])[C@@]2(c3c([H])nc([H])c([H])c3[H])C([H])([H])N([H])C([H])([H])C2([H])[H])C1=O

$$$$
