
     RDKit          3D

 28 30  0  0  0  0  0  0  0  0999 V2000
    4.8461    1.9268   16.8667 H   0  0  0  0  0  0  0  0  0  0  0  0
    5.3448    1.3949   17.6769 C   0  0  0  0  0  0  0  0  0  0  0  0
    6.4973    0.7850   17.3631 N   0  0  0  0  0  0  0  0  0  0  0  0
    7.1313    0.1300   18.3391 C   0  0  0  0  0  0  0  0  0  0  0  0
    8.0551   -0.3670   18.0513 H   0  0  0  0  0  0  0  0  0  0  0  0
    6.6773    0.0444   19.6645 C   0  0  0  0  0  0  0  0  0  0  0  0
    7.4433   -0.6793   20.6885 C   0  0  0  0  0  0  0  0  0  0  0  0
    6.9658   -0.7567   21.9819 N   0  0  0  0  0  0  0  0  0  0  0  0
    7.8438   -1.4470   22.6321 C   0  0  0  0  0  0  0  0  0  0  0  0
    7.7944   -1.7906   24.0673 C   0  0  0  0  0  0  0  0  0  0  0  0
    6.6894   -1.3311   24.8206 C   0  0  0  0  0  0  0  0  0  0  0  0
    5.8760   -0.7691   24.3538 H   0  0  0  0  0  0  0  0  0  0  0  0
    6.6311   -1.5770   26.1861 C   0  0  0  0  0  0  0  0  0  0  0  0
    5.7896   -1.2197   26.7676 H   0  0  0  0  0  0  0  0  0  0  0  0
    7.6542   -2.2794   26.8244 C   0  0  0  0  0  0  0  0  0  0  0  0
    7.6269   -2.4240   27.8835 H   0  0  0  0  0  0  0  0  0  0  0  0
    8.7284   -2.7771   26.1052 C   0  0  0  0  0  0  0  0  0  0  0  0
    9.5020   -3.3507   26.6102 H   0  0  0  0  0  0  0  0  0  0  0  0
    8.8150   -2.5353   24.7270 C   0  0  0  0  0  0  0  0  0  0  0  0
   10.0137   -3.0832   24.1301 C   0  0  0  0  0  0  0  0  0  0  0  0
   11.0249   -3.5768   23.8581 N   0  0  0  0  0  0  0  0  0  0  0  0
    8.8891   -1.8507   21.8662 O   0  0  0  0  0  0  0  0  0  0  0  0
    8.6211   -1.3503   20.6301 C   0  0  0  0  0  0  0  0  0  0  0  0
    9.3471   -1.5529   19.8566 H   0  0  0  0  0  0  0  0  0  0  0  0
    5.4663    0.6828   19.9780 C   0  0  0  0  0  0  0  0  0  0  0  0
    5.0696    0.6461   20.9949 H   0  0  0  0  0  0  0  0  0  0  0  0
    4.7953    1.3576   18.9625 C   0  0  0  0  0  0  0  0  0  0  0  0
    3.8600    1.8648   19.1509 H   0  0  0  0  0  0  0  0  0  0  0  0
  1  2  1  0
  2  3  2  0
  3  4  1  0
  4  5  1  0
  4  6  2  0
  6  7  1  0
  7  8  1  0
  8  9  2  0
  9 10  1  0
 10 11  2  0
 11 12  1  0
 11 13  1  0
 13 14  1  0
 13 15  2  0
 15 16  1  0
 15 17  1  0
 17 18  1  0
 17 19  2  0
 19 20  1  0
 20 21  3  0
  9 22  1  0
 22 23  1  0
 23 24  1  0
  6 25  1  0
 25 26  1  0
 25 27  2  0
 27 28  1  0
 27  2  1  0
 23  7  2  0
 19 10  1  0
M  END
>  <cnnaffinity>  (1) 
-4.97291

>  <filename>  (1) 
[H]c1nc([H])c(-c2nc(-c3c([H])c([H])c([H])c([H])c3C#N)oc2[H])c([H])c1[H]

$$$$
