
     RDKit          3D

 41 42  0  0  0  0  0  0  0  0999 V2000
   10.0379   -1.4065   22.9569 H   0  0  0  0  0  0  0  0  0  0  0  0
    9.0811   -1.3358   22.4532 C   0  0  0  0  0  0  0  0  0  0  0  0
    7.9361   -1.8759   22.8766 C   0  0  0  0  0  0  0  0  0  0  0  0
    7.8166   -2.5086   24.0726 O   0  0  0  0  0  0  0  0  0  0  0  0
    6.5075   -2.7725   24.5841 C   0  0  0  0  0  0  0  0  0  0  0  0
    5.9677   -3.4168   23.8794 H   0  0  0  0  0  0  0  0  0  0  0  0
    5.9453   -1.8348   24.6845 H   0  0  0  0  0  0  0  0  0  0  0  0
    6.6910   -3.4516   25.9511 C   0  0  0  0  0  0  0  0  0  0  0  0
    7.3525   -2.8197   26.5596 H   0  0  0  0  0  0  0  0  0  0  0  0
    7.2452   -4.3846   25.7721 H   0  0  0  0  0  0  0  0  0  0  0  0
    5.4772   -3.7693   26.7183 N   0  0  0  0  0  0  0  0  0  0  0  0
    4.7917   -2.6343   27.3560 C   0  0  0  0  0  0  0  0  0  0  0  0
    3.8298   -2.4268   26.8559 H   0  0  0  0  0  0  0  0  0  0  0  0
    5.4053   -1.7264   27.2507 H   0  0  0  0  0  0  0  0  0  0  0  0
    4.5005   -2.8115   28.8523 C   0  0  0  0  0  0  0  0  0  0  0  0
    5.4150   -2.8948   29.4480 H   0  0  0  0  0  0  0  0  0  0  0  0
    3.9404   -1.9334   29.2005 H   0  0  0  0  0  0  0  0  0  0  0  0
    3.8883   -3.6965   29.0498 H   0  0  0  0  0  0  0  0  0  0  0  0
    4.5894   -4.7120   26.0348 C   0  0  0  0  0  0  0  0  0  0  0  0
    5.2093   -5.4419   25.4948 H   0  0  0  0  0  0  0  0  0  0  0  0
    3.9651   -4.2043   25.2700 H   0  0  0  0  0  0  0  0  0  0  0  0
    3.6794   -5.4802   26.9838 C   0  0  0  0  0  0  0  0  0  0  0  0
    2.9897   -4.8112   27.5053 H   0  0  0  0  0  0  0  0  0  0  0  0
    3.0707   -6.1985   26.4262 H   0  0  0  0  0  0  0  0  0  0  0  0
    4.2698   -6.0296   27.7251 H   0  0  0  0  0  0  0  0  0  0  0  0
    6.8555   -1.6840   21.8211 C   0  0  0  0  0  0  0  0  0  0  0  0
    5.7624   -2.2142   21.7061 O   0  0  0  0  0  0  0  0  0  0  0  0
    7.4355   -0.8025   20.9057 N   0  0  0  0  0  0  0  0  0  0  0  0
    6.7331   -0.0834   19.8966 C   0  0  0  0  0  0  0  0  0  0  0  0
    7.2512    0.0412   18.5863 C   0  0  0  0  0  0  0  0  0  0  0  0
    8.2046   -0.4267   18.3530 H   0  0  0  0  0  0  0  0  0  0  0  0
    6.6396    0.6860   17.5843 N   0  0  0  0  0  0  0  0  0  0  0  0
    5.4661    1.2801   17.8596 C   0  0  0  0  0  0  0  0  0  0  0  0
    4.9721    1.7842   17.0298 H   0  0  0  0  0  0  0  0  0  0  0  0
    4.8766    1.2511   19.1298 C   0  0  0  0  0  0  0  0  0  0  0  0
    3.9353    1.7674   19.2947 H   0  0  0  0  0  0  0  0  0  0  0  0
    5.5141    0.5593   20.1687 C   0  0  0  0  0  0  0  0  0  0  0  0
    5.0935    0.5214   21.1724 H   0  0  0  0  0  0  0  0  0  0  0  0
    8.8715   -0.6846   21.1192 C   0  0  0  0  0  0  0  0  0  0  0  0
    9.1972    0.3616   21.1245 H   0  0  0  0  0  0  0  0  0  0  0  0
    9.4332   -1.2098   20.3299 H   0  0  0  0  0  0  0  0  0  0  0  0
  1  2  1  0
  2  3  2  0
  3  4  1  0
  4  5  1  0
  5  6  1  0
  5  7  1  0
  5  8  1  0
  8  9  1  0
  8 10  1  0
  8 11  1  0
 11 12  1  0
 12 13  1  0
 12 14  1  0
 12 15  1  0
 15 16  1  0
 15 17  1  0
 15 18  1  0
 11 19  1  0
 19 20  1  0
 19 21  1  0
 19 22  1  0
 22 23  1  0
 22 24  1  0
 22 25  1  0
  3 26  1  0
 26 27  2  0
 26 28  1  0
 28 29  1  0
 29 30  2  0
 30 31  1  0
 30 32  1  0
 32 33  2  0
 33 34  1  0
 33 35  1  0
 35 36  1  0
 35 37  2  0
 37 38  1  0
 28 39  1  0
 39 40  1  0
 39 41  1  0
 39  2  1  0
 37 29  1  0
M  END
>  <cnnaffinity>  (1) 
-4.83639

>  <filename>  (1) 
[H]C1=C(OC([H])([H])C([H])([H])N(C([H])([H])C([H])([H])[H])C([H])([H])C([H])([H])[H])C(=O)N(c2c([H])nc([H])c([H])c2[H])C1([H])[H]

$$$$
