
     RDKit          3D

 26 27  0  0  0  0  0  0  0  0999 V2000
    4.9145    1.7839   16.9904 H   0  0  0  0  0  0  0  0  0  0  0  0
    5.3984    1.2972   17.8306 C   0  0  0  0  0  0  0  0  0  0  0  0
    6.5625    0.6801   17.5630 N   0  0  0  0  0  0  0  0  0  0  0  0
    7.1723    0.0793   18.5884 C   0  0  0  0  0  0  0  0  0  0  0  0
    8.1127   -0.4259   18.3700 H   0  0  0  0  0  0  0  0  0  0  0  0
    6.6566    0.0222   19.8938 C   0  0  0  0  0  0  0  0  0  0  0  0
    7.3836   -0.6889   20.9612 C   0  0  0  0  0  0  0  0  0  0  0  0
    6.7295   -1.5282   21.8938 C   0  0  0  0  0  0  0  0  0  0  0  0
    5.6624   -1.6906   21.8133 H   0  0  0  0  0  0  0  0  0  0  0  0
    7.3649   -2.1878   22.8540 N   0  0  0  0  0  0  0  0  0  0  0  0
    8.6969   -2.0375   22.9967 N   0  0  0  0  0  0  0  0  0  0  0  0
    9.3715   -1.2697   22.1355 C   0  0  0  0  0  0  0  0  0  0  0  0
   11.1234   -1.0749   22.3521 S   0  0  0  0  0  0  0  0  0  0  0  0
   11.1008    0.3964   23.4273 C   0  0  0  0  0  0  0  0  0  0  0  0
   12.0882    0.8673   23.3468 H   0  0  0  0  0  0  0  0  0  0  0  0
   10.3830    1.1100   23.0076 H   0  0  0  0  0  0  0  0  0  0  0  0
   10.7648    0.0514   24.8674 C   0  0  0  0  0  0  0  0  0  0  0  0
   10.7922    0.9469   25.4975 H   0  0  0  0  0  0  0  0  0  0  0  0
   11.4839   -0.6697   25.2629 H   0  0  0  0  0  0  0  0  0  0  0  0
    9.7726   -0.4052   24.9344 H   0  0  0  0  0  0  0  0  0  0  0  0
    8.7584   -0.5738   21.0822 C   0  0  0  0  0  0  0  0  0  0  0  0
    9.3397    0.0776   20.4384 H   0  0  0  0  0  0  0  0  0  0  0  0
    5.4291    0.6536   20.1481 C   0  0  0  0  0  0  0  0  0  0  0  0
    5.0111    0.6368   21.1595 H   0  0  0  0  0  0  0  0  0  0  0  0
    4.8023    1.3162   19.0976 C   0  0  0  0  0  0  0  0  0  0  0  0
    3.8698    1.8466   19.2545 H   0  0  0  0  0  0  0  0  0  0  0  0
  1  2  1  0
  2  3  2  0
  3  4  1  0
  4  5  1  0
  4  6  2  0
  6  7  1  0
  7  8  2  0
  8  9  1  0
  8 10  1  0
 10 11  2  0
 11 12  1  0
 12 13  1  0
 13 14  1  0
 14 15  1  0
 14 16  1  0
 14 17  1  0
 17 18  1  0
 17 19  1  0
 17 20  1  0
 12 21  2  0
 21 22  1  0
  6 23  1  0
 23 24  1  0
 23 25  2  0
 25 26  1  0
 25  2  1  0
 21  7  1  0
M  END
>  <cnnaffinity>  (1) 
-4.86391

>  <filename>  (1) 
[H]c1nc([H])c(-c2c([H])nnc(SC([H])([H])C([H])([H])[H])c2[H])c([H])c1[H]

$$$$
