
     RDKit          3D

 31 33  0  0  0  0  0  0  0  0999 V2000
    5.9610   -2.7409   20.4225 O   0  0  0  0  0  0  0  0  0  0  0  0
    6.5276   -2.1330   21.3282 C   0  0  0  0  0  0  0  0  0  0  0  0
    6.5108   -2.7173   22.6032 N   0  0  0  0  0  0  0  0  0  0  0  0
    5.7160   -3.8203   22.9445 C   0  0  0  0  0  0  0  0  0  0  0  0
    4.5894   -4.0727   22.1635 C   0  0  0  0  0  0  0  0  0  0  0  0
    3.7412   -5.1494   22.4122 C   0  0  0  0  0  0  0  0  0  0  0  0
    4.0517   -5.9950   23.4669 C   0  0  0  0  0  0  0  0  0  0  0  0
    3.4127   -7.2041   23.9331 C   0  0  0  0  0  0  0  0  0  0  0  0
    1.9067   -8.0163   23.0591 Br  0  0  0  0  0  0  0  0  0  0  0  0
    4.0414   -7.6750   24.9868 N   0  0  0  0  0  0  0  0  0  0  0  0
    5.0636   -6.7875   25.2166 N   0  0  0  0  0  0  0  0  0  0  0  0
    5.1288   -5.7552   24.2891 C   0  0  0  0  0  0  0  0  0  0  0  0
    5.9737   -4.6569   24.0500 C   0  0  0  0  0  0  0  0  0  0  0  0
    6.8101   -4.4966   24.7185 H   0  0  0  0  0  0  0  0  0  0  0  0
    5.7282   -6.8904   25.9827 H   0  0  0  0  0  0  0  0  0  0  0  0
    2.8554   -5.3355   21.8101 H   0  0  0  0  0  0  0  0  0  0  0  0
    4.3805   -3.3842   21.3632 H   0  0  0  0  0  0  0  0  0  0  0  0
    7.0414   -2.2727   23.3414 H   0  0  0  0  0  0  0  0  0  0  0  0
    7.3022   -0.8192   20.9704 C   0  0  0  0  0  0  0  0  0  0  0  0
    7.4308   -0.0123   22.0582 F   0  0  0  0  0  0  0  0  0  0  0  0
    8.5667   -1.1520   20.5864 F   0  0  0  0  0  0  0  0  0  0  0  0
    6.6389    0.0007   19.8707 C   0  0  0  0  0  0  0  0  0  0  0  0
    5.4266    0.6594   20.1021 C   0  0  0  0  0  0  0  0  0  0  0  0
    4.8454    1.3448   19.0377 C   0  0  0  0  0  0  0  0  0  0  0  0
    5.4710    1.3550   17.7868 C   0  0  0  0  0  0  0  0  0  0  0  0
    6.6399    0.7301   17.5658 N   0  0  0  0  0  0  0  0  0  0  0  0
    7.2138    0.0838   18.5909 C   0  0  0  0  0  0  0  0  0  0  0  0
    8.1488   -0.4316   18.3966 H   0  0  0  0  0  0  0  0  0  0  0  0
    4.9991    1.8891   16.9659 H   0  0  0  0  0  0  0  0  0  0  0  0
    3.9032    1.8671   19.1626 H   0  0  0  0  0  0  0  0  0  0  0  0
    4.9430    0.6344   21.0793 H   0  0  0  0  0  0  0  0  0  0  0  0
  1  2  2  0
  2  3  1  0
  3  4  1  0
  4  5  2  0
  5  6  1  0
  6  7  2  0
  7  8  1  0
  8  9  1  0
  8 10  2  0
 10 11  1  0
 11 12  1  0
 12 13  2  0
 13 14  1  0
 11 15  1  0
  6 16  1  0
  5 17  1  0
  3 18  1  0
  2 19  1  0
 19 20  1  0
 19 21  1  0
 19 22  1  0
 22 23  2  0
 23 24  1  0
 24 25  2  0
 25 26  1  0
 26 27  2  0
 27 28  1  0
 25 29  1  0
 24 30  1  0
 23 31  1  0
 13  4  1  0
 27 22  1  0
 12  7  1  0
M  END
>  <cnnaffinity>  (1) 
-5.05357

>  <filename>  (1) 
[H]c1nc([H])c(C(F)(F)C(=O)N([H])c2c([H])c([H])c3c(Br)nn([H])c3c2[H])c([H])c1[H]

$$$$
