
     RDKit          3D

 26 26  0  0  0  0  0  0  0  0999 V2000
    7.0845   -2.3536   24.0586 H   0  0  0  0  0  0  0  0  0  0  0  0
    7.8507   -1.6234   24.3154 C   0  0  0  0  0  0  0  0  0  0  0  0
    7.7446   -1.1251   25.2751 H   0  0  0  0  0  0  0  0  0  0  0  0
    8.8667   -1.3711   23.4997 C   0  0  0  0  0  0  0  0  0  0  0  0
    9.6118   -0.6201   23.7747 H   0  0  0  0  0  0  0  0  0  0  0  0
    9.0309   -2.0138   22.1486 C   0  0  0  0  0  0  0  0  0  0  0  0
    8.3803   -2.8905   22.0740 H   0  0  0  0  0  0  0  0  0  0  0  0
   10.0562   -2.3833   22.0349 H   0  0  0  0  0  0  0  0  0  0  0  0
    8.7283   -1.0805   20.9617 C   0  0  1  0  0  0  0  0  0  0  0  0
    8.9173   -1.6518   20.0434 H   0  0  0  0  0  0  0  0  0  0  0  0
    7.3199   -0.7174   20.9432 N   0  0  0  0  0  0  0  0  0  0  0  0
    6.7858   -0.8369   21.7930 H   0  0  0  0  0  0  0  0  0  0  0  0
    6.6819   -0.0176   19.9251 C   0  0  0  0  0  0  0  0  0  0  0  0
    7.1763    0.0608   18.5933 C   0  0  0  0  0  0  0  0  0  0  0  0
    8.1204   -0.4222   18.3611 H   0  0  0  0  0  0  0  0  0  0  0  0
    6.5630    0.6782   17.5725 N   0  0  0  0  0  0  0  0  0  0  0  0
    5.4006    1.2947   17.8372 C   0  0  0  0  0  0  0  0  0  0  0  0
    4.9135    1.7846   16.9947 H   0  0  0  0  0  0  0  0  0  0  0  0
    4.8206    1.2986   19.1144 C   0  0  0  0  0  0  0  0  0  0  0  0
    3.8868    1.8334   19.2647 H   0  0  0  0  0  0  0  0  0  0  0  0
    5.4510    0.6308   20.1700 C   0  0  0  0  0  0  0  0  0  0  0  0
    5.0122    0.6242   21.1741 H   0  0  0  0  0  0  0  0  0  0  0  0
    9.6454    0.1443   20.9457 C   0  0  0  0  0  0  0  0  0  0  0  0
    9.5287    0.7110   20.0209 H   0  0  0  0  0  0  0  0  0  0  0  0
   10.6921   -0.1585   21.0330 H   0  0  0  0  0  0  0  0  0  0  0  0
    9.4112    0.8190   21.7731 H   0  0  0  0  0  0  0  0  0  0  0  0
  1  2  1  0
  2  3  1  0
  2  4  2  3
  4  5  1  0
  4  6  1  0
  6  7  1  0
  6  8  1  0
  6  9  1  0
  9 10  1  6
  9 11  1  0
 11 12  1  0
 11 13  1  0
 13 14  2  0
 14 15  1  0
 14 16  1  0
 16 17  2  0
 17 18  1  0
 17 19  1  0
 19 20  1  0
 19 21  2  0
 21 22  1  0
  9 23  1  0
 23 24  1  0
 23 25  1  0
 23 26  1  0
 21 13  1  0
M  END
>  <cnnaffinity>  (1) 
-4.20386

>  <filename>  (1) 
[H]C([H])=C([H])C([H])([H])[C@@]([H])(N([H])c1c([H])nc([H])c([H])c1[H])C([H])([H])[H]

$$$$
