
     RDKit          3D

 23 24  0  0  0  0  0  0  0  0999 V2000
    8.5729   -3.7177   21.3404 H   0  0  0  0  0  0  0  0  0  0  0  0
    8.2928   -2.7140   21.6329 C   0  0  0  0  0  0  0  0  0  0  0  0
    8.5956   -2.3295   22.8710 N   0  0  0  0  0  0  0  0  0  0  0  0
    8.2788   -1.0764   23.1762 C   0  0  0  0  0  0  0  0  0  0  0  0
    8.5692   -0.7056   24.1597 H   0  0  0  0  0  0  0  0  0  0  0  0
    7.6604   -0.1851   22.2929 C   0  0  0  0  0  0  0  0  0  0  0  0
    7.5115    1.5169   22.8266 S   0  0  0  0  0  0  0  0  0  0  0  0
    9.0222    2.3085   22.1057 C   0  0  0  0  0  0  0  0  0  0  0  0
    8.8803    3.6226   22.2227 F   0  0  0  0  0  0  0  0  0  0  0  0
   10.1385    1.9111   22.7083 F   0  0  0  0  0  0  0  0  0  0  0  0
    9.1151    1.9513   20.8287 F   0  0  0  0  0  0  0  0  0  0  0  0
    7.3269   -0.7380   21.0312 C   0  0  0  0  0  0  0  0  0  0  0  0
    6.6015   -0.0070   19.9698 C   0  0  0  0  0  0  0  0  0  0  0  0
    7.1334   -0.0357   18.6717 C   0  0  0  0  0  0  0  0  0  0  0  0
    8.0447   -0.5939   18.4569 H   0  0  0  0  0  0  0  0  0  0  0  0
    6.5893    0.5987   17.6285 N   0  0  0  0  0  0  0  0  0  0  0  0
    5.4492    1.2750   17.8405 C   0  0  0  0  0  0  0  0  0  0  0  0
    5.0497    1.8285   16.9884 H   0  0  0  0  0  0  0  0  0  0  0  0
    4.7954    1.3052   19.0759 C   0  0  0  0  0  0  0  0  0  0  0  0
    3.8615    1.8519   19.1708 H   0  0  0  0  0  0  0  0  0  0  0  0
    5.3837    0.6584   20.1681 C   0  0  0  0  0  0  0  0  0  0  0  0
    4.8891    0.6530   21.1402 H   0  0  0  0  0  0  0  0  0  0  0  0
    7.7050   -1.9735   20.7016 N   0  0  0  0  0  0  0  0  0  0  0  0
  1  2  1  0
  2  3  2  0
  3  4  1  0
  4  5  1  0
  4  6  2  0
  6  7  1  0
  7  8  1  0
  8  9  1  0
  8 10  1  0
  8 11  1  0
  6 12  1  0
 12 13  1  0
 13 14  2  0
 14 15  1  0
 14 16  1  0
 16 17  2  0
 17 18  1  0
 17 19  1  0
 19 20  1  0
 19 21  2  0
 21 22  1  0
 12 23  2  0
 23  2  1  0
 21 13  1  0
M  END
>  <cnnaffinity>  (1) 
-5.19404

>  <filename>  (1) 
[H]c1nc([H])c(SC(F)(F)F)c(-c2c([H])nc([H])c([H])c2[H])n1

$$$$
