
     RDKit          3D

 43 47  0  0  0  0  0  0  0  0999 V2000
    4.7363    1.3364   18.9378 C   0  0  0  0  0  0  0  0  0  0  0  0
    5.3567    1.3065   17.6865 C   0  0  0  0  0  0  0  0  0  0  0  0
    6.4710    0.6053   17.4323 N   0  0  0  0  0  0  0  0  0  0  0  0
    7.0086   -0.0793   18.4486 C   0  0  0  0  0  0  0  0  0  0  0  0
    6.4808   -0.1109   19.7531 C   0  0  0  0  0  0  0  0  0  0  0  0
    7.2600   -0.7203   20.9102 C   0  0  0  0  0  0  0  0  0  0  0  0
    8.1847    0.2931   21.5124 C   0  0  0  0  0  0  0  0  0  0  0  0
    7.9371    0.9027   22.6461 N   0  0  0  0  0  0  0  0  0  0  0  0
    8.9856    1.7613   22.7768 N   0  0  0  0  0  0  0  0  0  0  0  0
    9.0092    2.6653   23.8839 C   0  0  0  0  0  0  0  0  0  0  0  0
    8.7568    2.2309   25.1863 C   0  0  0  0  0  0  0  0  0  0  0  0
    8.7794    3.1341   26.2698 C   0  0  0  0  0  0  0  0  0  0  0  0
    9.0277    4.4956   26.0800 C   0  0  0  0  0  0  0  0  0  0  0  0
    9.2669    4.9447   24.7689 C   0  0  0  0  0  0  0  0  0  0  0  0
    9.2520    4.0346   23.6987 C   0  0  0  0  0  0  0  0  0  0  0  0
    9.4543    4.8065   22.5826 N   0  0  0  0  0  0  0  0  0  0  0  0
    9.5866    6.0967   23.0018 C   0  0  0  0  0  0  0  0  0  0  0  0
    9.4959    6.2303   24.2918 N   0  0  0  0  0  0  0  0  0  0  0  0
    9.7437    6.9031   22.2919 H   0  0  0  0  0  0  0  0  0  0  0  0
    9.3709    4.5032   21.6283 H   0  0  0  0  0  0  0  0  0  0  0  0
    9.0081    5.2199   26.8866 H   0  0  0  0  0  0  0  0  0  0  0  0
    8.5751    2.7558   27.2676 H   0  0  0  0  0  0  0  0  0  0  0  0
    8.5114    1.1855   25.3578 H   0  0  0  0  0  0  0  0  0  0  0  0
    9.8418    1.5590   21.7287 C   0  0  0  0  0  0  0  0  0  0  0  0
   11.2607    2.0570   21.6316 C   0  0  0  0  0  0  0  0  0  0  0  0
   12.0429    1.6374   22.8556 C   0  0  0  0  0  0  0  0  0  0  0  0
   12.2181    2.3588   23.9906 C   0  0  0  0  0  0  0  0  0  0  0  0
   12.5882    1.5560   25.0120 O   0  0  0  0  0  0  0  0  0  0  0  0
   12.6861    0.2962   24.5297 C   0  0  0  0  0  0  0  0  0  0  0  0
   12.3941    0.2816   23.2062 C   0  0  0  0  0  0  0  0  0  0  0  0
   12.4278   -0.5826   22.5519 H   0  0  0  0  0  0  0  0  0  0  0  0
   12.9254   -0.4538   25.2692 H   0  0  0  0  0  0  0  0  0  0  0  0
   12.1521    3.4119   24.2221 H   0  0  0  0  0  0  0  0  0  0  0  0
   11.6751    1.6055   20.7303 H   0  0  0  0  0  0  0  0  0  0  0  0
   11.2823    3.1379   21.4978 H   0  0  0  0  0  0  0  0  0  0  0  0
    9.3409    0.6676   20.9023 N   0  0  0  0  0  0  0  0  0  0  0  0
    7.8777   -1.5613   20.5786 H   0  0  0  0  0  0  0  0  0  0  0  0
    6.6000   -1.0782   21.7091 H   0  0  0  0  0  0  0  0  0  0  0  0
    5.3053    0.6116   19.9875 C   0  0  0  0  0  0  0  0  0  0  0  0
    4.8539    0.6132   20.9821 H   0  0  0  0  0  0  0  0  0  0  0  0
    7.9337   -0.6125   18.2252 H   0  0  0  0  0  0  0  0  0  0  0  0
    4.9547    1.8823   16.8546 H   0  0  0  0  0  0  0  0  0  0  0  0
    3.8477    1.9386   19.0786 H   0  0  0  0  0  0  0  0  0  0  0  0
  1  2  2  0
  2  3  1  0
  3  4  2  0
  4  5  1  0
  5  6  1  0
  6  7  1  0
  7  8  2  0
  8  9  1  0
  9 10  1  0
 10 11  2  0
 11 12  1  0
 12 13  2  0
 13 14  1  0
 14 15  2  0
 15 16  1  0
 16 17  1  0
 17 18  2  0
 17 19  1  0
 16 20  1  0
 13 21  1  0
 12 22  1  0
 11 23  1  0
  9 24  1  0
 24 25  1  0
 25 26  1  0
 26 27  2  0
 27 28  1  0
 28 29  1  0
 29 30  2  0
 30 31  1  0
 29 32  1  0
 27 33  1  0
 25 34  1  0
 25 35  1  0
 24 36  2  0
  6 37  1  0
  6 38  1  0
  5 39  2  0
 39 40  1  0
  4 41  1  0
  2 42  1  0
  1 43  1  0
 39  1  1  0
 36  7  1  0
 15 10  1  0
 30 26  1  0
 18 14  1  0
M  END
>  <cnnaffinity>  (1) 
-5.93493

>  <filename>  (1) 
[H]c1nc([H])c(C([H])([H])c2nc(C([H])([H])c3c([H])oc([H])c3[H])n(-c3c([H])c([H])c([H])c4nc([H])n([H])c34)n2)c([H])c1[H]

$$$$
