
     RDKit          3D

 35 38  0  0  0  0  0  0  0  0999 V2000
    6.6570   -1.2969   21.6503 H   0  0  0  0  0  0  0  0  0  0  0  0
    7.2693   -0.6477   21.0177 C   0  0  0  0  0  0  0  0  0  0  0  0
    8.5595   -0.4413   21.3414 C   0  0  0  0  0  0  0  0  0  0  0  0
    9.3658   -1.1375   22.3581 C   0  0  0  0  0  0  0  0  0  0  0  0
    8.9114   -2.3608   23.1032 C   0  0  0  0  0  0  0  0  0  0  0  0
    7.8815   -3.1354   22.8559 N   0  0  0  0  0  0  0  0  0  0  0  0
    7.8729   -4.0651   23.8711 C   0  0  0  0  0  0  0  0  0  0  0  0
    6.9223   -5.0731   24.1218 C   0  0  0  0  0  0  0  0  0  0  0  0
    6.1121   -5.2113   23.4151 H   0  0  0  0  0  0  0  0  0  0  0  0
    7.0633   -5.8403   25.2701 C   0  0  0  0  0  0  0  0  0  0  0  0
    6.3043   -6.5798   25.5183 H   0  0  0  0  0  0  0  0  0  0  0  0
    8.1538   -5.6346   26.1506 C   0  0  0  0  0  0  0  0  0  0  0  0
    8.2253   -6.2585   27.0378 H   0  0  0  0  0  0  0  0  0  0  0  0
    9.1340   -4.6707   25.8905 C   0  0  0  0  0  0  0  0  0  0  0  0
    9.9897   -4.5667   26.5547 H   0  0  0  0  0  0  0  0  0  0  0  0
    8.9591   -3.8623   24.7503 C   0  0  0  0  0  0  0  0  0  0  0  0
    9.6033   -2.7605   24.2244 N   0  0  0  0  0  0  0  0  0  0  0  0
   10.3911   -2.2554   24.6031 H   0  0  0  0  0  0  0  0  0  0  0  0
   10.5017   -0.5746   22.6078 N   0  0  0  0  0  0  0  0  0  0  0  0
   10.6673    0.5877   21.7384 C   0  0  0  0  0  0  0  0  0  0  0  0
   11.5985    0.4768   21.1782 H   0  0  0  0  0  0  0  0  0  0  0  0
   10.7489    1.4866   22.3593 H   0  0  0  0  0  0  0  0  0  0  0  0
    9.4452    0.6532   20.7963 C   0  0  0  0  0  0  0  0  0  0  0  0
    9.7033    0.3916   19.7717 H   0  0  0  0  0  0  0  0  0  0  0  0
    8.9670    1.6371   20.7722 H   0  0  0  0  0  0  0  0  0  0  0  0
    6.5711   -0.0119   19.8861 C   0  0  0  0  0  0  0  0  0  0  0  0
    7.1123    0.0340   18.5827 C   0  0  0  0  0  0  0  0  0  0  0  0
    8.0366   -0.5043   18.3780 H   0  0  0  0  0  0  0  0  0  0  0  0
    6.5553    0.6809   17.5509 N   0  0  0  0  0  0  0  0  0  0  0  0
    5.4043    1.3285   17.7881 C   0  0  0  0  0  0  0  0  0  0  0  0
    4.9820    1.8827   16.9520 H   0  0  0  0  0  0  0  0  0  0  0  0
    4.7477    1.3097   19.0253 C   0  0  0  0  0  0  0  0  0  0  0  0
    3.8153    1.8500   19.1485 H   0  0  0  0  0  0  0  0  0  0  0  0
    5.3260    0.6120   20.0851 C   0  0  0  0  0  0  0  0  0  0  0  0
    4.8547    0.5807   21.0693 H   0  0  0  0  0  0  0  0  0  0  0  0
  1  2  1  0
  2  3  2  3
  3  4  1  0
  4  5  1  0
  5  6  2  0
  6  7  1  0
  7  8  2  0
  8  9  1  0
  8 10  1  0
 10 11  1  0
 10 12  2  0
 12 13  1  0
 12 14  1  0
 14 15  1  0
 14 16  2  0
 16 17  1  0
 17 18  1  0
  4 19  2  0
 19 20  1  0
 20 21  1  0
 20 22  1  0
 20 23  1  0
 23 24  1  0
 23 25  1  0
  2 26  1  0
 26 27  2  0
 27 28  1  0
 27 29  1  0
 29 30  2  0
 30 31  1  0
 30 32  1  0
 32 33  1  0
 32 34  2  0
 34 35  1  0
 23  3  1  0
 34 26  1  0
 17  5  1  0
 16  7  1  0
M  END
>  <cnnaffinity>  (1) 
-5.51554

>  <filename>  (1) 
[H]C(=C1C(c2nc3c([H])c([H])c([H])c([H])c3n2[H])=NC([H])([H])C1([H])[H])c1c([H])nc([H])c([H])c1[H]

$$$$
