
     RDKit          3D

 36 39  0  0  0  0  0  0  0  0999 V2000
    4.9471    1.7707   17.0269 H   0  0  0  0  0  0  0  0  0  0  0  0
    5.4241    1.2702   17.8655 C   0  0  0  0  0  0  0  0  0  0  0  0
    6.5883    0.6530   17.6048 N   0  0  0  0  0  0  0  0  0  0  0  0
    7.2001    0.0331   18.6226 C   0  0  0  0  0  0  0  0  0  0  0  0
    8.1465   -0.4446   18.3736 H   0  0  0  0  0  0  0  0  0  0  0  0
    6.6993   -0.0330   19.9597 C   0  0  0  0  0  0  0  0  0  0  0  0
    7.3635   -0.6917   20.9679 N   0  0  0  0  0  0  0  0  0  0  0  0
    7.0534   -0.8894   22.3698 C   0  0  0  0  0  0  0  0  0  0  0  0
    6.1504   -1.4836   22.5532 H   0  0  0  0  0  0  0  0  0  0  0  0
    6.9683    0.0242   22.9692 H   0  0  0  0  0  0  0  0  0  0  0  0
    8.3974   -1.6562   22.4976 C   0  0  0  0  0  0  0  0  0  0  0  0
    8.2800   -2.7169   22.7480 H   0  0  0  0  0  0  0  0  0  0  0  0
    9.4872   -1.0848   23.3932 C   0  0  0  0  0  0  0  0  0  0  0  0
   10.6309   -1.0132   22.9779 O   0  0  0  0  0  0  0  0  0  0  0  0
    9.1340   -0.6511   24.7640 C   0  0  0  0  0  0  0  0  0  0  0  0
    9.8289    0.3079   25.4622 C   0  0  0  0  0  0  0  0  0  0  0  0
   10.7163    0.8581   25.1719 H   0  0  0  0  0  0  0  0  0  0  0  0
    9.2336    0.5167   26.6702 N   0  0  0  0  0  0  0  0  0  0  0  0
    9.5410    1.1538   27.3816 H   0  0  0  0  0  0  0  0  0  0  0  0
    8.1538   -0.3135   26.8118 C   0  0  0  0  0  0  0  0  0  0  0  0
    7.2616   -0.4484   27.8888 C   0  0  0  0  0  0  0  0  0  0  0  0
    7.3720    0.1580   28.7841 H   0  0  0  0  0  0  0  0  0  0  0  0
    6.2642   -1.4106   27.7889 C   0  0  0  0  0  0  0  0  0  0  0  0
    5.5755   -1.5667   28.6174 H   0  0  0  0  0  0  0  0  0  0  0  0
    6.1480   -2.2097   26.6259 C   0  0  0  0  0  0  0  0  0  0  0  0
    5.3636   -2.9576   26.5653 H   0  0  0  0  0  0  0  0  0  0  0  0
    7.0264   -2.0561   25.5605 C   0  0  0  0  0  0  0  0  0  0  0  0
    6.9327   -2.6699   24.6707 H   0  0  0  0  0  0  0  0  0  0  0  0
    8.0527   -1.0860   25.6362 C   0  0  0  0  0  0  0  0  0  0  0  0
    8.6258   -1.4093   20.9895 C   0  0  0  0  0  0  0  0  0  0  0  0
    8.6504   -2.3167   20.3862 H   0  0  0  0  0  0  0  0  0  0  0  0
    9.5147   -0.8235   20.7322 H   0  0  0  0  0  0  0  0  0  0  0  0
    5.4705    0.6232   20.1957 C   0  0  0  0  0  0  0  0  0  0  0  0
    5.0264    0.6182   21.1905 H   0  0  0  0  0  0  0  0  0  0  0  0
    4.8387    1.2807   19.1358 C   0  0  0  0  0  0  0  0  0  0  0  0
    3.9044    1.8129   19.2842 H   0  0  0  0  0  0  0  0  0  0  0  0
  1  2  1  0
  2  3  2  0
  3  4  1  0
  4  5  1  0
  4  6  2  0
  6  7  1  0
  7  8  1  0
  8  9  1  0
  8 10  1  0
  8 11  1  0
 11 12  1  0
 11 13  1  0
 13 14  2  0
 13 15  1  0
 15 16  2  0
 16 17  1  0
 16 18  1  0
 18 19  1  0
 18 20  1  0
 20 21  2  0
 21 22  1  0
 21 23  1  0
 23 24  1  0
 23 25  2  0
 25 26  1  0
 25 27  1  0
 27 28  1  0
 27 29  2  0
 11 30  1  0
 30 31  1  0
 30 32  1  0
  6 33  1  0
 33 34  1  0
 33 35  2  0
 35 36  1  0
 35  2  1  0
 30  7  1  0
 29 15  1  0
 29 20  1  0
M  END
>  <cnnaffinity>  (1) 
-5.4484

>  <filename>  (1) 
[H]c1nc([H])c(N2C([H])([H])C([H])(C(=O)c3c([H])n([H])c4c([H])c([H])c([H])c([H])c34)C2([H])[H])c([H])c1[H]

$$$$
