
     RDKit          3D

 35 37  0  0  0  0  0  0  0  0999 V2000
    4.8215    1.8213   16.8705 H   0  0  0  0  0  0  0  0  0  0  0  0
    5.3634    1.3263   17.6797 C   0  0  0  0  0  0  0  0  0  0  0  0
    6.5169    0.7386   17.3408 N   0  0  0  0  0  0  0  0  0  0  0  0
    7.2112    0.1260   18.3118 C   0  0  0  0  0  0  0  0  0  0  0  0
    8.1476   -0.3311   18.0068 H   0  0  0  0  0  0  0  0  0  0  0  0
    6.8192    0.0519   19.6789 C   0  0  0  0  0  0  0  0  0  0  0  0
    7.6635   -0.6496   20.5605 N   0  0  0  0  0  0  0  0  0  0  0  0
    8.0550   -1.5010   20.2081 H   0  0  0  0  0  0  0  0  0  0  0  0
    7.5913   -0.7065   21.9876 C   0  0  0  0  0  0  0  0  0  0  0  0
    8.5674   -1.0435   22.3885 H   0  0  0  0  0  0  0  0  0  0  0  0
    7.4083    0.2806   22.3970 H   0  0  0  0  0  0  0  0  0  0  0  0
    6.5499   -1.5859   22.5764 N   0  0  0  0  0  0  0  0  0  0  0  0
    5.3238   -3.0310   24.5346 C   0  0  0  0  0  0  0  0  0  0  0  0
    4.1261   -3.3406   24.3203 H   0  0  0  0  0  0  0  0  0  0  0  0
    5.9667   -1.0714   23.2582 H   0  0  0  0  0  0  0  0  0  0  0  0
    5.3290   -3.0282   24.5290 C   0  0  0  0  0  0  0  0  0  0  0  0
    5.1908   -3.2330   26.0479 C   0  0  0  0  0  0  0  0  0  0  0  0
    4.3241   -2.7262   26.4676 H   0  0  0  0  0  0  0  0  0  0  0  0
    6.1771   -3.9268   26.9802 C   0  0  0  0  0  0  0  0  0  0  0  0
    6.1032   -3.8947   28.0674 H   0  0  0  0  0  0  0  0  0  0  0  0
    7.1634   -4.6593   26.3535 C   0  0  0  0  0  0  0  0  0  0  0  0
    7.8554   -5.3284   26.8945 H   0  0  0  0  0  0  0  0  0  0  0  0
    7.2940   -4.6291   24.9674 C   0  0  0  0  0  0  0  0  0  0  0  0
    8.0492   -5.2836   24.4923 H   0  0  0  0  0  0  0  0  0  0  0  0
    6.5212   -3.9197   24.1411 C   0  0  0  0  0  0  0  0  0  0  0  0
    6.7628   -4.0056   22.6986 C   0  0  0  0  0  0  0  0  0  0  0  0
    6.5423   -5.0036   22.3156 H   0  0  0  0  0  0  0  0  0  0  0  0
    7.8477   -3.8557   22.6118 H   0  0  0  0  0  0  0  0  0  0  0  0
    6.1544   -2.8515   21.9303 C   0  0  0  0  0  0  0  0  0  0  0  0
    6.6443   -2.8779   20.9495 H   0  0  0  0  0  0  0  0  0  0  0  0
    5.0918   -3.0019   21.6603 H   0  0  0  0  0  0  0  0  0  0  0  0
    5.6211    0.6948   20.0115 C   0  0  0  0  0  0  0  0  0  0  0  0
    5.2657    0.7172   21.0405 H   0  0  0  0  0  0  0  0  0  0  0  0
    4.8714    1.3187   18.9874 C   0  0  0  0  0  0  0  0  0  0  0  0
    3.9207    1.7939   19.1964 H   0  0  0  0  0  0  0  0  0  0  0  0
  1  2  1  0
  2  3  2  0
  3  4  1  0
  4  5  1  0
  4  6  2  0
  6  7  1  0
  7  8  1  0
  7  9  1  0
  9 10  1  0
  9 11  1  0
  9 12  1  0
 12 13  1  0
 13 14  1  0
 13 15  1  0
 13 16  1  0
 16 17  2  0
 17 18  1  0
 17 19  1  0
 19 20  1  0
 19 21  2  0
 21 22  1  0
 21 23  1  0
 23 24  1  0
 23 25  2  0
 25 26  1  0
 26 27  1  0
 26 28  1  0
 26 29  1  0
 29 30  1  0
 29 31  1  0
  6 32  1  0
 32 33  1  0
 32 34  2  0
 34 35  1  0
 34  2  1  0
 29 12  1  0
 25 16  1  0
M  END
>  <cnnaffinity>  (1) 
-4.60372

>  <filename>  (1) 
[H]c1nc([H])c(N([H])C([H])([H])N2C([H])([H])c3c([H])c([H])c([H])c([H])c3C([H])([H])C2([H])[H])c([H])c1[H]

$$$$
