
     RDKit          3D

 30 32  0  0  0  0  0  0  0  0999 V2000
    4.9012    1.7870   16.9830 H   0  0  0  0  0  0  0  0  0  0  0  0
    5.3870    1.3130   17.8130 C   0  0  0  0  0  0  0  0  0  0  0  0
    6.5530    0.7088   17.5208 N   0  0  0  0  0  0  0  0  0  0  0  0
    7.1699    0.1296   18.5501 C   0  0  0  0  0  0  0  0  0  0  0  0
    8.1163   -0.4060   18.3524 H   0  0  0  0  0  0  0  0  0  0  0  0
    6.6404    0.1473   19.8836 C   0  0  0  0  0  0  0  0  0  0  0  0
    7.2794   -0.7038   20.8962 N   0  0  0  0  0  0  0  0  0  0  0  0
    7.6126   -0.2881   22.1595 C   0  0  0  0  0  0  0  0  0  0  0  0
    7.3312    1.1547   22.7366 C   0  0  0  0  0  0  0  0  0  0  0  0
    7.7766    2.1714   21.9587 N   0  0  0  0  0  0  0  0  0  0  0  0
    7.5814    3.4258   22.3698 C   0  0  0  0  0  0  0  0  0  0  0  0
    7.9572    4.2072   21.7253 H   0  0  0  0  0  0  0  0  0  0  0  0
    6.9405    3.7412   23.5638 C   0  0  0  0  0  0  0  0  0  0  0  0
    6.8200    4.7623   23.8653 H   0  0  0  0  0  0  0  0  0  0  0  0
    6.4491    2.7357   24.3700 C   0  0  0  0  0  0  0  0  0  0  0  0
    5.9433    2.9252   25.3031 H   0  0  0  0  0  0  0  0  0  0  0  0
    6.6301    1.4172   23.9488 C   0  0  0  0  0  0  0  0  0  0  0  0
    6.1453    0.2757   24.8091 C   0  0  0  0  0  0  0  0  0  0  0  0
    5.0883    0.6609   25.5609 F   0  0  0  0  0  0  0  0  0  0  0  0
    7.0906   -0.1979   25.6511 F   0  0  0  0  0  0  0  0  0  0  0  0
    5.8155   -0.8134   24.1464 F   0  0  0  0  0  0  0  0  0  0  0  0
    8.4142   -1.2625   22.9019 C   0  0  0  0  0  0  0  0  0  0  0  0
    8.7076   -1.1664   23.9794 H   0  0  0  0  0  0  0  0  0  0  0  0
    8.7293   -2.3202   22.4287 O   0  0  0  0  0  0  0  0  0  0  0  0
    7.5846   -2.1498   20.7047 C   0  0  0  0  0  0  0  0  0  0  0  0
    7.5844   -2.1493   20.7045 O   0  0  0  0  0  0  0  0  0  0  0  0
    5.3702    0.7059   20.1413 C   0  0  0  0  0  0  0  0  0  0  0  0
    4.9958    0.6370   21.1646 H   0  0  0  0  0  0  0  0  0  0  0  0
    4.7577    1.3438   19.0658 C   0  0  0  0  0  0  0  0  0  0  0  0
    3.8374    1.8652   19.2514 H   0  0  0  0  0  0  0  0  0  0  0  0
  1  2  1  0
  2  3  2  0
  3  4  1  0
  4  5  1  0
  4  6  2  0
  6  7  1  0
  7  8  1  0
  8  9  1  0
  9 10  2  0
 10 11  1  0
 11 12  1  0
 11 13  2  0
 13 14  1  0
 13 15  1  0
 15 16  1  0
 15 17  2  0
 17 18  1  0
 18 19  1  0
 18 20  1  0
 18 21  1  0
  8 22  2  0
 22 23  1  0
 22 24  1  0
 24 25  1  0
 25 26  2  0
  6 27  1  0
 27 28  1  0
 27 29  2  0
 29 30  1  0
 29  2  1  0
 25  7  1  0
 17  9  1  0
M  END
>  <cnnaffinity>  (1) 
-4.60467

>  <filename>  (1) 
[H]c1nc([H])c(-n2c(-c3nc([H])c([H])c([H])c3C(F)(F)F)c([H])oc2=O)c([H])c1[H]

$$$$
