
     RDKit          3D

 31 33  0  0  0  0  0  0  0  0999 V2000
    4.9115    1.8081   16.9712 H   0  0  0  0  0  0  0  0  0  0  0  0
    5.3828    1.3085   17.8150 C   0  0  0  0  0  0  0  0  0  0  0  0
    6.5462    0.6924   17.5464 N   0  0  0  0  0  0  0  0  0  0  0  0
    7.1532    0.0668   18.5606 C   0  0  0  0  0  0  0  0  0  0  0  0
    8.1115   -0.3937   18.3256 H   0  0  0  0  0  0  0  0  0  0  0  0
    6.6483    0.0096   19.8756 C   0  0  0  0  0  0  0  0  0  0  0  0
    7.3672   -0.6723   20.9566 C   0  0  0  0  0  0  0  0  0  0  0  0
    7.6015   -0.2967   22.2771 C   0  0  0  0  0  0  0  0  0  0  0  0
    7.1131    0.8687   22.9026 N   0  0  0  0  0  0  0  0  0  0  0  0
    6.8672    1.6100   22.2557 H   0  0  0  0  0  0  0  0  0  0  0  0
    7.6948    1.3761   24.4172 S   0  0  0  0  0  0  0  0  0  0  0  0
    9.2645    2.1458   23.9913 C   0  0  0  0  0  0  0  0  0  0  0  0
    9.2776    3.5081   23.6562 C   0  0  0  0  0  0  0  0  0  0  0  0
    8.3441    4.0646   23.6781 H   0  0  0  0  0  0  0  0  0  0  0  0
   10.4656    4.1149   23.2401 C   0  0  0  0  0  0  0  0  0  0  0  0
   10.4521    5.1602   22.9377 H   0  0  0  0  0  0  0  0  0  0  0  0
   11.6495    3.3695   23.1819 C   0  0  0  0  0  0  0  0  0  0  0  0
   12.5702    3.8427   22.8509 H   0  0  0  0  0  0  0  0  0  0  0  0
   11.6466    2.0174   23.5466 C   0  0  0  0  0  0  0  0  0  0  0  0
   12.5617    1.4300   23.4950 H   0  0  0  0  0  0  0  0  0  0  0  0
   10.4569    1.4096   23.9643 C   0  0  0  0  0  0  0  0  0  0  0  0
   10.4487    0.3585   24.2417 H   0  0  0  0  0  0  0  0  0  0  0  0
    8.3242   -1.3778   22.8440 C   0  0  0  0  0  0  0  0  0  0  0  0
    8.6740   -1.4929   23.8661 H   0  0  0  0  0  0  0  0  0  0  0  0
    8.5219   -2.3521   21.9577 N   0  0  0  0  0  0  0  0  0  0  0  0
    7.9475   -1.8957   20.8339 N   0  0  0  0  0  0  0  0  0  0  0  0
    7.9227   -2.4834   20.0121 H   0  0  0  0  0  0  0  0  0  0  0  0
    5.4301    0.6624   20.1348 C   0  0  0  0  0  0  0  0  0  0  0  0
    5.0202    0.6292   21.1481 H   0  0  0  0  0  0  0  0  0  0  0  0
    4.7901    1.3199   19.0834 C   0  0  0  0  0  0  0  0  0  0  0  0
    3.8622    1.8501   19.2380 H   0  0  0  0  0  0  0  0  0  0  0  0
  1  2  1  0
  2  3  2  0
  3  4  1  0
  4  5  1  0
  4  6  2  0
  6  7  1  0
  7  8  2  0
  8  9  1  0
  9 10  1  0
  9 11  1  0
 11 12  1  0
 12 13  2  0
 13 14  1  0
 13 15  1  0
 15 16  1  0
 15 17  2  0
 17 18  1  0
 17 19  1  0
 19 20  1  0
 19 21  2  0
 21 22  1  0
  8 23  1  0
 23 24  1  0
 23 25  2  0
 25 26  1  0
 26 27  1  0
  6 28  1  0
 28 29  1  0
 28 30  2  0
 30 31  1  0
 30  2  1  0
 26  7  1  0
 21 12  1  0
M  END
>  <cnnaffinity>  (1) 
-5.49334

>  <filename>  (1) 
[H]c1nc([H])c(-c2c(N([H])Sc3c([H])c([H])c([H])c([H])c3[H])c([H])nn2[H])c([H])c1[H]

$$$$
