
     RDKit          3D

 36 37  0  0  0  0  0  0  0  0999 V2000
    4.9976    1.7890   16.9650 H   0  0  0  0  0  0  0  0  0  0  0  0
    5.4517    1.2753   17.8091 C   0  0  0  0  0  0  0  0  0  0  0  0
    6.6045    0.6282   17.5655 N   0  0  0  0  0  0  0  0  0  0  0  0
    7.1916   -0.0018   18.5914 C   0  0  0  0  0  0  0  0  0  0  0  0
    8.1292   -0.5199   18.3854 H   0  0  0  0  0  0  0  0  0  0  0  0
    6.6773   -0.0085   19.9057 C   0  0  0  0  0  0  0  0  0  0  0  0
    7.3538   -0.6724   20.9583 N   0  0  0  0  0  0  0  0  0  0  0  0
    7.8623   -1.5247   20.7823 H   0  0  0  0  0  0  0  0  0  0  0  0
    7.3467   -0.2758   22.2824 C   0  0  0  0  0  0  0  0  0  0  0  0
    6.9430    0.8046   22.6648 O   0  0  0  0  0  0  0  0  0  0  0  0
    7.8611   -1.2312   23.1915 N   0  0  0  0  0  0  0  0  0  0  0  0
    7.9538   -2.5973   22.8936 N   0  0  0  0  0  0  0  0  0  0  0  0
    7.0819   -3.1182   22.9071 H   0  0  0  0  0  0  0  0  0  0  0  0
    9.0034   -3.3963   23.2807 C   0  0  0  0  0  0  0  0  0  0  0  0
   10.5026   -2.8971   23.7479 S   0  0  0  0  0  0  0  0  0  0  0  0
    8.7181   -4.7294   23.2001 N   0  0  0  0  0  0  0  0  0  0  0  0
    9.5444   -5.2479   23.4598 H   0  0  0  0  0  0  0  0  0  0  0  0
    7.4794   -5.4073   23.3710 C   0  0  0  0  0  0  0  0  0  0  0  0
    6.4715   -4.9513   24.2352 C   0  0  0  0  0  0  0  0  0  0  0  0
    6.6338   -4.0626   24.8383 H   0  0  0  0  0  0  0  0  0  0  0  0
    5.2943   -5.6942   24.3714 C   0  0  0  0  0  0  0  0  0  0  0  0
    4.5262   -5.3370   25.0508 H   0  0  0  0  0  0  0  0  0  0  0  0
    5.0963   -6.8535   23.6186 C   0  0  0  0  0  0  0  0  0  0  0  0
    4.1691   -7.4088   23.7132 H   0  0  0  0  0  0  0  0  0  0  0  0
    6.1014   -7.2993   22.7504 C   0  0  0  0  0  0  0  0  0  0  0  0
    6.0086   -8.2372   22.2174 H   0  0  0  0  0  0  0  0  0  0  0  0
    7.2999   -6.5904   22.6517 C   0  0  0  0  0  0  0  0  0  0  0  0
    8.1207   -6.9442   22.0425 H   0  0  0  0  0  0  0  0  0  0  0  0
    8.0323   -0.8240   24.5866 C   0  0  0  0  0  0  0  0  0  0  0  0
    8.2485   -1.7028   25.1970 H   0  0  0  0  0  0  0  0  0  0  0  0
    7.1263   -0.3395   24.9581 H   0  0  0  0  0  0  0  0  0  0  0  0
    8.8630   -0.1190   24.6748 H   0  0  0  0  0  0  0  0  0  0  0  0
    5.4675    0.6572   20.1402 C   0  0  0  0  0  0  0  0  0  0  0  0
    5.0568    0.6726   21.1464 H   0  0  0  0  0  0  0  0  0  0  0  0
    4.8453    1.3022   19.0684 C   0  0  0  0  0  0  0  0  0  0  0  0
    3.9165    1.8408   19.2146 H   0  0  0  0  0  0  0  0  0  0  0  0
  1  2  1  0
  2  3  2  0
  3  4  1  0
  4  5  1  0
  4  6  2  0
  6  7  1  0
  7  8  1  0
  7  9  1  0
  9 10  2  0
  9 11  1  0
 11 12  1  0
 12 13  1  0
 12 14  1  0
 14 15  2  0
 14 16  1  0
 16 17  1  0
 16 18  1  0
 18 19  2  0
 19 20  1  0
 19 21  1  0
 21 22  1  0
 21 23  2  0
 23 24  1  0
 23 25  1  0
 25 26  1  0
 25 27  2  0
 27 28  1  0
 11 29  1  0
 29 30  1  0
 29 31  1  0
 29 32  1  0
  6 33  1  0
 33 34  1  0
 33 35  2  0
 35 36  1  0
 35  2  1  0
 27 18  1  0
M  END
>  <cnnaffinity>  (1) 
-5.34106

>  <filename>  (1) 
[H]c1nc([H])c(N([H])C(=O)N(N([H])C(=S)N([H])c2c([H])c([H])c([H])c([H])c2[H])C([H])([H])[H])c([H])c1[H]

$$$$
