
     RDKit          3D

 27 29  0  0  0  0  0  0  0  0999 V2000
    8.3017   -1.1769   20.7435 H   0  0  0  0  0  0  0  0  0  0  0  0
    7.3479   -0.6917   21.0019 C   0  0  0  0  0  0  0  0  0  0  0  0
    6.8832   -0.7456   22.1926 N   0  0  0  0  0  0  0  0  0  0  0  0
    7.6262   -1.4199   23.1212 C   0  0  0  0  0  0  0  0  0  0  0  0
    8.7695   -2.0662   22.9983 N   0  0  0  0  0  0  0  0  0  0  0  0
    9.0157   -2.5530   24.2538 C   0  0  0  0  0  0  0  0  0  0  0  0
   10.0760   -3.3524   24.7130 C   0  0  0  0  0  0  0  0  0  0  0  0
   10.8986   -3.6077   24.0473 H   0  0  0  0  0  0  0  0  0  0  0  0
   10.0283   -3.8274   26.0226 C   0  0  0  0  0  0  0  0  0  0  0  0
   10.8408   -4.4433   26.3891 H   0  0  0  0  0  0  0  0  0  0  0  0
    8.9708   -3.4866   26.8904 C   0  0  0  0  0  0  0  0  0  0  0  0
    8.9461   -3.9324   27.8830 H   0  0  0  0  0  0  0  0  0  0  0  0
    7.9566   -2.6206   26.4852 C   0  0  0  0  0  0  0  0  0  0  0  0
    7.1904   -2.2904   27.1757 H   0  0  0  0  0  0  0  0  0  0  0  0
    7.9736   -2.1763   25.1601 C   0  0  0  0  0  0  0  0  0  0  0  0
    7.1198   -1.4403   24.3803 N   0  0  0  0  0  0  0  0  0  0  0  0
    6.2329   -1.0084   24.5312 H   0  0  0  0  0  0  0  0  0  0  0  0
    6.6333    0.0072   19.9392 C   0  0  0  0  0  0  0  0  0  0  0  0
    7.1757    0.0349   18.6476 C   0  0  0  0  0  0  0  0  0  0  0  0
    8.1305   -0.4558   18.4436 H   0  0  0  0  0  0  0  0  0  0  0  0
    6.5930    0.6429   17.6137 N   0  0  0  0  0  0  0  0  0  0  0  0
    5.4284    1.2731   17.8466 C   0  0  0  0  0  0  0  0  0  0  0  0
    4.9828    1.7732   16.9915 H   0  0  0  0  0  0  0  0  0  0  0  0
    4.8007    1.3102   19.0968 C   0  0  0  0  0  0  0  0  0  0  0  0
    3.8663    1.8494   19.2214 H   0  0  0  0  0  0  0  0  0  0  0  0
    5.4103    0.6670   20.1662 C   0  0  0  0  0  0  0  0  0  0  0  0
    4.9788    0.6600   21.1665 H   0  0  0  0  0  0  0  0  0  0  0  0
  1  2  1  0
  2  3  2  3
  3  4  1  0
  4  5  2  0
  5  6  1  0
  6  7  2  0
  7  8  1  0
  7  9  1  0
  9 10  1  0
  9 11  2  0
 11 12  1  0
 11 13  1  0
 13 14  1  0
 13 15  2  0
 15 16  1  0
 16 17  1  0
  2 18  1  0
 18 19  2  0
 19 20  1  0
 19 21  1  0
 21 22  2  0
 22 23  1  0
 22 24  1  0
 24 25  1  0
 24 26  2  0
 26 27  1  0
 16  4  1  0
 26 18  1  0
 15  6  1  0
M  END
>  <cnnaffinity>  (1) 
-4.62538

>  <filename>  (1) 
[H]C(=Nc1nc2c([H])c([H])c([H])c([H])c2n1[H])c1c([H])nc([H])c([H])c1[H]

$$$$
