
     RDKit          3D

 34 36  0  0  0  0  0  0  0  0999 V2000
    8.2771    0.1377   21.3769 H   0  0  0  0  0  0  0  0  0  0  0  0
    7.4601   -0.4684   20.9990 C   0  0  0  0  0  0  0  0  0  0  0  0
    7.3386   -1.7746   21.4252 C   0  0  0  0  0  0  0  0  0  0  0  0
    5.9542   -2.8983   20.7024 Br  0  0  0  0  0  0  0  0  0  0  0  0
    8.3446   -2.3762   22.3832 C   0  0  0  0  0  0  0  0  0  0  0  0
    8.4620   -3.4260   22.1106 H   0  0  0  0  0  0  0  0  0  0  0  0
    7.9963   -2.3480   23.4211 H   0  0  0  0  0  0  0  0  0  0  0  0
    9.7006   -1.7201   22.3045 C   0  0  0  0  0  0  0  0  0  0  0  0
   10.5757   -2.1404   21.3158 C   0  0  0  0  0  0  0  0  0  0  0  0
   10.1662   -2.8146   20.5744 H   0  0  0  0  0  0  0  0  0  0  0  0
   11.9124   -1.7245   21.2916 C   0  0  0  0  0  0  0  0  0  0  0  0
   12.6084   -2.1044   20.5453 H   0  0  0  0  0  0  0  0  0  0  0  0
   12.3487   -0.7838   22.2231 C   0  0  0  0  0  0  0  0  0  0  0  0
   13.6789   -0.3523   22.2125 C   0  0  0  0  0  0  0  0  0  0  0  0
   14.3964   -0.8144   21.5396 H   0  0  0  0  0  0  0  0  0  0  0  0
   14.0587    0.7075   23.0327 C   0  0  0  0  0  0  0  0  0  0  0  0
   15.0641    1.0996   22.9799 H   0  0  0  0  0  0  0  0  0  0  0  0
   13.1350    1.2834   23.9027 C   0  0  0  0  0  0  0  0  0  0  0  0
   13.4404    2.1155   24.5082 H   0  0  0  0  0  0  0  0  0  0  0  0
   11.8297    0.7961   23.9978 C   0  0  0  0  0  0  0  0  0  0  0  0
   11.1279    1.2313   24.7029 H   0  0  0  0  0  0  0  0  0  0  0  0
   11.4249   -0.2386   23.1481 C   0  0  0  0  0  0  0  0  0  0  0  0
   10.1159   -0.7366   23.2026 C   0  0  0  0  0  0  0  0  0  0  0  0
    9.4178   -0.3613   23.9461 H   0  0  0  0  0  0  0  0  0  0  0  0
    6.6468    0.1035   19.9297 C   0  0  0  0  0  0  0  0  0  0  0  0
    7.1577    0.0844   18.6201 C   0  0  0  0  0  0  0  0  0  0  0  0
    8.1108   -0.4093   18.4626 H   0  0  0  0  0  0  0  0  0  0  0  0
    6.5455    0.6566   17.5702 N   0  0  0  0  0  0  0  0  0  0  0  0
    5.3792    1.2810   17.8045 C   0  0  0  0  0  0  0  0  0  0  0  0
    4.8925    1.7702   16.9688 H   0  0  0  0  0  0  0  0  0  0  0  0
    4.7892    1.3317   19.0769 C   0  0  0  0  0  0  0  0  0  0  0  0
    3.8546    1.8699   19.1952 H   0  0  0  0  0  0  0  0  0  0  0  0
    5.4223    0.7332   20.1691 C   0  0  0  0  0  0  0  0  0  0  0  0
    4.9873    0.7918   21.1686 H   0  0  0  0  0  0  0  0  0  0  0  0
  1  2  1  0
  2  3  2  3
  3  4  1  0
  3  5  1  0
  5  6  1  0
  5  7  1  0
  5  8  1  0
  8  9  2  0
  9 10  1  0
  9 11  1  0
 11 12  1  0
 11 13  2  0
 13 14  1  0
 14 15  1  0
 14 16  2  0
 16 17  1  0
 16 18  1  0
 18 19  1  0
 18 20  2  0
 20 21  1  0
 20 22  1  0
 22 23  2  0
 23 24  1  0
  2 25  1  0
 25 26  2  0
 26 27  1  0
 26 28  1  0
 28 29  2  0
 29 30  1  0
 29 31  1  0
 31 32  1  0
 31 33  2  0
 33 34  1  0
 23  8  1  0
 33 25  1  0
 22 13  1  0
M  END
>  <cnnaffinity>  (1) 
-5.58198

>  <filename>  (1) 
[H]C(=C(Br)C([H])([H])c1c([H])c([H])c2c([H])c([H])c([H])c([H])c2c1[H])c1c([H])nc([H])c([H])c1[H]

$$$$
