
     RDKit          3D

 39 41  0  0  0  0  0  0  0  0999 V2000
   11.1428   -4.4257   25.1171 H   0  0  0  0  0  0  0  0  0  0  0  0
   10.1163   -4.7497   24.9594 C   0  0  0  0  0  0  0  0  0  0  0  0
    9.4800   -4.1433   23.9533 N   0  0  0  0  0  0  0  0  0  0  0  0
    8.1850   -4.4586   23.7053 C   0  0  0  0  0  0  0  0  0  0  0  0
    7.4611   -3.7504   22.5156 C   0  0  0  0  0  0  0  0  0  0  0  0
    6.2940   -3.9745   22.2261 O   0  0  0  0  0  0  0  0  0  0  0  0
    8.2375   -2.8549   21.8415 N   0  0  0  0  0  0  0  0  0  0  0  0
    9.1942   -2.8097   22.1729 H   0  0  0  0  0  0  0  0  0  0  0  0
    7.7628   -1.9704   20.8012 C   0  0  0  0  0  0  0  0  0  0  0  0
    8.5291   -1.9339   20.0226 H   0  0  0  0  0  0  0  0  0  0  0  0
    6.8602   -2.4083   20.3667 H   0  0  0  0  0  0  0  0  0  0  0  0
    7.5341   -0.4768   21.1914 C   0  0  1  0  0  0  0  0  0  0  0  0
    6.7016    0.1761   20.0664 C   0  0  0  0  0  0  0  0  0  0  0  0
    7.2123    0.1517   18.7488 C   0  0  0  0  0  0  0  0  0  0  0  0
    8.1514   -0.3590   18.5248 H   0  0  0  0  0  0  0  0  0  0  0  0
    6.6147    0.7020   17.6841 N   0  0  0  0  0  0  0  0  0  0  0  0
    5.4322    1.2972   17.8835 C   0  0  0  0  0  0  0  0  0  0  0  0
    4.9780    1.7497   17.0051 H   0  0  0  0  0  0  0  0  0  0  0  0
    4.7924    1.3375   19.1243 C   0  0  0  0  0  0  0  0  0  0  0  0
    3.8243    1.8177   19.2184 H   0  0  0  0  0  0  0  0  0  0  0  0
    5.4349    0.7627   20.2285 C   0  0  0  0  0  0  0  0  0  0  0  0
    4.9481    0.7719   21.2035 H   0  0  0  0  0  0  0  0  0  0  0  0
    6.9921   -0.2571   22.6296 C   0  0  0  0  0  0  0  0  0  0  0  0
    5.9109   -0.3414   22.7068 H   0  0  0  0  0  0  0  0  0  0  0  0
    7.4145   -1.0157   23.2951 H   0  0  0  0  0  0  0  0  0  0  0  0
    7.4615    1.0570   23.0793 N   0  0  0  0  0  0  0  0  0  0  0  0
    6.7574    1.7575   22.8887 H   0  0  0  0  0  0  0  0  0  0  0  0
    8.6884    1.3827   22.3342 C   0  0  0  0  0  0  0  0  0  0  0  0
    9.5411    1.5048   23.0161 H   0  0  0  0  0  0  0  0  0  0  0  0
    8.5828    2.3322   21.7939 H   0  0  0  0  0  0  0  0  0  0  0  0
    8.9223    0.2058   21.3818 C   0  0  0  0  0  0  0  0  0  0  0  0
    9.5685   -0.5285   21.8839 H   0  0  0  0  0  0  0  0  0  0  0  0
    9.3991    0.4829   20.4360 H   0  0  0  0  0  0  0  0  0  0  0  0
    7.4867   -5.3819   24.5006 C   0  0  0  0  0  0  0  0  0  0  0  0
    6.4275   -5.5545   24.3190 H   0  0  0  0  0  0  0  0  0  0  0  0
    8.1763   -6.0501   25.5218 C   0  0  0  0  0  0  0  0  0  0  0  0
    7.6850   -6.8030   26.1392 H   0  0  0  0  0  0  0  0  0  0  0  0
    9.5168   -5.7271   25.7578 C   0  0  0  0  0  0  0  0  0  0  0  0
   10.1040   -6.1868   26.5472 H   0  0  0  0  0  0  0  0  0  0  0  0
  1  2  1  0
  2  3  2  0
  3  4  1  0
  4  5  1  0
  5  6  2  0
  5  7  1  0
  7  8  1  0
  7  9  1  0
  9 10  1  0
  9 11  1  0
 12  9  1  6
 12 13  1  0
 13 14  2  0
 14 15  1  0
 14 16  1  0
 16 17  2  0
 17 18  1  0
 17 19  1  0
 19 20  1  0
 19 21  2  0
 21 22  1  0
 12 23  1  0
 23 24  1  0
 23 25  1  0
 23 26  1  0
 26 27  1  0
 26 28  1  0
 28 29  1  0
 28 30  1  0
 28 31  1  0
 31 32  1  0
 31 33  1  0
  4 34  2  0
 34 35  1  0
 34 36  1  0
 36 37  1  0
 36 38  2  0
 38 39  1  0
 38  2  1  0
 31 12  1  0
 21 13  1  0
M  END
>  <cnnaffinity>  (1) 
-4.80092

>  <filename>  (1) 
[H]c1nc(C(=O)N([H])C([H])([H])[C@@]2(c3c([H])nc([H])c([H])c3[H])C([H])([H])N([H])C([H])([H])C2([H])[H])c([H])c([H])c1[H]

$$$$
