
     RDKit          3D

 38 39  0  0  0  0  0  0  0  0999 V2000
    9.2033   -2.1845   20.7469 C   0  0  0  0  0  0  0  0  0  0  0  0
    7.6855   -2.0339   20.8416 C   0  0  0  0  0  0  0  0  0  0  0  0
    7.3297   -0.6212   21.0083 N   0  0  0  0  0  0  0  0  0  0  0  0
    7.5991   -0.0669   22.2622 C   0  0  0  0  0  0  0  0  0  0  0  0
    7.7998   -0.7759   23.2399 O   0  0  0  0  0  0  0  0  0  0  0  0
    7.6791    1.4102   22.3135 C   0  0  0  0  0  0  0  0  0  0  0  0
    7.8380    2.0934   23.4600 C   0  0  0  0  0  0  0  0  0  0  0  0
    7.9221    3.5528   23.6039 C   0  0  0  0  0  0  0  0  0  0  0  0
    7.4253    4.4329   22.6252 C   0  0  0  0  0  0  0  0  0  0  0  0
    7.5324    5.8131   22.8066 C   0  0  0  0  0  0  0  0  0  0  0  0
    8.1371    6.3283   23.9553 C   0  0  0  0  0  0  0  0  0  0  0  0
    8.6344    5.4683   24.9469 C   0  0  0  0  0  0  0  0  0  0  0  0
    9.2325    6.0427   26.2161 C   0  0  0  0  0  0  0  0  0  0  0  0
    8.3037    6.1922   27.1807 F   0  0  0  0  0  0  0  0  0  0  0  0
    9.7838    7.2545   26.0125 F   0  0  0  0  0  0  0  0  0  0  0  0
   10.1966    5.2639   26.7300 F   0  0  0  0  0  0  0  0  0  0  0  0
    8.5170    4.0847   24.7668 C   0  0  0  0  0  0  0  0  0  0  0  0
    8.9017    3.3901   25.5105 H   0  0  0  0  0  0  0  0  0  0  0  0
    8.2256    7.4046   24.0741 H   0  0  0  0  0  0  0  0  0  0  0  0
    7.1448    6.4810   22.0422 H   0  0  0  0  0  0  0  0  0  0  0  0
    6.9452    4.0263   21.7359 H   0  0  0  0  0  0  0  0  0  0  0  0
    7.9327    1.5145   24.3813 H   0  0  0  0  0  0  0  0  0  0  0  0
    7.6373    1.8763   21.3391 H   0  0  0  0  0  0  0  0  0  0  0  0
    6.6730    0.0584   19.9302 C   0  0  0  0  0  0  0  0  0  0  0  0
    5.4390    0.6831   20.1512 C   0  0  0  0  0  0  0  0  0  0  0  0
    4.7959    1.3201   19.0850 C   0  0  0  0  0  0  0  0  0  0  0  0
    5.3953    1.2989   17.8209 C   0  0  0  0  0  0  0  0  0  0  0  0
    6.5577    0.6755   17.5774 N   0  0  0  0  0  0  0  0  0  0  0  0
    7.1710    0.0693   18.6039 C   0  0  0  0  0  0  0  0  0  0  0  0
    8.1077   -0.4296   18.3615 H   0  0  0  0  0  0  0  0  0  0  0  0
    4.9324    1.8038   16.9754 H   0  0  0  0  0  0  0  0  0  0  0  0
    3.8574    1.8432   19.2266 H   0  0  0  0  0  0  0  0  0  0  0  0
    5.0092    0.6495   21.1516 H   0  0  0  0  0  0  0  0  0  0  0  0
    7.2869   -2.6022   21.6940 H   0  0  0  0  0  0  0  0  0  0  0  0
    7.1582   -2.3669   19.9399 H   0  0  0  0  0  0  0  0  0  0  0  0
    9.5783   -1.5407   19.9457 H   0  0  0  0  0  0  0  0  0  0  0  0
    9.4860   -3.2160   20.5390 H   0  0  0  0  0  0  0  0  0  0  0  0
    9.7002   -1.8931   21.6764 H   0  0  0  0  0  0  0  0  0  0  0  0
  1  2  1  0
  2  3  1  0
  3  4  1  0
  4  5  2  0
  4  6  1  0
  6  7  2  3
  7  8  1  0
  8  9  2  0
  9 10  1  0
 10 11  2  0
 11 12  1  0
 12 13  1  0
 13 14  1  0
 13 15  1  0
 13 16  1  0
 12 17  2  0
 17 18  1  0
 11 19  1  0
 10 20  1  0
  9 21  1  0
  7 22  1  0
  6 23  1  0
  3 24  1  0
 24 25  2  0
 25 26  1  0
 26 27  2  0
 27 28  1  0
 28 29  2  0
 29 30  1  0
 27 31  1  0
 26 32  1  0
 25 33  1  0
  2 34  1  0
  2 35  1  0
  1 36  1  0
  1 37  1  0
  1 38  1  0
 17  8  1  0
 29 24  1  0
M  END
>  <cnnaffinity>  (1) 
-5.17489

>  <filename>  (1) 
[H]C(C(=O)N(c1c([H])nc([H])c([H])c1[H])C([H])([H])C([H])([H])[H])=C([H])c1c([H])c([H])c([H])c(C(F)(F)F)c1[H]

$$$$
