
     RDKit          3D

 30 32  0  0  0  0  0  0  0  0999 V2000
    5.1265    1.8109   16.8509 H   0  0  0  0  0  0  0  0  0  0  0  0
    5.5656    1.3027   17.7012 C   0  0  0  0  0  0  0  0  0  0  0  0
    6.7844    0.7543   17.5581 N   0  0  0  0  0  0  0  0  0  0  0  0
    7.3300    0.1486   18.6222 C   0  0  0  0  0  0  0  0  0  0  0  0
    8.3280   -0.2813   18.5376 H   0  0  0  0  0  0  0  0  0  0  0  0
    6.6524    0.0473   19.8401 C   0  0  0  0  0  0  0  0  0  0  0  0
    7.3174   -0.5863   20.9342 C   0  0  0  0  0  0  0  0  0  0  0  0
    8.5718   -0.2599   21.1254 N   0  0  0  0  0  0  0  0  0  0  0  0
    9.2853   -0.8148   22.1617 N   0  0  0  0  0  0  0  0  0  0  0  0
   10.5980   -0.3727   22.2661 C   0  0  0  0  0  0  0  0  0  0  0  0
   10.8940    0.9791   22.5054 C   0  0  0  0  0  0  0  0  0  0  0  0
   10.0869    1.6918   22.6407 H   0  0  0  0  0  0  0  0  0  0  0  0
   12.2215    1.4127   22.5876 C   0  0  0  0  0  0  0  0  0  0  0  0
   12.4283    2.4502   22.8485 H   0  0  0  0  0  0  0  0  0  0  0  0
   13.2522    0.5003   22.3173 C   0  0  0  0  0  0  0  0  0  0  0  0
   14.2901    0.8221   22.3223 H   0  0  0  0  0  0  0  0  0  0  0  0
   12.9412   -0.8287   21.9930 C   0  0  0  0  0  0  0  0  0  0  0  0
   14.2627   -2.0433   21.4034 Br  0  0  0  0  0  0  0  0  0  0  0  0
   11.6235   -1.2723   22.0144 C   0  0  0  0  0  0  0  0  0  0  0  0
   11.3819   -2.3044   21.7778 H   0  0  0  0  0  0  0  0  0  0  0  0
    8.7818   -1.8390   22.9752 C   0  0  0  0  0  0  0  0  0  0  0  0
    9.4459   -2.4254   23.8282 O   0  0  0  0  0  0  0  0  0  0  0  0
    7.3677   -2.1840   22.7997 C   0  0  0  0  0  0  0  0  0  0  0  0
    6.9123   -2.8982   23.4750 H   0  0  0  0  0  0  0  0  0  0  0  0
    6.6420   -1.5532   21.8028 C   0  0  0  0  0  0  0  0  0  0  0  0
    5.5867   -1.7490   21.6393 H   0  0  0  0  0  0  0  0  0  0  0  0
    5.3931    0.6051   20.0027 C   0  0  0  0  0  0  0  0  0  0  0  0
    4.8812    0.5725   20.9649 H   0  0  0  0  0  0  0  0  0  0  0  0
    4.8522    1.2475   18.9023 C   0  0  0  0  0  0  0  0  0  0  0  0
    3.8908    1.7302   18.9747 H   0  0  0  0  0  0  0  0  0  0  0  0
  1  2  1  0
  2  3  2  0
  3  4  1  0
  4  5  1  0
  4  6  2  0
  6  7  1  0
  7  8  2  0
  8  9  1  0
  9 10  1  0
 10 11  2  0
 11 12  1  0
 11 13  1  0
 13 14  1  0
 13 15  2  0
 15 16  1  0
 15 17  1  0
 17 18  1  0
 17 19  2  0
 19 20  1  0
  9 21  1  0
 21 22  2  0
 21 23  1  0
 23 24  1  0
 23 25  2  0
 25 26  1  0
  6 27  1  0
 27 28  1  0
 27 29  2  0
 29 30  1  0
 29  2  1  0
 25  7  1  0
 19 10  1  0
M  END
>  <cnnaffinity>  (1) 
-5.06549

>  <filename>  (1) 
[H]c1nc([H])c(-c2nn(-c3c([H])c([H])c([H])c(Br)c3[H])c(=O)c([H])c2[H])c([H])c1[H]

$$$$
