
     RDKit          3D

 31 34  0  0  0  0  0  0  0  0999 V2000
    4.9671    1.7990   16.9964 H   0  0  0  0  0  0  0  0  0  0  0  0
    5.4170    1.2843   17.8377 C   0  0  0  0  0  0  0  0  0  0  0  0
    6.5802    0.6588   17.5889 N   0  0  0  0  0  0  0  0  0  0  0  0
    7.1828    0.0546   18.6173 C   0  0  0  0  0  0  0  0  0  0  0  0
    8.1334   -0.4399   18.4063 H   0  0  0  0  0  0  0  0  0  0  0  0
    6.6606    0.0474   19.9263 C   0  0  0  0  0  0  0  0  0  0  0  0
    7.3543   -0.6404   20.9655 N   0  0  0  0  0  0  0  0  0  0  0  0
    7.6561   -0.2361   22.2558 C   0  0  0  0  0  0  0  0  0  0  0  0
    7.3704    1.1034   22.7721 C   0  0  0  0  0  0  0  0  0  0  0  0
    7.5699    2.2661   22.0956 C   0  0  0  0  0  0  0  0  0  0  0  0
    7.9133    2.3592   21.0738 H   0  0  0  0  0  0  0  0  0  0  0  0
    7.1614    3.6798   22.9949 S   0  0  0  0  0  0  0  0  0  0  0  0
    6.6661    2.7113   24.3590 C   0  0  0  0  0  0  0  0  0  0  0  0
    6.1656    3.1627   25.5959 C   0  0  0  0  0  0  0  0  0  0  0  0
    6.0796    4.2243   25.8092 H   0  0  0  0  0  0  0  0  0  0  0  0
    5.7955    2.2201   26.5496 C   0  0  0  0  0  0  0  0  0  0  0  0
    5.4215    2.5455   27.5206 H   0  0  0  0  0  0  0  0  0  0  0  0
    5.9112    0.8357   26.2812 C   0  0  0  0  0  0  0  0  0  0  0  0
    5.6123    0.1122   27.0355 H   0  0  0  0  0  0  0  0  0  0  0  0
    6.4162    0.3876   25.0688 C   0  0  0  0  0  0  0  0  0  0  0  0
    6.5280   -0.6721   24.8400 H   0  0  0  0  0  0  0  0  0  0  0  0
    6.8251    1.3331   24.0967 C   0  0  0  0  0  0  0  0  0  0  0  0
    8.2195   -1.2144   22.9332 N   0  0  0  0  0  0  0  0  0  0  0  0
    8.2876   -2.2818   22.0837 C   0  0  0  0  0  0  0  0  0  0  0  0
    8.7609   -3.1988   22.4060 H   0  0  0  0  0  0  0  0  0  0  0  0
    7.7216   -1.9683   20.8814 C   0  0  0  0  0  0  0  0  0  0  0  0
    7.3623   -2.5403   20.0487 H   0  0  0  0  0  0  0  0  0  0  0  0
    5.4230    0.6658   20.1649 C   0  0  0  0  0  0  0  0  0  0  0  0
    4.9741    0.6417   21.1599 H   0  0  0  0  0  0  0  0  0  0  0  0
    4.7983    1.3025   19.0913 C   0  0  0  0  0  0  0  0  0  0  0  0
    3.8576    1.8255   19.2248 H   0  0  0  0  0  0  0  0  0  0  0  0
  1  2  1  0
  2  3  2  0
  3  4  1  0
  4  5  1  0
  4  6  2  0
  6  7  1  0
  7  8  1  0
  8  9  1  0
  9 10  2  0
 10 11  1  0
 10 12  1  0
 12 13  1  0
 13 14  2  0
 14 15  1  0
 14 16  1  0
 16 17  1  0
 16 18  2  0
 18 19  1  0
 18 20  1  0
 20 21  1  0
 20 22  2  0
  8 23  2  0
 23 24  1  0
 24 25  1  0
 24 26  2  0
 26 27  1  0
  6 28  1  0
 28 29  1  0
 28 30  2  0
 30 31  1  0
 30  2  1  0
 26  7  1  0
 22  9  1  0
 22 13  1  0
M  END
>  <cnnaffinity>  (1) 
-5.32321

>  <filename>  (1) 
[H]c1nc([H])c(-n2c(-c3c([H])sc4c([H])c([H])c([H])c([H])c34)nc([H])c2[H])c([H])c1[H]

$$$$
