
     RDKit          3D

 36 38  0  0  0  0  0  0  0  0999 V2000
    4.9153    1.7913   16.9828 H   0  0  0  0  0  0  0  0  0  0  0  0
    5.3908    1.2973   17.8280 C   0  0  0  0  0  0  0  0  0  0  0  0
    6.5519    0.6796   17.5658 N   0  0  0  0  0  0  0  0  0  0  0  0
    7.1667    0.0792   18.5991 C   0  0  0  0  0  0  0  0  0  0  0  0
    8.1111   -0.4128   18.3784 H   0  0  0  0  0  0  0  0  0  0  0  0
    6.6728    0.0322   19.9183 C   0  0  0  0  0  0  0  0  0  0  0  0
    7.4393   -0.7179   20.9922 C   0  0  0  0  0  0  0  0  0  0  0  0
    8.7393   -0.0298   21.4711 C   0  0  0  0  0  0  0  0  0  0  0  0
    9.7394   -0.0870   20.7828 O   0  0  0  0  0  0  0  0  0  0  0  0
    8.7376    0.7111   22.8279 C   0  0  0  0  0  0  0  0  0  0  0  0
    8.6398   -0.0809   23.5845 H   0  0  0  0  0  0  0  0  0  0  0  0
    7.5387    1.6816   23.0046 C   0  0  0  0  0  0  0  0  0  0  0  0
    6.5841    1.1751   22.8254 H   0  0  0  0  0  0  0  0  0  0  0  0
    7.5202    2.0329   24.0467 H   0  0  0  0  0  0  0  0  0  0  0  0
    7.6707    2.9097   22.1027 C   0  0  0  0  0  0  0  0  0  0  0  0
    6.8376    3.6078   22.2409 H   0  0  0  0  0  0  0  0  0  0  0  0
    7.6306    2.5922   21.0493 H   0  0  0  0  0  0  0  0  0  0  0  0
    8.9838    3.6480   22.3795 C   0  0  0  0  0  0  0  0  0  0  0  0
    8.9581    4.5656   21.7904 H   0  0  0  0  0  0  0  0  0  0  0  0
    9.0059    4.0111   23.4192 H   0  0  0  0  0  0  0  0  0  0  0  0
   10.2038    2.7186   22.1736 C   0  0  0  0  0  0  0  0  0  0  0  0
   11.1434    3.2329   22.4126 H   0  0  0  0  0  0  0  0  0  0  0  0
   10.2950    2.3946   21.1293 H   0  0  0  0  0  0  0  0  0  0  0  0
   10.0719    1.4635   23.0647 C   0  0  0  0  0  0  0  0  0  0  0  0
   10.9119    0.7787   22.8991 H   0  0  0  0  0  0  0  0  0  0  0  0
   10.1159    1.7699   24.1197 H   0  0  0  0  0  0  0  0  0  0  0  0
    7.5151   -2.2254   20.8419 C   0  0  0  0  0  0  0  0  0  0  0  0
    8.4608   -2.7169   21.0743 H   0  0  0  0  0  0  0  0  0  0  0  0
    6.9742   -2.6455   19.9967 H   0  0  0  0  0  0  0  0  0  0  0  0
    6.6695   -1.6305   21.9287 C   0  0  0  0  0  0  0  0  0  0  0  0
    6.9902   -1.7337   22.9648 H   0  0  0  0  0  0  0  0  0  0  0  0
    5.5894   -1.6963   21.7975 H   0  0  0  0  0  0  0  0  0  0  0  0
    5.4482    0.6692   20.1544 C   0  0  0  0  0  0  0  0  0  0  0  0
    5.0075    0.6277   21.1553 H   0  0  0  0  0  0  0  0  0  0  0  0
    4.8021    1.3195   19.0985 C   0  0  0  0  0  0  0  0  0  0  0  0
    3.8674    1.8435   19.2461 H   0  0  0  0  0  0  0  0  0  0  0  0
  1  2  1  0
  2  3  2  0
  3  4  1  0
  4  5  1  0
  4  6  2  0
  6  7  1  0
  7  8  1  0
  8  9  2  0
  8 10  1  0
 10 11  1  0
 10 12  1  0
 12 13  1  0
 12 14  1  0
 12 15  1  0
 15 16  1  0
 15 17  1  0
 15 18  1  0
 18 19  1  0
 18 20  1  0
 18 21  1  0
 21 22  1  0
 21 23  1  0
 21 24  1  0
 24 25  1  0
 24 26  1  0
  7 27  1  0
 27 28  1  0
 27 29  1  0
 27 30  1  0
 30 31  1  0
 30 32  1  0
  6 33  1  0
 33 34  1  0
 33 35  2  0
 35 36  1  0
 35  2  1  0
 30  7  1  0
 24 10  1  0
M  END
>  <cnnaffinity>  (1) 
-4.81918

>  <filename>  (1) 
[H]c1nc([H])c(C2(C(=O)C3([H])C([H])([H])C([H])([H])C([H])([H])C([H])([H])C3([H])[H])C([H])([H])C2([H])[H])c([H])c1[H]

$$$$
