
     RDKit          3D

 40 42  0  0  0  0  0  0  0  0999 V2000
   11.3292   -0.1629   23.6602 F   0  0  0  0  0  0  0  0  0  0  0  0
   11.6551   -0.4287   22.3763 C   0  0  0  0  0  0  0  0  0  0  0  0
   11.1259    0.5464   21.6271 F   0  0  0  0  0  0  0  0  0  0  0  0
   12.9980   -0.3003   22.3018 F   0  0  0  0  0  0  0  0  0  0  0  0
   11.2332   -1.8192   21.9478 C   0  0  0  0  0  0  0  0  0  0  0  0
    9.9204   -2.3582   22.5234 C   0  0  0  0  0  0  0  0  0  0  0  0
    8.7135   -1.6031   22.1899 N   0  0  0  0  0  0  0  0  0  0  0  0
    8.4567   -1.1959   20.9235 N   0  0  0  0  0  0  0  0  0  0  0  0
    7.2553   -0.6451   21.0261 C   0  0  0  0  0  0  0  0  0  0  0  0
    6.5640    0.0225   19.9208 C   0  0  0  0  0  0  0  0  0  0  0  0
    5.3441    0.7108   20.0713 C   0  0  0  0  0  0  0  0  0  0  0  0
    4.8077    1.3506   18.9547 C   0  0  0  0  0  0  0  0  0  0  0  0
    5.4976    1.2831   17.7376 C   0  0  0  0  0  0  0  0  0  0  0  0
    6.6547    0.6230   17.5826 N   0  0  0  0  0  0  0  0  0  0  0  0
    7.1687    0.0167   18.6562 C   0  0  0  0  0  0  0  0  0  0  0  0
    8.1135   -0.5015   18.5098 H   0  0  0  0  0  0  0  0  0  0  0  0
    5.0980    1.7657   16.8471 H   0  0  0  0  0  0  0  0  0  0  0  0
    3.8758    1.9057   19.0060 H   0  0  0  0  0  0  0  0  0  0  0  0
    4.8365    0.7512   21.0381 H   0  0  0  0  0  0  0  0  0  0  0  0
    6.7081   -0.7376   22.2612 N   0  0  0  0  0  0  0  0  0  0  0  0
    7.6270   -1.3589   22.9643 C   0  0  0  0  0  0  0  0  0  0  0  0
    7.4595   -1.8257   24.3764 C   0  0  0  0  0  0  0  0  0  0  0  0
    8.5412   -1.2726   25.3670 C   0  0  0  0  0  0  0  0  0  0  0  0
    9.1568   -2.3781   26.2428 C   0  0  0  0  0  0  0  0  0  0  0  0
    8.1262   -3.3899   26.7472 C   0  0  0  0  0  0  0  0  0  0  0  0
    7.1463   -3.7710   25.7874 O   0  0  0  0  0  0  0  0  0  0  0  0
    7.3520   -3.3702   24.4524 C   0  0  0  0  0  0  0  0  0  0  0  0
    8.2421   -3.8542   24.0147 H   0  0  0  0  0  0  0  0  0  0  0  0
    6.4767   -3.7410   23.9085 H   0  0  0  0  0  0  0  0  0  0  0  0
    7.5598   -2.9800   27.5888 H   0  0  0  0  0  0  0  0  0  0  0  0
    8.6509   -4.2927   27.1017 H   0  0  0  0  0  0  0  0  0  0  0  0
    9.6679   -1.9396   27.1064 H   0  0  0  0  0  0  0  0  0  0  0  0
    9.9105   -2.9307   25.6656 H   0  0  0  0  0  0  0  0  0  0  0  0
    9.3420   -0.7417   24.8351 H   0  0  0  0  0  0  0  0  0  0  0  0
    8.0761   -0.5092   26.0056 H   0  0  0  0  0  0  0  0  0  0  0  0
    6.4791   -1.4450   24.6787 H   0  0  0  0  0  0  0  0  0  0  0  0
   10.0278   -2.3784   23.6108 H   0  0  0  0  0  0  0  0  0  0  0  0
    9.7681   -3.3942   22.2150 H   0  0  0  0  0  0  0  0  0  0  0  0
   12.0308   -2.4788   22.2972 H   0  0  0  0  0  0  0  0  0  0  0  0
   11.2592   -1.8510   20.8591 H   0  0  0  0  0  0  0  0  0  0  0  0
  1  2  1  0
  2  3  1  0
  2  4  1  0
  2  5  1  0
  5  6  1  0
  6  7  1  0
  7  8  1  0
  8  9  2  0
  9 10  1  0
 10 11  2  0
 11 12  1  0
 12 13  2  0
 13 14  1  0
 14 15  2  0
 15 16  1  0
 13 17  1  0
 12 18  1  0
 11 19  1  0
  9 20  1  0
 20 21  2  0
 21 22  1  0
 22 23  1  0
 23 24  1  0
 24 25  1  0
 25 26  1  0
 26 27  1  0
 27 28  1  0
 27 29  1  0
 25 30  1  0
 25 31  1  0
 24 32  1  0
 24 33  1  0
 23 34  1  0
 23 35  1  0
 22 36  1  0
  6 37  1  0
  6 38  1  0
  5 39  1  0
  5 40  1  0
 21  7  1  0
 27 22  1  0
 15 10  1  0
M  END
>  <cnnaffinity>  (1) 
-6.03025

>  <filename>  (1) 
[H]c1nc([H])c(-c2nc(C3([H])C([H])([H])OC([H])([H])C([H])([H])C3([H])[H])n(C([H])([H])C([H])([H])C(F)(F)F)n2)c([H])c1[H]

$$$$
