
     RDKit          3D

 43 45  0  0  0  0  0  0  0  0999 V2000
    2.9002    4.3536   24.6366 C   0  0  0  0  0  0  0  0  0  0  0  0
    4.0128    3.5226   25.2310 C   0  0  0  0  0  0  0  0  0  0  0  0
    5.2958    3.4937   24.6673 C   0  0  0  0  0  0  0  0  0  0  0  0
    6.3355    2.7097   25.1988 C   0  0  0  0  0  0  0  0  0  0  0  0
    7.7075    2.7380   24.5319 C   0  0  0  0  0  0  0  0  0  0  0  0
    8.8065    3.1745   25.4837 C   0  0  0  0  0  0  0  0  0  0  0  0
    9.7626    3.2593   24.9591 H   0  0  0  0  0  0  0  0  0  0  0  0
    8.9112    2.4789   26.3235 H   0  0  0  0  0  0  0  0  0  0  0  0
    8.5527    4.1518   25.9054 H   0  0  0  0  0  0  0  0  0  0  0  0
    8.0378    1.4054   23.9521 N   0  0  0  0  0  4  0  0  0  0  0  0
    7.0961    0.9320   22.9273 C   0  0  0  0  0  0  0  0  0  0  0  0
    7.6258   -0.3121   22.3182 C   0  0  0  0  0  0  0  0  0  0  0  0
    8.3090   -1.3653   22.8939 C   0  0  0  0  0  0  0  0  0  0  0  0
    8.4963   -2.2739   21.9046 N   0  0  0  0  0  0  0  0  0  0  0  0
    7.9806   -1.8852   20.7282 N   0  0  0  0  0  0  0  0  0  0  0  0
    7.4142   -0.7091   20.9646 C   0  0  0  0  0  0  0  0  0  0  0  0
    6.6600    0.0008   19.9146 C   0  0  0  0  0  0  0  0  0  0  0  0
    5.4348    0.6461   20.1542 C   0  0  0  0  0  0  0  0  0  0  0  0
    4.8049    1.3065   19.1036 C   0  0  0  0  0  0  0  0  0  0  0  0
    5.4056    1.2931   17.8424 C   0  0  0  0  0  0  0  0  0  0  0  0
    6.5700    0.6752   17.5890 N   0  0  0  0  0  0  0  0  0  0  0  0
    7.1707    0.0437   18.6058 C   0  0  0  0  0  0  0  0  0  0  0  0
    8.1169   -0.4358   18.3620 H   0  0  0  0  0  0  0  0  0  0  0  0
    4.9353    1.7872   16.9952 H   0  0  0  0  0  0  0  0  0  0  0  0
    3.8780    1.8376   19.2513 H   0  0  0  0  0  0  0  0  0  0  0  0
    4.9790    0.6290   21.1466 H   0  0  0  0  0  0  0  0  0  0  0  0
    8.9843   -3.1570   21.9382 H   0  0  0  0  0  0  0  0  0  0  0  0
    8.6570   -1.5406   23.9056 H   0  0  0  0  0  0  0  0  0  0  0  0
    6.9466    1.7072   22.1706 H   0  0  0  0  0  0  0  0  0  0  0  0
    6.1124    0.7722   23.3848 H   0  0  0  0  0  0  0  0  0  0  0  0
    8.9951    1.3602   23.5391 H   0  0  0  0  0  0  0  0  0  0  0  0
    7.9772    0.7153   24.7406 H   0  0  0  0  0  0  0  0  0  0  0  0
    7.6317    3.4624   23.7115 H   0  0  0  0  0  0  0  0  0  0  0  0
    6.0731    1.9254   26.3311 C   0  0  0  0  0  0  0  0  0  0  0  0
    4.8068    1.9274   26.9203 C   0  0  0  0  0  0  0  0  0  0  0  0
    3.8098    2.7194   26.3617 C   0  0  0  0  0  0  0  0  0  0  0  0
    2.5891    2.7101   26.9364 F   0  0  0  0  0  0  0  0  0  0  0  0
    4.5705    1.3346   27.7976 H   0  0  0  0  0  0  0  0  0  0  0  0
    6.8585    1.3132   26.7730 H   0  0  0  0  0  0  0  0  0  0  0  0
    5.4791    4.1037   23.7815 H   0  0  0  0  0  0  0  0  0  0  0  0
    3.2960    5.1101   23.9510 H   0  0  0  0  0  0  0  0  0  0  0  0
    2.1970    3.7298   24.0734 H   0  0  0  0  0  0  0  0  0  0  0  0
    2.3172    4.8660   25.4092 H   0  0  0  0  0  0  0  0  0  0  0  0
  1  2  1  0
  2  3  2  0
  3  4  1  0
  4  5  1  0
  5  6  1  0
  6  7  1  0
  6  8  1  0
  6  9  1  0
  5 10  1  0
 10 11  1  0
 11 12  1  0
 12 13  2  0
 13 14  1  0
 14 15  1  0
 15 16  2  0
 16 17  1  0
 17 18  2  0
 18 19  1  0
 19 20  2  0
 20 21  1  0
 21 22  2  0
 22 23  1  0
 20 24  1  0
 19 25  1  0
 18 26  1  0
 14 27  1  0
 13 28  1  0
 11 29  1  0
 11 30  1  0
 10 31  1  0
 10 32  1  0
  5 33  1  0
  4 34  2  0
 34 35  1  0
 35 36  2  0
 36 37  1  0
 35 38  1  0
 34 39  1  0
  3 40  1  0
  1 41  1  0
  1 42  1  0
  1 43  1  0
 36  2  1  0
 16 12  1  0
 22 17  1  0
M  CHG  1  10   1
M  END
>  <cnnaffinity>  (1) 
-5.1559

>  <filename>  (1) 
[H]c1nc([H])c(-c2nn([H])c([H])c2C([H])([H])[N+]([H])([H])C([H])(c2c([H])c([H])c(F)c(C([H])([H])[H])c2[H])C([H])([H])[H])c([H])c1[H]

$$$$
