
     RDKit          3D

 38 41  0  0  0  0  0  0  0  0999 V2000
    5.4938   -3.0399   22.7648 O   0  0  0  0  0  0  0  0  0  0  0  0
    6.3402   -2.7109   23.5700 C   0  0  0  0  0  0  0  0  0  0  0  0
    7.7077   -2.8497   23.4648 N   0  0  0  0  0  0  0  0  0  0  0  0
    8.4333   -3.1914   22.2474 C   0  0  0  0  0  0  0  0  0  0  0  0
    9.3239   -2.0557   21.7713 C   0  0  0  0  0  0  0  0  0  0  0  0
   10.7066   -2.0746   22.0076 C   0  0  0  0  0  0  0  0  0  0  0  0
   11.5108   -0.9466   21.7843 C   0  0  0  0  0  0  0  0  0  0  0  0
   10.9129    0.2254   21.3124 C   0  0  0  0  0  0  0  0  0  0  0  0
    9.5399    0.2626   21.0371 C   0  0  0  0  0  0  0  0  0  0  0  0
    8.7687   -0.8924   21.2086 C   0  0  0  0  0  0  0  0  0  0  0  0
    7.4188   -0.9238   20.9090 O   0  0  0  0  0  0  0  0  0  0  0  0
    6.8539   -0.1698   19.9013 C   0  0  0  0  0  0  0  0  0  0  0  0
    5.6539    0.4796   20.2068 C   0  0  0  0  0  0  0  0  0  0  0  0
    5.0124    1.1906   19.1888 C   0  0  0  0  0  0  0  0  0  0  0  0
    5.5827    1.2125   17.9087 C   0  0  0  0  0  0  0  0  0  0  0  0
    6.7277    0.5834   17.6027 N   0  0  0  0  0  0  0  0  0  0  0  0
    7.3513   -0.0860   18.5837 C   0  0  0  0  0  0  0  0  0  0  0  0
    8.2894   -0.5715   18.3219 H   0  0  0  0  0  0  0  0  0  0  0  0
    5.0994    1.7486   17.0965 H   0  0  0  0  0  0  0  0  0  0  0  0
    4.0848    1.7232   19.3715 H   0  0  0  0  0  0  0  0  0  0  0  0
    5.2616    0.4070   21.2229 H   0  0  0  0  0  0  0  0  0  0  0  0
    9.0411    1.1705   20.7008 H   0  0  0  0  0  0  0  0  0  0  0  0
   11.5083    1.1196   21.1323 H   0  0  0  0  0  0  0  0  0  0  0  0
   12.5790   -0.9799   22.0080 H   0  0  0  0  0  0  0  0  0  0  0  0
   11.1609   -2.9895   22.3824 H   0  0  0  0  0  0  0  0  0  0  0  0
    7.6905   -3.4545   21.4880 H   0  0  0  0  0  0  0  0  0  0  0  0
    9.0383   -4.0743   22.4769 H   0  0  0  0  0  0  0  0  0  0  0  0
    8.3699   -2.6111   24.6236 N   0  0  0  0  0  0  0  0  0  0  0  0
    7.4441   -2.2113   25.4541 C   0  0  0  0  0  0  0  0  0  0  0  0
    7.5772   -1.7845   26.8135 C   0  0  0  0  0  0  0  0  0  0  0  0
    6.4902   -1.2633   27.4552 C   0  0  0  0  0  0  0  0  0  0  0  0
    5.2218   -1.1489   26.7752 C   0  0  0  0  0  0  0  0  0  0  0  0
    5.0777   -1.6308   25.5075 C   0  0  0  0  0  0  0  0  0  0  0  0
    6.1821   -2.1882   24.8674 N   0  0  0  0  0  0  0  0  0  0  0  0
    4.1399   -1.6250   24.9611 H   0  0  0  0  0  0  0  0  0  0  0  0
    4.3903   -0.6639   27.2793 H   0  0  0  0  0  0  0  0  0  0  0  0
    6.5684   -0.9121   28.4806 H   0  0  0  0  0  0  0  0  0  0  0  0
    8.5580   -1.8749   27.2544 H   0  0  0  0  0  0  0  0  0  0  0  0
  1  2  2  0
  2  3  1  0
  3  4  1  0
  4  5  1  0
  5  6  2  0
  6  7  1  0
  7  8  2  0
  8  9  1  0
  9 10  2  0
 10 11  1  0
 11 12  1  0
 12 13  2  0
 13 14  1  0
 14 15  2  0
 15 16  1  0
 16 17  2  0
 17 18  1  0
 15 19  1  0
 14 20  1  0
 13 21  1  0
  9 22  1  0
  8 23  1  0
  7 24  1  0
  6 25  1  0
  4 26  1  0
  4 27  1  0
  3 28  1  0
 28 29  2  0
 29 30  1  0
 30 31  2  0
 31 32  1  0
 32 33  2  0
 33 34  1  0
 33 35  1  0
 32 36  1  0
 31 37  1  0
 30 38  1  0
 34  2  1  0
 10  5  1  0
 17 12  1  0
 34 29  1  0
M  END
>  <cnnaffinity>  (1) 
-5.65086

>  <filename>  (1) 
[H]c1nc([H])c(Oc2c([H])c([H])c([H])c([H])c2C([H])([H])n2nc3c([H])c([H])c([H])c([H])n3c2=O)c([H])c1[H]

$$$$
