
     RDKit          3D

 40 42  0  0  0  0  0  0  0  0999 V2000
    5.8058   -1.3217   22.2142 H   0  0  0  0  0  0  0  0  0  0  0  0
    6.8614   -1.2243   22.0359 C   0  0  0  0  0  0  0  0  0  0  0  0
    7.4044   -0.6743   20.9496 C   0  0  0  0  0  0  0  0  0  0  0  0
    6.6683    0.0249   19.8877 C   0  0  0  0  0  0  0  0  0  0  0  0
    7.1665    0.0790   18.5743 C   0  0  0  0  0  0  0  0  0  0  0  0
    8.1152   -0.4070   18.3391 H   0  0  0  0  0  0  0  0  0  0  0  0
    6.5545    0.6860   17.5536 N   0  0  0  0  0  0  0  0  0  0  0  0
    5.3901    1.3016   17.8171 C   0  0  0  0  0  0  0  0  0  0  0  0
    4.9175    1.8013   16.9745 H   0  0  0  0  0  0  0  0  0  0  0  0
    4.8003    1.3147   19.0863 C   0  0  0  0  0  0  0  0  0  0  0  0
    3.8683    1.8449   19.2386 H   0  0  0  0  0  0  0  0  0  0  0  0
    5.4370    0.6596   20.1363 C   0  0  0  0  0  0  0  0  0  0  0  0
    5.0101    0.6546   21.1421 H   0  0  0  0  0  0  0  0  0  0  0  0
    8.9061   -0.9225   20.9232 C   0  0  0  0  0  0  0  0  0  0  0  0
    9.1644   -1.6248   20.1197 H   0  0  0  0  0  0  0  0  0  0  0  0
    9.4556    0.0003   20.7133 H   0  0  0  0  0  0  0  0  0  0  0  0
    9.2055   -1.5051   22.3335 C   0  0  0  0  0  0  0  0  0  0  0  0
    9.6565   -0.7369   22.9695 H   0  0  0  0  0  0  0  0  0  0  0  0
    9.8776   -2.3672   22.3189 H   0  0  0  0  0  0  0  0  0  0  0  0
    7.8419   -1.9118   22.9408 C   0  0  2  0  0  0  0  0  0  0  0  0
    7.7384   -1.5452   23.9748 H   0  0  0  0  0  0  0  0  0  0  0  0
    7.6551   -3.3729   22.9557 N   0  0  0  0  0  0  0  0  0  0  0  0
    7.4626   -3.6481   21.9959 H   0  0  0  0  0  0  0  0  0  0  0  0
    6.5532   -3.8353   23.8075 C   0  0  0  0  0  0  0  0  0  0  0  0
    5.7160   -3.1045   23.8523 H   0  0  0  0  0  0  0  0  0  0  0  0
    7.0803   -4.0191   25.2377 C   0  0  0  0  0  0  0  0  0  0  0  0
    7.9380   -4.7060   25.1867 H   0  0  0  0  0  0  0  0  0  0  0  0
    7.4754   -3.0595   25.5940 H   0  0  0  0  0  0  0  0  0  0  0  0
    5.9976   -4.5620   26.1835 C   0  0  0  0  0  0  0  0  0  0  0  0
    5.2037   -3.8057   26.2913 H   0  0  0  0  0  0  0  0  0  0  0  0
    6.4171   -4.7131   27.1861 H   0  0  0  0  0  0  0  0  0  0  0  0
    5.3926   -5.8707   25.6415 C   0  0  0  0  0  0  0  0  0  0  0  0
    6.1699   -6.6491   25.6562 H   0  0  0  0  0  0  0  0  0  0  0  0
    4.5929   -6.2262   26.3040 H   0  0  0  0  0  0  0  0  0  0  0  0
    4.8704   -5.7042   24.1996 C   0  0  0  0  0  0  0  0  0  0  0  0
    4.4848   -6.6572   23.8152 H   0  0  0  0  0  0  0  0  0  0  0  0
    4.0146   -5.0093   24.2039 H   0  0  0  0  0  0  0  0  0  0  0  0
    5.9641   -5.1466   23.2654 C   0  0  0  0  0  0  0  0  0  0  0  0
    5.5594   -4.9774   22.2570 H   0  0  0  0  0  0  0  0  0  0  0  0
    6.7850   -5.8718   23.1589 H   0  0  0  0  0  0  0  0  0  0  0  0
  1  2  1  0
  2  3  2  0
  3  4  1  0
  4  5  2  0
  5  6  1  0
  5  7  1  0
  7  8  2  0
  8  9  1  0
  8 10  1  0
 10 11  1  0
 10 12  2  0
 12 13  1  0
  3 14  1  0
 14 15  1  0
 14 16  1  0
 14 17  1  0
 17 18  1  0
 17 19  1  0
 17 20  1  0
 20 21  1  1
 20 22  1  0
 22 23  1  0
 22 24  1  0
 24 25  1  0
 24 26  1  0
 26 27  1  0
 26 28  1  0
 26 29  1  0
 29 30  1  0
 29 31  1  0
 29 32  1  0
 32 33  1  0
 32 34  1  0
 32 35  1  0
 35 36  1  0
 35 37  1  0
 35 38  1  0
 38 39  1  0
 38 40  1  0
 20  2  1  0
 38 24  1  0
 12  4  1  0
M  END
>  <cnnaffinity>  (1) 
-4.99937

>  <filename>  (1) 
[H]C1=C(c2c([H])nc([H])c([H])c2[H])C([H])([H])C([H])([H])[C@]1([H])N([H])C1([H])C([H])([H])C([H])([H])C([H])([H])C([H])([H])C1([H])[H]

$$$$
