
     RDKit          3D

 44 47  0  0  0  0  0  0  0  0999 V2000
   14.2488   -1.6108   22.0663 C   0  0  0  0  0  0  0  0  0  0  0  0
   13.6013   -0.3126   22.3540 C   0  0  0  0  0  0  0  0  0  0  0  0
   12.3434   -0.0588   22.2747 N   0  0  0  0  0  0  0  0  0  0  0  0
   12.2735    1.3255   22.3680 C   0  0  0  0  0  0  0  0  0  0  0  0
   11.1851    2.1940   22.2297 C   0  0  0  0  0  0  0  0  0  0  0  0
    9.8517    1.5883   22.1068 C   0  0  0  0  0  0  0  0  0  0  0  0
    9.4265    0.6834   21.2367 N   0  0  0  0  0  0  0  0  0  0  0  0
    8.1919    0.3684   21.7001 C   0  0  0  0  0  0  0  0  0  0  0  0
    7.3429   -0.6485   20.9952 C   0  0  0  0  0  0  0  0  0  0  0  0
    6.5863   -0.0289   19.8331 C   0  0  0  0  0  0  0  0  0  0  0  0
    5.3814    0.6419   20.0669 C   0  0  0  0  0  0  0  0  0  0  0  0
    4.7698    1.3259   19.0158 C   0  0  0  0  0  0  0  0  0  0  0  0
    5.3918    1.3078   17.7641 C   0  0  0  0  0  0  0  0  0  0  0  0
    6.5349    0.6528   17.5086 N   0  0  0  0  0  0  0  0  0  0  0  0
    7.1094    0.0041   18.5290 C   0  0  0  0  0  0  0  0  0  0  0  0
    8.0422   -0.5181   18.3031 H   0  0  0  0  0  0  0  0  0  0  0  0
    4.9532    1.8385   16.9235 H   0  0  0  0  0  0  0  0  0  0  0  0
    3.8475    1.8789   19.1585 H   0  0  0  0  0  0  0  0  0  0  0  0
    4.9497    0.6270   21.0691 H   0  0  0  0  0  0  0  0  0  0  0  0
    6.6518   -1.1008   21.7170 H   0  0  0  0  0  0  0  0  0  0  0  0
    8.0219   -1.4310   20.6393 H   0  0  0  0  0  0  0  0  0  0  0  0
    7.8124    1.0449   22.7665 N   0  0  0  0  0  0  0  0  0  0  0  0
    8.8819    1.8399   23.0222 N   0  0  0  0  0  0  0  0  0  0  0  0
    8.8862    2.7797   24.1607 C   0  0  0  0  0  0  0  0  0  0  0  0
    8.5958    2.0650   25.4834 C   0  0  0  0  0  0  0  0  0  0  0  0
    8.6853    2.7625   26.3237 H   0  0  0  0  0  0  0  0  0  0  0  0
    7.5905    1.6353   25.5000 H   0  0  0  0  0  0  0  0  0  0  0  0
    9.3171    1.2574   25.6407 H   0  0  0  0  0  0  0  0  0  0  0  0
    7.9696    3.9688   23.8698 C   0  0  0  0  0  0  0  0  0  0  0  0
    8.0288    4.7134   24.6695 H   0  0  0  0  0  0  0  0  0  0  0  0
    8.2670    4.4561   22.9352 H   0  0  0  0  0  0  0  0  0  0  0  0
    6.9277    3.6543   23.7647 H   0  0  0  0  0  0  0  0  0  0  0  0
    9.9075    3.1582   24.2416 H   0  0  0  0  0  0  0  0  0  0  0  0
   11.4545    3.5775   22.2763 C   0  0  0  0  0  0  0  0  0  0  0  0
   12.7553    4.0613   22.4818 C   0  0  0  0  0  0  0  0  0  0  0  0
   13.8386    3.1911   22.6525 C   0  0  0  0  0  0  0  0  0  0  0  0
   13.5582    1.8315   22.5849 C   0  0  0  0  0  0  0  0  0  0  0  0
   14.4179    0.7612   22.5844 O   0  0  0  0  0  0  0  0  0  0  0  0
   14.8472    3.5708   22.7406 H   0  0  0  0  0  0  0  0  0  0  0  0
   12.9235    5.1316   22.5301 H   0  0  0  0  0  0  0  0  0  0  0  0
   10.6408    4.2904   22.1974 H   0  0  0  0  0  0  0  0  0  0  0  0
   14.9831   -1.8457   22.8357 H   0  0  0  0  0  0  0  0  0  0  0  0
   14.7654   -1.5575   21.1043 H   0  0  0  0  0  0  0  0  0  0  0  0
   13.4800   -2.3791   21.9922 H   0  0  0  0  0  0  0  0  0  0  0  0
  1  2  1  0
  2  3  2  0
  3  4  1  0
  4  5  2  0
  5  6  1  0
  6  7  2  0
  7  8  1  0
  8  9  1  0
  9 10  1  0
 10 11  2  0
 11 12  1  0
 12 13  2  0
 13 14  1  0
 14 15  2  0
 15 16  1  0
 13 17  1  0
 12 18  1  0
 11 19  1  0
  9 20  1  0
  9 21  1  0
  8 22  2  0
 22 23  1  0
 23 24  1  0
 24 25  1  0
 25 26  1  0
 25 27  1  0
 25 28  1  0
 24 29  1  0
 29 30  1  0
 29 31  1  0
 29 32  1  0
 24 33  1  0
  5 34  1  0
 34 35  2  0
 35 36  1  0
 36 37  2  0
 37 38  1  0
 36 39  1  0
 35 40  1  0
 34 41  1  0
  1 42  1  0
  1 43  1  0
  1 44  1  0
 38  2  1  0
 37  4  1  0
 23  6  1  0
 15 10  1  0
M  END
>  <cnnaffinity>  (1) 
-6.57688

>  <filename>  (1) 
[H]c1nc([H])c(C([H])([H])c2nc(-c3c([H])c([H])c([H])c4oc(C([H])([H])[H])nc34)n(C([H])(C([H])([H])[H])C([H])([H])[H])n2)c([H])c1[H]

$$$$
