
     RDKit          3D

 25 26  0  0  0  0  0  0  0  0999 V2000
    9.3067   -0.0106   20.4218 H   0  0  0  0  0  0  0  0  0  0  0  0
    8.7152   -0.6241   21.1011 C   0  0  0  0  0  0  0  0  0  0  0  0
    9.2334   -1.1482   21.9045 H   0  0  0  0  0  0  0  0  0  0  0  0
    7.3855   -0.7039   20.9813 C   0  0  0  0  0  0  0  0  0  0  0  0
    6.6596    0.0185   19.9020 C   0  0  0  0  0  0  0  0  0  0  0  0
    7.1688    0.0753   18.5931 C   0  0  0  0  0  0  0  0  0  0  0  0
    8.1079   -0.4274   18.3677 H   0  0  0  0  0  0  0  0  0  0  0  0
    6.5615    0.6763   17.5658 N   0  0  0  0  0  0  0  0  0  0  0  0
    5.3977    1.2944   17.8317 C   0  0  0  0  0  0  0  0  0  0  0  0
    4.9191    1.7849   16.9887 H   0  0  0  0  0  0  0  0  0  0  0  0
    4.8019    1.3133   19.0990 C   0  0  0  0  0  0  0  0  0  0  0  0
    3.8706    1.8469   19.2484 H   0  0  0  0  0  0  0  0  0  0  0  0
    5.4309    0.6529   20.1542 C   0  0  0  0  0  0  0  0  0  0  0  0
    5.0129    0.6275   21.1669 H   0  0  0  0  0  0  0  0  0  0  0  0
    6.5849   -1.5041   21.9681 C   0  0  0  0  0  0  0  0  0  0  0  0
    6.7104   -1.2318   23.3435 C   0  0  0  0  0  0  0  0  0  0  0  0
    7.3728   -0.4223   23.6365 H   0  0  0  0  0  0  0  0  0  0  0  0
    6.0099   -1.9472   24.3103 C   0  0  0  0  0  0  0  0  0  0  0  0
    6.0709   -1.6753   25.3592 H   0  0  0  0  0  0  0  0  0  0  0  0
    5.1543   -2.9741   23.8896 C   0  0  0  0  0  0  0  0  0  0  0  0
    4.1683   -3.7838   25.0603 Cl  0  0  0  0  0  0  0  0  0  0  0  0
    4.9754   -3.2706   22.5345 C   0  0  0  0  0  0  0  0  0  0  0  0
    4.2530   -4.0170   22.2178 H   0  0  0  0  0  0  0  0  0  0  0  0
    5.6997   -2.5349   21.5904 C   0  0  0  0  0  0  0  0  0  0  0  0
    5.5224   -2.9837   19.9192 Cl  0  0  0  0  0  0  0  0  0  0  0  0
  1  2  1  0
  2  3  1  0
  2  4  2  3
  4  5  1  0
  5  6  2  0
  6  7  1  0
  6  8  1  0
  8  9  2  0
  9 10  1  0
  9 11  1  0
 11 12  1  0
 11 13  2  0
 13 14  1  0
  4 15  1  0
 15 16  2  0
 16 17  1  0
 16 18  1  0
 18 19  1  0
 18 20  2  0
 20 21  1  0
 20 22  1  0
 22 23  1  0
 22 24  2  0
 24 25  1  0
 13  5  1  0
 24 15  1  0
M  END
>  <cnnaffinity>  (1) 
-4.67891

>  <filename>  (1) 
[H]C([H])=C(c1c([H])nc([H])c([H])c1[H])c1c([H])c([H])c(Cl)c([H])c1Cl

$$$$
