
     RDKit          3D

 30 31  0  0  0  0  0  0  0  0999 V2000
    5.1357    1.8923   16.7729 H   0  0  0  0  0  0  0  0  0  0  0  0
    5.5553    1.4196   17.6590 C   0  0  0  0  0  0  0  0  0  0  0  0
    6.7125    0.7633   17.4907 N   0  0  0  0  0  0  0  0  0  0  0  0
    7.2511    0.1793   18.5633 C   0  0  0  0  0  0  0  0  0  0  0  0
    8.1841   -0.3519   18.3816 H   0  0  0  0  0  0  0  0  0  0  0  0
    6.6654    0.1973   19.8296 C   0  0  0  0  0  0  0  0  0  0  0  0
    7.2490   -0.6136   20.9097 C   0  0  0  0  0  0  0  0  0  0  0  0
    6.5981   -1.1109   21.8019 O   0  0  0  0  0  0  0  0  0  0  0  0
    8.5891   -0.9023   20.7907 N   0  0  0  0  0  0  0  0  0  0  0  0
    9.2633   -0.2243   20.4666 H   0  0  0  0  0  0  0  0  0  0  0  0
    9.3062   -1.6662   22.0927 S   0  0  0  0  0  0  0  0  0  0  0  0
    9.0169   -0.9032   23.2937 O   0  0  0  0  0  0  0  0  0  0  0  0
   10.6638   -1.7468   21.5798 O   0  0  0  0  0  0  0  0  0  0  0  0
    8.4757   -3.4057   22.2410 C   0  0  0  0  0  0  0  0  0  0  0  0
    8.3318   -4.0904   21.2673 O   0  0  0  0  0  0  0  0  0  0  0  0
    8.1108   -3.8359   23.6320 C   0  0  0  0  0  0  0  0  0  0  0  0
    7.3074   -3.0476   24.4743 C   0  0  0  0  0  0  0  0  0  0  0  0
    6.9336   -2.0842   24.1415 H   0  0  0  0  0  0  0  0  0  0  0  0
    6.9625   -3.5098   25.7463 C   0  0  0  0  0  0  0  0  0  0  0  0
    6.3504   -2.9092   26.4035 H   0  0  0  0  0  0  0  0  0  0  0  0
    7.4236   -4.7442   26.1925 C   0  0  0  0  0  0  0  0  0  0  0  0
    7.0149   -5.2681   27.7990 Cl  0  0  0  0  0  0  0  0  0  0  0  0
    8.1961   -5.5571   25.3615 C   0  0  0  0  0  0  0  0  0  0  0  0
    8.5445   -6.5167   25.7240 H   0  0  0  0  0  0  0  0  0  0  0  0
    8.5351   -5.1021   24.0843 C   0  0  0  0  0  0  0  0  0  0  0  0
    9.1319   -5.7475   23.4474 H   0  0  0  0  0  0  0  0  0  0  0  0
    5.4410    0.8706   19.9968 C   0  0  0  0  0  0  0  0  0  0  0  0
    4.9432    0.8729   20.9690 H   0  0  0  0  0  0  0  0  0  0  0  0
    4.8875    1.5090   18.8883 C   0  0  0  0  0  0  0  0  0  0  0  0
    3.9581    2.0677   18.9579 H   0  0  0  0  0  0  0  0  0  0  0  0
  1  2  1  0
  2  3  2  0
  3  4  1  0
  4  5  1  0
  4  6  2  0
  6  7  1  0
  7  8  2  0
  7  9  1  0
  9 10  1  0
  9 11  1  0
 11 12  2  0
 11 13  2  0
 11 14  1  0
 14 15  2  0
 14 16  1  0
 16 17  2  0
 17 18  1  0
 17 19  1  0
 19 20  1  0
 19 21  2  0
 21 22  1  0
 21 23  1  0
 23 24  1  0
 23 25  2  0
 25 26  1  0
  6 27  1  0
 27 28  1  0
 27 29  2  0
 29 30  1  0
 29  2  1  0
 25 16  1  0
M  END
>  <cnnaffinity>  (1) 
-5.28861

>  <filename>  (1) 
[H]c1nc([H])c(C(=O)N([H])S(=O)(=O)C(=O)c2c([H])c([H])c(Cl)c([H])c2[H])c([H])c1[H]

$$$$
