
     RDKit          3D

 38 41  0  0  0  0  0  0  0  0999 V2000
   14.4427    5.4242   21.7501 N   0  0  0  0  0  0  0  0  0  0  0  0
   13.5430    4.6774   22.5029 C   0  0  0  0  0  0  0  0  0  0  0  0
   13.7638    3.3166   22.7022 C   0  0  0  0  0  0  0  0  0  0  0  0
   12.8224    2.5410   23.3738 C   0  0  0  0  0  0  0  0  0  0  0  0
   11.6657    3.1233   23.9191 C   0  0  0  0  0  0  0  0  0  0  0  0
   10.5550    2.0944   24.8414 S   0  0  0  0  0  0  0  0  0  0  0  0
    9.2983    1.8300   23.5534 C   0  0  0  0  0  0  0  0  0  0  0  0
    8.1407    0.9638   24.0649 C   0  0  0  0  0  0  0  0  0  0  0  0
    7.0335    0.8059   22.9923 C   0  0  0  0  0  0  0  0  0  0  0  0
    7.4724   -0.3140   22.1826 N   0  0  0  0  0  0  0  0  0  0  0  0
    8.3157   -1.2023   22.7707 C   0  0  0  0  0  0  0  0  0  0  0  0
    8.7509   -2.0895   21.9214 N   0  0  0  0  0  0  0  0  0  0  0  0
    8.1881   -1.7564   20.7051 N   0  0  0  0  0  0  0  0  0  0  0  0
    7.4247   -0.7041   20.8776 C   0  0  0  0  0  0  0  0  0  0  0  0
    6.6509   -0.0066   19.8481 C   0  0  0  0  0  0  0  0  0  0  0  0
    5.4376    0.6466   20.1014 C   0  0  0  0  0  0  0  0  0  0  0  0
    4.8123    1.3140   19.0490 C   0  0  0  0  0  0  0  0  0  0  0  0
    5.4229    1.3014   17.7896 C   0  0  0  0  0  0  0  0  0  0  0  0
    6.5682    0.6543   17.5285 N   0  0  0  0  0  0  0  0  0  0  0  0
    7.1581    0.0089   18.5398 C   0  0  0  0  0  0  0  0  0  0  0  0
    8.0826   -0.5167   18.3061 H   0  0  0  0  0  0  0  0  0  0  0  0
    4.9692    1.8274   16.9515 H   0  0  0  0  0  0  0  0  0  0  0  0
    3.8809    1.8470   19.1969 H   0  0  0  0  0  0  0  0  0  0  0  0
    4.9861    0.6250   21.0940 H   0  0  0  0  0  0  0  0  0  0  0  0
    8.6743   -0.7718   24.4294 S   0  0  0  0  0  0  0  0  0  0  0  0
    6.0780    0.5662   23.4739 H   0  0  0  0  0  0  0  0  0  0  0  0
    6.9036    1.6989   22.3699 H   0  0  0  0  0  0  0  0  0  0  0  0
    7.7398    1.3712   24.9953 H   0  0  0  0  0  0  0  0  0  0  0  0
    9.7736    1.3424   22.6938 H   0  0  0  0  0  0  0  0  0  0  0  0
    8.9237    2.8093   23.2333 H   0  0  0  0  0  0  0  0  0  0  0  0
   11.4948    4.5150   23.7623 C   0  0  0  0  0  0  0  0  0  0  0  0
   10.1787    5.3711   24.5074 Cl  0  0  0  0  0  0  0  0  0  0  0  0
   12.4169    5.2808   23.0511 C   0  0  0  0  0  0  0  0  0  0  0  0
   12.3003    6.3535   22.9715 H   0  0  0  0  0  0  0  0  0  0  0  0
   12.9591    1.4665   23.4780 H   0  0  0  0  0  0  0  0  0  0  0  0
   14.6889    2.8961   22.3296 H   0  0  0  0  0  0  0  0  0  0  0  0
   13.9662    6.1909   21.3024 H   0  0  0  0  0  0  0  0  0  0  0  0
   14.8723    4.8346   21.0488 H   0  0  0  0  0  0  0  0  0  0  0  0
  1  2  1  0
  2  3  2  0
  3  4  1  0
  4  5  2  0
  5  6  1  0
  6  7  1  0
  7  8  1  0
  8  9  1  0
  9 10  1  0
 10 11  1  0
 11 12  2  0
 12 13  1  0
 13 14  2  0
 14 15  1  0
 15 16  2  0
 16 17  1  0
 17 18  2  0
 18 19  1  0
 19 20  2  0
 20 21  1  0
 18 22  1  0
 17 23  1  0
 16 24  1  0
 11 25  1  0
  9 26  1  0
  9 27  1  0
  8 28  1  0
  7 29  1  0
  7 30  1  0
  5 31  1  0
 31 32  1  0
 31 33  2  0
 33 34  1  0
  4 35  1  0
  3 36  1  0
  1 37  1  0
  1 38  1  0
 33  2  1  0
 25  8  1  0
 14 10  1  0
 20 15  1  0
M  END
>  <cnnaffinity>  (1) 
-6.12378

>  <filename>  (1) 
[H]c1nc([H])c(-c2nnc3n2C([H])([H])C([H])(C([H])([H])Sc2c([H])c([H])c(N([H])[H])c([H])c2Cl)S3)c([H])c1[H]

$$$$
