
     RDKit          3D

 36 39  0  0  0  0  0  0  0  0999 V2000
    4.9243    1.7772   16.9994 H   0  0  0  0  0  0  0  0  0  0  0  0
    5.4030    1.2893   17.8449 C   0  0  0  0  0  0  0  0  0  0  0  0
    6.5656    0.6732   17.5867 N   0  0  0  0  0  0  0  0  0  0  0  0
    7.1734    0.0613   18.6045 C   0  0  0  0  0  0  0  0  0  0  0  0
    8.1206   -0.4258   18.3876 H   0  0  0  0  0  0  0  0  0  0  0  0
    6.6486    0.0142   19.9029 C   0  0  0  0  0  0  0  0  0  0  0  0
    7.4197   -0.6859   20.9207 C   0  0  0  0  0  0  0  0  0  0  0  0
    8.5875   -1.2403   20.8220 N   0  0  0  0  0  0  0  0  0  0  0  0
    8.8938   -1.7332   22.0790 N   0  0  0  0  0  0  0  0  0  0  0  0
    7.9015   -1.4355   22.8547 C   0  0  0  0  0  0  0  0  0  0  0  0
    7.7568   -1.7774   24.3075 C   0  0  0  0  0  0  0  0  0  0  0  0
    7.2892   -0.8050   25.2101 O   0  0  0  0  0  0  0  0  0  0  0  0
    8.1579    0.3189   25.3550 C   0  0  0  0  0  0  0  0  0  0  0  0
    7.9184    0.7531   26.3321 H   0  0  0  0  0  0  0  0  0  0  0  0
    9.2067   -0.0071   25.3600 H   0  0  0  0  0  0  0  0  0  0  0  0
    7.9456    1.3473   24.2654 C   0  0  0  0  0  0  0  0  0  0  0  0
    8.9474    1.6835   23.3532 C   0  0  0  0  0  0  0  0  0  0  0  0
    9.9249    1.2155   23.4091 H   0  0  0  0  0  0  0  0  0  0  0  0
    8.6621    2.6010   22.3380 C   0  0  0  0  0  0  0  0  0  0  0  0
    9.4257    2.8683   21.6134 H   0  0  0  0  0  0  0  0  0  0  0  0
    7.4716    3.1916   22.1870 N   0  0  0  0  0  0  0  0  0  0  0  0
    6.5175    2.8665   23.0657 C   0  0  0  0  0  0  0  0  0  0  0  0
    5.5560    3.3551   22.9309 H   0  0  0  0  0  0  0  0  0  0  0  0
    6.6994    1.9608   24.1104 C   0  0  0  0  0  0  0  0  0  0  0  0
    5.8801    1.7232   24.7795 H   0  0  0  0  0  0  0  0  0  0  0  0
    8.6980   -2.7849   24.9091 C   0  0  0  0  0  0  0  0  0  0  0  0
    9.4787   -3.1924   24.2755 H   0  0  0  0  0  0  0  0  0  0  0  0
    8.9592   -2.6328   25.9523 H   0  0  0  0  0  0  0  0  0  0  0  0
    7.2803   -3.1707   24.6299 C   0  0  0  0  0  0  0  0  0  0  0  0
    7.0856   -3.8410   23.7988 H   0  0  0  0  0  0  0  0  0  0  0  0
    6.5885   -3.2498   25.4627 H   0  0  0  0  0  0  0  0  0  0  0  0
    6.9154   -0.7876   22.1740 O   0  0  0  0  0  0  0  0  0  0  0  0
    5.4300    0.6600   20.1687 C   0  0  0  0  0  0  0  0  0  0  0  0
    4.9937    0.6399   21.1717 H   0  0  0  0  0  0  0  0  0  0  0  0
    4.8009    1.3120   19.1102 C   0  0  0  0  0  0  0  0  0  0  0  0
    3.8689    1.8459   19.2547 H   0  0  0  0  0  0  0  0  0  0  0  0
  1  2  1  0
  2  3  2  0
  3  4  1  0
  4  5  1  0
  4  6  2  0
  6  7  1  0
  7  8  2  0
  8  9  1  0
  9 10  2  0
 10 11  1  0
 11 12  1  0
 12 13  1  0
 13 14  1  0
 13 15  1  0
 13 16  1  0
 16 17  2  0
 17 18  1  0
 17 19  1  0
 19 20  1  0
 19 21  2  0
 21 22  1  0
 22 23  1  0
 22 24  2  0
 24 25  1  0
 11 26  1  0
 26 27  1  0
 26 28  1  0
 26 29  1  0
 29 30  1  0
 29 31  1  0
 10 32  1  0
  6 33  1  0
 33 34  1  0
 33 35  2  0
 35 36  1  0
 35  2  1  0
 32  7  1  0
 29 11  1  0
 24 16  1  0
M  END
>  <cnnaffinity>  (1) 
-5.10704

>  <filename>  (1) 
[H]c1nc([H])c(-c2nnc(C3(OC([H])([H])c4c([H])c([H])nc([H])c4[H])C([H])([H])C3([H])[H])o2)c([H])c1[H]

$$$$
