
     RDKit          3D

 47 51  0  0  0  0  0  0  0  0999 V2000
   11.3488    2.7528   20.1860 Cl  0  0  0  0  0  0  0  0  0  0  0  0
   11.6630    2.7487   21.8554 C   0  0  0  0  0  0  0  0  0  0  0  0
   11.2103    1.7214   22.6739 C   0  0  0  0  0  0  0  0  0  0  0  0
    9.8468    1.2043   22.4863 C   0  0  0  0  0  0  0  0  0  0  0  0
    9.4688    0.1883   21.7428 N   0  0  0  0  0  0  0  0  0  0  0  0
    8.1171    0.1941   21.8861 C   0  0  0  0  0  0  0  0  0  0  0  0
    7.2533   -0.7560   21.1048 C   0  0  0  0  0  0  0  0  0  0  0  0
    6.6038   -0.0975   19.8910 C   0  0  0  0  0  0  0  0  0  0  0  0
    5.4474    0.6719   20.0616 C   0  0  0  0  0  0  0  0  0  0  0  0
    4.9081    1.3409   18.9618 C   0  0  0  0  0  0  0  0  0  0  0  0
    5.5522    1.2284   17.7275 C   0  0  0  0  0  0  0  0  0  0  0  0
    6.6685    0.5062   17.5400 N   0  0  0  0  0  0  0  0  0  0  0  0
    7.1720   -0.1338   18.6039 C   0  0  0  0  0  0  0  0  0  0  0  0
    8.0851   -0.7057   18.4252 H   0  0  0  0  0  0  0  0  0  0  0  0
    5.1578    1.7365   16.8485 H   0  0  0  0  0  0  0  0  0  0  0  0
    4.0214    1.9581   19.0552 H   0  0  0  0  0  0  0  0  0  0  0  0
    4.9955    0.7529   21.0513 H   0  0  0  0  0  0  0  0  0  0  0  0
    7.8979   -1.5856   20.7970 H   0  0  0  0  0  0  0  0  0  0  0  0
    6.4857   -1.1660   21.7729 H   0  0  0  0  0  0  0  0  0  0  0  0
    7.6477    1.1427   22.6775 N   0  0  0  0  0  0  0  0  0  0  0  0
    8.7740    1.7849   23.0805 N   0  0  0  0  0  0  0  0  0  0  0  0
    8.7206    3.0281   23.8724 C   0  0  0  0  0  0  0  0  0  0  0  0
    7.8357    2.8878   25.1389 C   0  0  0  0  0  0  0  0  0  0  0  0
    6.4565    3.5159   24.9251 C   0  0  0  0  0  0  0  0  0  0  0  0
    6.5428    4.8998   24.5958 O   0  0  0  0  0  0  0  0  0  0  0  0
    7.6479    5.3341   23.8048 C   0  0  0  0  0  0  0  0  0  0  0  0
    8.2622    4.2067   22.9764 C   0  0  0  0  0  0  0  0  0  0  0  0
    7.4976    3.8404   22.2785 H   0  0  0  0  0  0  0  0  0  0  0  0
    9.1087    4.5712   22.3869 H   0  0  0  0  0  0  0  0  0  0  0  0
    8.4049    5.7943   24.4635 H   0  0  0  0  0  0  0  0  0  0  0  0
    7.2632    6.1273   23.1516 H   0  0  0  0  0  0  0  0  0  0  0  0
    5.8525    3.4768   25.8378 H   0  0  0  0  0  0  0  0  0  0  0  0
    5.9169    2.9616   24.1378 H   0  0  0  0  0  0  0  0  0  0  0  0
    7.7502    1.8340   25.4169 H   0  0  0  0  0  0  0  0  0  0  0  0
    8.3150    3.4057   25.9791 H   0  0  0  0  0  0  0  0  0  0  0  0
    9.7502    3.2082   24.1910 H   0  0  0  0  0  0  0  0  0  0  0  0
   12.0833    1.2601   23.6948 C   0  0  0  0  0  0  0  0  0  0  0  0
   13.2479    1.9428   23.9869 C   0  0  0  0  0  0  0  0  0  0  0  0
   13.4983    3.1879   23.3379 C   0  0  0  0  0  0  0  0  0  0  0  0
   12.6781    3.6054   22.2837 C   0  0  0  0  0  0  0  0  0  0  0  0
   13.2201    4.8404   21.8346 C   0  0  0  0  0  0  0  0  0  0  0  0
   14.2689    5.1724   22.5470 N   0  0  0  0  0  0  0  0  0  0  0  0
   14.4128    4.1943   23.4711 N   0  0  0  0  0  0  0  0  0  0  0  0
   15.2854    4.1141   23.9702 H   0  0  0  0  0  0  0  0  0  0  0  0
   12.8869    5.4609   21.0158 H   0  0  0  0  0  0  0  0  0  0  0  0
   13.9076    1.4573   24.6699 H   0  0  0  0  0  0  0  0  0  0  0  0
   11.8524    0.3523   24.2514 H   0  0  0  0  0  0  0  0  0  0  0  0
  1  2  1  0
  2  3  2  0
  3  4  1  0
  4  5  2  0
  5  6  1  0
  6  7  1  0
  7  8  1  0
  8  9  2  0
  9 10  1  0
 10 11  2  0
 11 12  1  0
 12 13  2  0
 13 14  1  0
 11 15  1  0
 10 16  1  0
  9 17  1  0
  7 18  1  0
  7 19  1  0
  6 20  2  0
 20 21  1  0
 21 22  1  0
 22 23  1  0
 23 24  1  0
 24 25  1  0
 25 26  1  0
 26 27  1  0
 27 28  1  0
 27 29  1  0
 26 30  1  0
 26 31  1  0
 24 32  1  0
 24 33  1  0
 23 34  1  0
 23 35  1  0
 22 36  1  0
  3 37  1  0
 37 38  2  0
 38 39  1  0
 39 40  2  0
 40 41  1  0
 41 42  2  0
 42 43  1  0
 43 44  1  0
 41 45  1  0
 38 46  1  0
 37 47  1  0
 40  2  1  0
 21  4  1  0
 27 22  1  0
 43 39  1  0
 13  8  1  0
M  END
>  <cnnaffinity>  (1) 
-6.33846

>  <filename>  (1) 
[H]c1nc([H])c(C([H])([H])c2nc(-c3c([H])c([H])c4c(c([H])nn4[H])c3Cl)n(C3([H])C([H])([H])C([H])([H])OC([H])([H])C3([H])[H])n2)c([H])c1[H]

$$$$
