
     RDKit          3D

 34 36  0  0  0  0  0  0  0  0999 V2000
    4.9383    1.7929   16.9846 H   0  0  0  0  0  0  0  0  0  0  0  0
    5.4002    1.2852   17.8310 C   0  0  0  0  0  0  0  0  0  0  0  0
    6.5638    0.6603   17.5842 N   0  0  0  0  0  0  0  0  0  0  0  0
    7.1591    0.0370   18.6062 C   0  0  0  0  0  0  0  0  0  0  0  0
    8.1156   -0.4345   18.3715 H   0  0  0  0  0  0  0  0  0  0  0  0
    6.6408    0.0111   19.9143 C   0  0  0  0  0  0  0  0  0  0  0  0
    7.3672   -0.6358   21.0087 C   0  0  0  0  0  0  0  0  0  0  0  0
    7.6889   -0.0636   22.2238 C   0  0  0  0  0  0  0  0  0  0  0  0
    7.4682    1.3847   22.4805 C   0  0  0  0  0  0  0  0  0  0  0  0
    6.8777    1.6996   23.6518 N   0  0  0  0  0  0  0  0  0  0  0  0
    6.6775    2.9828   23.8982 C   0  0  0  0  0  0  0  0  0  0  0  0
    6.0847    3.3820   25.0380 O   0  0  0  0  0  0  0  0  0  0  0  0
    5.6601    2.4268   25.9974 C   0  0  0  0  0  0  0  0  0  0  0  0
    4.9006    1.7510   25.5829 H   0  0  0  0  0  0  0  0  0  0  0  0
    5.2340    3.0391   26.7949 H   0  0  0  0  0  0  0  0  0  0  0  0
    6.5008    1.8286   26.3752 H   0  0  0  0  0  0  0  0  0  0  0  0
    7.0707    4.0300   23.0535 C   0  0  0  0  0  0  0  0  0  0  0  0
    6.8486    5.0413   23.3649 H   0  0  0  0  0  0  0  0  0  0  0  0
    7.7306    3.7166   21.8850 C   0  0  0  0  0  0  0  0  0  0  0  0
    8.0921    4.5315   21.2550 H   0  0  0  0  0  0  0  0  0  0  0  0
    7.9105    2.3557   21.5739 C   0  0  0  0  0  0  0  0  0  0  0  0
    8.3789    2.0253   20.6570 H   0  0  0  0  0  0  0  0  0  0  0  0
    8.2999   -0.8834   23.2350 C   0  0  0  0  0  0  0  0  0  0  0  0
    8.5384   -0.4157   24.1919 H   0  0  0  0  0  0  0  0  0  0  0  0
    8.5891   -2.1910   22.9988 C   0  0  0  0  0  0  0  0  0  0  0  0
    9.0467   -2.8480   23.7253 H   0  0  0  0  0  0  0  0  0  0  0  0
    8.2649   -2.8000   21.7171 C   0  0  0  0  0  0  0  0  0  0  0  0
    8.4123   -3.9670   21.3936 O   0  0  0  0  0  0  0  0  0  0  0  0
    7.7282   -1.9363   20.7863 N   0  0  0  0  0  0  0  0  0  0  0  0
    7.4686   -2.4433   19.9564 H   0  0  0  0  0  0  0  0  0  0  0  0
    5.4149    0.6516   20.1502 C   0  0  0  0  0  0  0  0  0  0  0  0
    4.9931    0.6483   21.1573 H   0  0  0  0  0  0  0  0  0  0  0  0
    4.7915    1.3022   19.0901 C   0  0  0  0  0  0  0  0  0  0  0  0
    3.8659    1.8446   19.2301 H   0  0  0  0  0  0  0  0  0  0  0  0
  1  2  1  0
  2  3  2  0
  3  4  1  0
  4  5  1  0
  4  6  2  0
  6  7  1  0
  7  8  2  0
  8  9  1  0
  9 10  2  0
 10 11  1  0
 11 12  1  0
 12 13  1  0
 13 14  1  0
 13 15  1  0
 13 16  1  0
 11 17  2  0
 17 18  1  0
 17 19  1  0
 19 20  1  0
 19 21  2  0
 21 22  1  0
  8 23  1  0
 23 24  1  0
 23 25  2  0
 25 26  1  0
 25 27  1  0
 27 28  2  0
 27 29  1  0
 29 30  1  0
  6 31  1  0
 31 32  1  0
 31 33  2  0
 33 34  1  0
 33  2  1  0
 29  7  1  0
 21  9  1  0
M  END
>  <cnnaffinity>  (1) 
-5.29238

>  <filename>  (1) 
[H]c1nc([H])c(-c2c(-c3nc(OC([H])([H])[H])c([H])c([H])c3[H])c([H])c([H])c(=O)n2[H])c([H])c1[H]

$$$$
