
     RDKit          3D

 38 40  0  0  0  0  0  0  0  0999 V2000
    4.9279    1.8098   16.8323 H   0  0  0  0  0  0  0  0  0  0  0  0
    5.3545    1.3971   17.7447 C   0  0  0  0  0  0  0  0  0  0  0  0
    6.5377    0.7785   17.6024 N   0  0  0  0  0  0  0  0  0  0  0  0
    7.0722    0.2345   18.6989 C   0  0  0  0  0  0  0  0  0  0  0  0
    8.0496   -0.2373   18.5839 H   0  0  0  0  0  0  0  0  0  0  0  0
    6.4751    0.2737   19.9726 C   0  0  0  0  0  0  0  0  0  0  0  0
    7.1258   -0.4388   21.0864 C   0  0  0  0  0  0  0  0  0  0  0  0
    7.6048    0.2965   22.2349 C   0  0  0  0  0  0  0  0  0  0  0  0
    7.3967    1.3552   22.3503 H   0  0  0  0  0  0  0  0  0  0  0  0
    8.3268   -0.2407   23.1667 N   0  0  0  0  0  0  0  0  0  0  0  0
    8.5828   -1.5825   23.0484 N   0  0  0  0  0  0  0  0  0  0  0  0
    9.2666   -2.2038   24.1524 C   0  0  0  0  0  0  0  0  0  0  0  0
    9.6199   -1.4198   24.8308 H   0  0  0  0  0  0  0  0  0  0  0  0
   10.1455   -2.7283   23.7359 H   0  0  0  0  0  0  0  0  0  0  0  0
    8.3402   -3.1122   24.8166 N   0  0  0  0  0  0  0  0  0  0  0  0
    7.9766   -3.7307   24.0930 H   0  0  0  0  0  0  0  0  0  0  0  0
    8.9352   -3.9117   25.8521 C   0  0  0  0  0  0  0  0  0  0  0  0
    9.4169   -3.2549   26.6042 H   0  0  0  0  0  0  0  0  0  0  0  0
    7.9089   -4.7987   26.5555 C   0  0  0  0  0  0  0  0  0  0  0  0
    7.2234   -4.2221   27.1880 H   0  0  0  0  0  0  0  0  0  0  0  0
    7.2926   -5.2931   25.7892 H   0  0  0  0  0  0  0  0  0  0  0  0
    8.7755   -5.8124   27.3137 C   0  0  0  0  0  0  0  0  0  0  0  0
    8.2594   -6.7561   27.5102 H   0  0  0  0  0  0  0  0  0  0  0  0
    9.0364   -5.3944   28.2942 H   0  0  0  0  0  0  0  0  0  0  0  0
   10.0589   -5.9776   26.4495 C   0  0  0  0  0  0  0  0  0  0  0  0
   10.9213   -5.7839   27.0871 H   0  0  0  0  0  0  0  0  0  0  0  0
   10.1806   -6.9878   26.0458 H   0  0  0  0  0  0  0  0  0  0  0  0
    9.9662   -4.9313   25.3312 C   0  0  0  0  0  0  0  0  0  0  0  0
   10.9419   -4.4921   25.0815 H   0  0  0  0  0  0  0  0  0  0  0  0
    9.5739   -5.3776   24.4033 H   0  0  0  0  0  0  0  0  0  0  0  0
    8.0985   -2.4530   22.0538 C   0  0  0  0  0  0  0  0  0  0  0  0
    8.3323   -3.6621   22.0859 O   0  0  0  0  0  0  0  0  0  0  0  0
    7.3466   -1.7867   21.0168 C   0  0  0  0  0  0  0  0  0  0  0  0
    6.9866   -2.4206   20.2119 H   0  0  0  0  0  0  0  0  0  0  0  0
    5.2734    0.9795   20.1154 C   0  0  0  0  0  0  0  0  0  0  0  0
    4.8246    1.0967   21.1065 H   0  0  0  0  0  0  0  0  0  0  0  0
    4.6829    1.5187   18.9692 C   0  0  0  0  0  0  0  0  0  0  0  0
    3.7322    2.0417   19.0091 H   0  0  0  0  0  0  0  0  0  0  0  0
  1  2  1  0
  2  3  2  0
  3  4  1  0
  4  5  1  0
  4  6  2  0
  6  7  1  0
  7  8  1  0
  8  9  1  0
  8 10  2  0
 10 11  1  0
 11 12  1  0
 12 13  1  0
 12 14  1  0
 12 15  1  0
 15 16  1  0
 15 17  1  0
 17 18  1  0
 17 19  1  0
 19 20  1  0
 19 21  1  0
 19 22  1  0
 22 23  1  0
 22 24  1  0
 22 25  1  0
 25 26  1  0
 25 27  1  0
 25 28  1  0
 28 29  1  0
 28 30  1  0
 11 31  1  0
 31 32  2  0
 31 33  1  0
 33 34  1  0
  6 35  1  0
 35 36  1  0
 35 37  2  0
 37 38  1  0
 37  2  1  0
 33  7  2  0
 28 17  1  0
M  END
>  <cnnaffinity>  (1) 
-4.98642

>  <filename>  (1) 
[H]c1nc([H])c(-c2c([H])nn(C([H])([H])N([H])C3([H])C([H])([H])C([H])([H])C([H])([H])C3([H])[H])c(=O)c2[H])c([H])c1[H]

$$$$
