
     RDKit          3D

 32 34  0  0  0  0  0  0  0  0999 V2000
    4.9078    1.7828   16.9945 H   0  0  0  0  0  0  0  0  0  0  0  0
    5.3988    1.2984   17.8353 C   0  0  0  0  0  0  0  0  0  0  0  0
    6.5616    0.6815   17.5636 N   0  0  0  0  0  0  0  0  0  0  0  0
    7.1757    0.0682   18.5813 C   0  0  0  0  0  0  0  0  0  0  0  0
    8.1200   -0.4323   18.3716 H   0  0  0  0  0  0  0  0  0  0  0  0
    6.6634    0.0178   19.8935 C   0  0  0  0  0  0  0  0  0  0  0  0
    7.3424   -0.6764   20.9459 N   0  0  0  0  0  0  0  0  0  0  0  0
    6.8375   -1.6928   21.7151 C   0  0  0  0  0  0  0  0  0  0  0  0
    5.8469   -2.1016   21.5603 H   0  0  0  0  0  0  0  0  0  0  0  0
    7.7070   -2.0879   22.5995 N   0  0  0  0  0  0  0  0  0  0  0  0
    8.8228   -1.3104   22.4428 N   0  0  0  0  0  0  0  0  0  0  0  0
    8.6038   -0.4668   21.4650 C   0  0  0  0  0  0  0  0  0  0  0  0
    9.5023    0.6591   21.0211 C   0  0  0  0  0  0  0  0  0  0  0  0
    9.4495    0.6977   19.9259 H   0  0  0  0  0  0  0  0  0  0  0  0
   10.9731    0.4135   21.4280 C   0  0  0  0  0  0  0  0  0  0  0  0
   11.2660   -0.6117   21.1761 H   0  0  0  0  0  0  0  0  0  0  0  0
   11.6115    1.0889   20.8466 H   0  0  0  0  0  0  0  0  0  0  0  0
   11.2480    0.7015   22.9111 C   0  0  0  0  0  0  0  0  0  0  0  0
   12.3233    0.6378   23.1099 H   0  0  0  0  0  0  0  0  0  0  0  0
   10.7621   -0.0566   23.5284 H   0  0  0  0  0  0  0  0  0  0  0  0
   10.7595    2.0152   23.3411 N   0  0  0  0  0  0  0  0  0  0  0  0
   11.2519    2.7139   22.7889 H   0  0  0  0  0  0  0  0  0  0  0  0
    9.3306    2.1801   23.0570 C   0  0  0  0  0  0  0  0  0  0  0  0
    8.7818    1.4361   23.6442 H   0  0  0  0  0  0  0  0  0  0  0  0
    9.0052    3.1604   23.4187 H   0  0  0  0  0  0  0  0  0  0  0  0
    8.9950    2.0182   21.5698 C   0  0  0  0  0  0  0  0  0  0  0  0
    9.4895    2.8272   21.0238 H   0  0  0  0  0  0  0  0  0  0  0  0
    7.9178    2.1305   21.4006 H   0  0  0  0  0  0  0  0  0  0  0  0
    5.4428    0.6470   20.1600 C   0  0  0  0  0  0  0  0  0  0  0  0
    5.0200    0.6240   21.1702 H   0  0  0  0  0  0  0  0  0  0  0  0
    4.8073    1.3114   19.1061 C   0  0  0  0  0  0  0  0  0  0  0  0
    3.8730    1.8441   19.2631 H   0  0  0  0  0  0  0  0  0  0  0  0
  1  2  1  0
  2  3  2  0
  3  4  1  0
  4  5  1  0
  4  6  2  0
  6  7  1  0
  7  8  1  0
  8  9  1  0
  8 10  2  0
 10 11  1  0
 11 12  2  0
 12 13  1  0
 13 14  1  0
 13 15  1  0
 15 16  1  0
 15 17  1  0
 15 18  1  0
 18 19  1  0
 18 20  1  0
 18 21  1  0
 21 22  1  0
 21 23  1  0
 23 24  1  0
 23 25  1  0
 23 26  1  0
 26 27  1  0
 26 28  1  0
  6 29  1  0
 29 30  1  0
 29 31  2  0
 31 32  1  0
 31  2  1  0
 12  7  1  0
 26 13  1  0
M  END
>  <cnnaffinity>  (1) 
-4.89667

>  <filename>  (1) 
[H]c1nc([H])c(-n2c([H])nnc2C2([H])C([H])([H])C([H])([H])N([H])C([H])([H])C2([H])[H])c([H])c1[H]

$$$$
