
     RDKit          3D

 35 36  0  0  0  0  0  0  0  0999 V2000
    5.0094    1.8138   16.9331 H   0  0  0  0  0  0  0  0  0  0  0  0
    5.4340    1.2977   17.7923 C   0  0  0  0  0  0  0  0  0  0  0  0
    6.5810    0.6377   17.5761 N   0  0  0  0  0  0  0  0  0  0  0  0
    7.1246   -0.0059   18.6163 C   0  0  0  0  0  0  0  0  0  0  0  0
    8.0533   -0.5399   18.4039 H   0  0  0  0  0  0  0  0  0  0  0  0
    6.5652   -0.0151   19.8930 C   0  0  0  0  0  0  0  0  0  0  0  0
    7.3138   -0.7562   20.9127 C   0  0  0  0  0  0  0  0  0  0  0  0
    8.4419   -0.4756   21.4114 N   0  0  0  0  0  0  0  0  0  0  0  0
    9.1718    0.7364   21.0537 C   0  0  0  0  0  0  0  0  0  0  0  0
    9.5703    0.6646   20.0293 H   0  0  0  0  0  0  0  0  0  0  0  0
    8.5137    1.6207   21.0580 H   0  0  0  0  0  0  0  0  0  0  0  0
   10.3401    0.9532   22.0331 C   0  0  0  0  0  0  0  0  0  0  0  0
    9.8885    1.0595   23.0313 H   0  0  0  0  0  0  0  0  0  0  0  0
   11.1313    2.2345   21.7067 C   0  0  0  0  0  0  0  0  0  0  0  0
   10.4634    3.1042   21.7637 H   0  0  0  0  0  0  0  0  0  0  0  0
   11.4776    2.1715   20.6649 H   0  0  0  0  0  0  0  0  0  0  0  0
   12.3458    2.4617   22.6266 C   0  0  0  0  0  0  0  0  0  0  0  0
   11.9925    2.7860   23.6143 H   0  0  0  0  0  0  0  0  0  0  0  0
   12.9540    3.2898   22.2368 H   0  0  0  0  0  0  0  0  0  0  0  0
   13.2168    1.2067   22.8023 C   0  0  0  0  0  0  0  0  0  0  0  0
   13.7797    0.9966   21.8889 H   0  0  0  0  0  0  0  0  0  0  0  0
   13.9670    1.3735   23.5853 H   0  0  0  0  0  0  0  0  0  0  0  0
   12.3955   -0.0456   23.1139 C   0  0  0  0  0  0  0  0  0  0  0  0
   11.9517    0.0381   24.1158 H   0  0  0  0  0  0  0  0  0  0  0  0
   13.0628   -0.9110   23.1135 H   0  0  0  0  0  0  0  0  0  0  0  0
   11.2816   -0.2618   22.0893 C   0  0  0  0  0  0  0  0  0  0  0  0
   10.7056   -1.1645   22.3175 H   0  0  0  0  0  0  0  0  0  0  0  0
   11.7211   -0.4187   21.0926 H   0  0  0  0  0  0  0  0  0  0  0  0
    6.7519   -1.9579   21.3042 N   0  0  0  0  0  0  0  0  0  0  0  0
    5.7601   -1.8568   21.4498 H   0  0  0  0  0  0  0  0  0  0  0  0
    7.2594   -2.2240   22.1419 H   0  0  0  0  0  0  0  0  0  0  0  0
    5.3543    0.6594   20.1107 C   0  0  0  0  0  0  0  0  0  0  0  0
    4.8904    0.6912   21.0984 H   0  0  0  0  0  0  0  0  0  0  0  0
    4.7852    1.3348   19.0316 C   0  0  0  0  0  0  0  0  0  0  0  0
    3.8621    1.8912   19.1412 H   0  0  0  0  0  0  0  0  0  0  0  0
  1  2  1  0
  2  3  2  0
  3  4  1  0
  4  5  1  0
  4  6  2  0
  6  7  1  0
  7  8  2  3
  8  9  1  0
  9 10  1  0
  9 11  1  0
  9 12  1  0
 12 13  1  0
 12 14  1  0
 14 15  1  0
 14 16  1  0
 14 17  1  0
 17 18  1  0
 17 19  1  0
 17 20  1  0
 20 21  1  0
 20 22  1  0
 20 23  1  0
 23 24  1  0
 23 25  1  0
 23 26  1  0
 26 27  1  0
 26 28  1  0
  7 29  1  0
 29 30  1  0
 29 31  1  0
  6 32  1  0
 32 33  1  0
 32 34  2  0
 34 35  1  0
 34  2  1  0
 26 12  1  0
M  END
>  <cnnaffinity>  (1) 
-4.64969

>  <filename>  (1) 
[H]c1nc([H])c(C(=NC([H])([H])C2([H])C([H])([H])C([H])([H])C([H])([H])C([H])([H])C2([H])[H])N([H])[H])c([H])c1[H]

$$$$
