
     RDKit          3D

 35 37  0  0  0  0  0  0  0  0999 V2000
   10.2243   -0.3175   22.7769 H   0  0  0  0  0  0  0  0  0  0  0  0
    9.2790   -0.7431   22.4838 C   0  0  0  0  0  0  0  0  0  0  0  0
    8.6128   -1.5272   23.3244 C   0  0  0  0  0  0  0  0  0  0  0  0
    9.0950   -1.8443   24.7149 C   0  0  0  0  0  0  0  0  0  0  0  0
    9.0378   -2.9218   24.9010 H   0  0  0  0  0  0  0  0  0  0  0  0
   10.1545   -1.5837   24.7639 H   0  0  0  0  0  0  0  0  0  0  0  0
    8.3269   -1.0808   25.7750 C   0  0  0  0  0  0  0  0  0  0  0  0
    7.2244   -1.6886   26.3899 C   0  0  0  0  0  0  0  0  0  0  0  0
    6.9830   -2.7123   26.1173 H   0  0  0  0  0  0  0  0  0  0  0  0
    6.4424   -1.0130   27.3253 C   0  0  0  0  0  0  0  0  0  0  0  0
    5.5980   -1.5157   27.7875 H   0  0  0  0  0  0  0  0  0  0  0  0
    6.7556    0.3057   27.6616 C   0  0  0  0  0  0  0  0  0  0  0  0
    6.1571    0.8381   28.3928 H   0  0  0  0  0  0  0  0  0  0  0  0
    7.8419    0.9471   27.0606 C   0  0  0  0  0  0  0  0  0  0  0  0
    8.1011    1.9721   27.3115 H   0  0  0  0  0  0  0  0  0  0  0  0
    8.6151    0.2521   26.1265 C   0  0  0  0  0  0  0  0  0  0  0  0
    9.9556    1.1049   25.4020 Cl  0  0  0  0  0  0  0  0  0  0  0  0
    7.3887   -2.0268   22.9014 N   0  0  0  0  0  0  0  0  0  0  0  0
    6.8241   -2.6561   23.4315 H   0  0  0  0  0  0  0  0  0  0  0  0
    6.6927   -1.6253   21.7748 C   0  0  0  0  0  0  0  0  0  0  0  0
    5.6070   -2.1161   21.5453 O   0  0  0  0  0  0  0  0  0  0  0  0
    7.3461   -0.6824   20.9818 N   0  0  0  0  0  0  0  0  0  0  0  0
    6.6626   -0.0093   19.9203 C   0  0  0  0  0  0  0  0  0  0  0  0
    7.1801    0.0594   18.6082 C   0  0  0  0  0  0  0  0  0  0  0  0
    8.1258   -0.4234   18.3699 H   0  0  0  0  0  0  0  0  0  0  0  0
    6.5676    0.6727   17.5905 N   0  0  0  0  0  0  0  0  0  0  0  0
    5.4039    1.2905   17.8416 C   0  0  0  0  0  0  0  0  0  0  0  0
    4.9193    1.7803   16.9969 H   0  0  0  0  0  0  0  0  0  0  0  0
    4.8178    1.3064   19.1114 C   0  0  0  0  0  0  0  0  0  0  0  0
    3.8847    1.8368   19.2616 H   0  0  0  0  0  0  0  0  0  0  0  0
    5.4440    0.6389   20.1694 C   0  0  0  0  0  0  0  0  0  0  0  0
    5.0134    0.6147   21.1703 H   0  0  0  0  0  0  0  0  0  0  0  0
    8.8023   -0.5155   21.0904 C   0  0  0  0  0  0  0  0  0  0  0  0
    9.0660    0.4989   20.7821 H   0  0  0  0  0  0  0  0  0  0  0  0
    9.3302   -1.1990   20.4044 H   0  0  0  0  0  0  0  0  0  0  0  0
  1  2  1  0
  2  3  2  0
  3  4  1  0
  4  5  1  0
  4  6  1  0
  4  7  1  0
  7  8  2  0
  8  9  1  0
  8 10  1  0
 10 11  1  0
 10 12  2  0
 12 13  1  0
 12 14  1  0
 14 15  1  0
 14 16  2  0
 16 17  1  0
  3 18  1  0
 18 19  1  0
 18 20  1  0
 20 21  2  0
 20 22  1  0
 22 23  1  0
 23 24  2  0
 24 25  1  0
 24 26  1  0
 26 27  2  0
 27 28  1  0
 27 29  1  0
 29 30  1  0
 29 31  2  0
 31 32  1  0
 22 33  1  0
 33 34  1  0
 33 35  1  0
 33  2  1  0
 16  7  1  0
 31 23  1  0
M  END
>  <cnnaffinity>  (1) 
-5.35617

>  <filename>  (1) 
[H]C1=C(C([H])([H])c2c([H])c([H])c([H])c([H])c2Cl)N([H])C(=O)N(c2c([H])nc([H])c([H])c2[H])C1([H])[H]

$$$$
