
     RDKit          3D

 38 40  0  0  0  0  0  0  0  0999 V2000
    9.3745   -4.6402   26.4293 C   0  0  0  0  0  0  0  0  0  0  0  0
    7.8998   -4.9618   26.3971 C   0  0  0  0  0  0  0  0  0  0  0  0
    7.4970   -6.2985   26.3162 C   0  0  0  0  0  0  0  0  0  0  0  0
    6.1455   -6.6546   26.3023 C   0  0  0  0  0  0  0  0  0  0  0  0
    5.1655   -5.6673   26.2931 C   0  0  0  0  0  0  0  0  0  0  0  0
    5.5469   -4.3249   26.3417 C   0  0  0  0  0  0  0  0  0  0  0  0
    6.9014   -3.9682   26.4500 C   0  0  0  0  0  0  0  0  0  0  0  0
    7.2451   -2.4976   26.5894 C   0  0  0  0  0  0  0  0  0  0  0  0
    7.6926   -1.9036   25.3376 N   0  0  0  0  0  0  0  0  0  0  0  0
    8.9236   -1.4495   24.9763 C   0  0  0  0  0  0  0  0  0  0  0  0
    8.8486   -1.0779   23.6506 C   0  0  0  0  0  0  0  0  0  0  0  0
    7.5070   -1.3333   23.3154 C   0  0  0  0  0  0  0  0  0  0  0  0
    6.8204   -1.0852   22.1380 N   0  0  0  0  0  0  0  0  0  0  0  0
    7.4187   -0.6664   20.9981 C   0  0  0  0  0  0  0  0  0  0  0  0
    8.6179   -0.7809   20.8232 O   0  0  0  0  0  0  0  0  0  0  0  0
    6.5495   -0.0610   19.9538 C   0  0  0  0  0  0  0  0  0  0  0  0
    5.3244    0.5960   20.1537 C   0  0  0  0  0  0  0  0  0  0  0  0
    4.7617    1.2663   19.0680 C   0  0  0  0  0  0  0  0  0  0  0  0
    5.4191    1.2334   17.8330 C   0  0  0  0  0  0  0  0  0  0  0  0
    6.5695    0.5782   17.6246 N   0  0  0  0  0  0  0  0  0  0  0  0
    7.1130   -0.0485   18.6681 C   0  0  0  0  0  0  0  0  0  0  0  0
    8.0525   -0.5653   18.4762 H   0  0  0  0  0  0  0  0  0  0  0  0
    5.0073    1.7554   16.9722 H   0  0  0  0  0  0  0  0  0  0  0  0
    3.8389    1.8284   19.1660 H   0  0  0  0  0  0  0  0  0  0  0  0
    4.8188    0.6366   21.1227 H   0  0  0  0  0  0  0  0  0  0  0  0
    5.8252   -1.1554   22.2381 H   0  0  0  0  0  0  0  0  0  0  0  0
    6.8108   -1.8172   24.3210 N   0  0  0  0  0  0  0  0  0  0  0  0
    9.5779   -0.6836   22.9625 H   0  0  0  0  0  0  0  0  0  0  0  0
    9.7456   -1.4057   25.6868 H   0  0  0  0  0  0  0  0  0  0  0  0
    6.3390   -1.9556   26.8842 H   0  0  0  0  0  0  0  0  0  0  0  0
    8.0211   -2.3262   27.3425 H   0  0  0  0  0  0  0  0  0  0  0  0
    4.7922   -3.5431   26.2424 H   0  0  0  0  0  0  0  0  0  0  0  0
    4.1214   -5.9596   26.2034 H   0  0  0  0  0  0  0  0  0  0  0  0
    5.8529   -7.6966   26.2996 H   0  0  0  0  0  0  0  0  0  0  0  0
    8.2736   -7.0533   26.2401 H   0  0  0  0  0  0  0  0  0  0  0  0
    9.6769   -4.3067   27.4281 H   0  0  0  0  0  0  0  0  0  0  0  0
    9.9662   -5.5244   26.1784 H   0  0  0  0  0  0  0  0  0  0  0  0
    9.6360   -3.8581   25.7074 H   0  0  0  0  0  0  0  0  0  0  0  0
  1  2  1  0
  2  3  2  0
  3  4  1  0
  4  5  2  0
  5  6  1  0
  6  7  2  0
  7  8  1  0
  8  9  1  0
  9 10  1  0
 10 11  2  0
 11 12  1  0
 12 13  1  0
 13 14  1  0
 14 15  2  0
 14 16  1  0
 16 17  2  0
 17 18  1  0
 18 19  2  0
 19 20  1  0
 20 21  2  0
 21 22  1  0
 19 23  1  0
 18 24  1  0
 17 25  1  0
 13 26  1  0
 12 27  2  0
 11 28  1  0
 10 29  1  0
  8 30  1  0
  8 31  1  0
  6 32  1  0
  5 33  1  0
  4 34  1  0
  3 35  1  0
  1 36  1  0
  1 37  1  0
  1 38  1  0
  7  2  1  0
 27  9  1  0
 21 16  1  0
M  END
>  <cnnaffinity>  (1) 
-4.98286

>  <filename>  (1) 
[H]c1nc([H])c(C(=O)N([H])c2nn(C([H])([H])c3c([H])c([H])c([H])c([H])c3C([H])([H])[H])c([H])c2[H])c([H])c1[H]

$$$$
