
     RDKit          3D

 26 27  0  0  0  0  0  0  0  0999 V2000
   10.8803   -1.2246   24.6782 H   0  0  0  0  0  0  0  0  0  0  0  0
   10.0776   -1.8622   24.3241 C   0  0  0  0  0  0  0  0  0  0  0  0
    9.1892   -1.2709   23.5128 N   0  0  0  0  0  0  0  0  0  0  0  0
    8.1642   -2.0248   23.0911 C   0  0  0  0  0  0  0  0  0  0  0  0
    6.7258   -1.1571   22.1771 S   0  0  0  0  0  0  0  0  0  0  0  0
    5.7880   -2.1325   21.6608 O   0  0  0  0  0  0  0  0  0  0  0  0
    6.2803   -0.0077   22.9380 O   0  0  0  0  0  0  0  0  0  0  0  0
    7.5748   -0.5357   20.8893 O   0  0  0  0  0  0  0  0  0  0  0  0
    6.8482    0.1219   19.8590 C   0  0  0  0  0  0  0  0  0  0  0  0
    7.3790    0.1359   18.5512 C   0  0  0  0  0  0  0  0  0  0  0  0
    8.3539   -0.2970   18.3372 H   0  0  0  0  0  0  0  0  0  0  0  0
    6.7200    0.6643   17.5084 N   0  0  0  0  0  0  0  0  0  0  0  0
    5.5265    1.2345   17.7442 C   0  0  0  0  0  0  0  0  0  0  0  0
    5.0086    1.6518   16.8837 H   0  0  0  0  0  0  0  0  0  0  0  0
    4.9555    1.3143   19.0164 C   0  0  0  0  0  0  0  0  0  0  0  0
    3.9995    1.8064   19.1538 H   0  0  0  0  0  0  0  0  0  0  0  0
    5.6392    0.7735   20.1112 C   0  0  0  0  0  0  0  0  0  0  0  0
    5.2663    0.8691   21.1283 H   0  0  0  0  0  0  0  0  0  0  0  0
    8.0084   -3.3044   23.3741 N   0  0  0  0  0  0  0  0  0  0  0  0
    8.8625   -3.8900   24.2469 C   0  0  0  0  0  0  0  0  0  0  0  0
    8.5144   -5.3098   24.7594 C   0  0  0  0  0  0  0  0  0  0  0  0
    8.5173   -5.3383   26.1113 F   0  0  0  0  0  0  0  0  0  0  0  0
    7.3160   -5.7226   24.3464 F   0  0  0  0  0  0  0  0  0  0  0  0
    9.4145   -6.2321   24.3733 F   0  0  0  0  0  0  0  0  0  0  0  0
    9.9648   -3.1937   24.7300 C   0  0  0  0  0  0  0  0  0  0  0  0
   10.6725   -3.6582   25.4021 H   0  0  0  0  0  0  0  0  0  0  0  0
  1  2  1  0
  2  3  2  0
  3  4  1  0
  4  5  1  0
  5  6  2  0
  5  7  2  0
  5  8  1  0
  8  9  1  0
  9 10  2  0
 10 11  1  0
 10 12  1  0
 12 13  2  0
 13 14  1  0
 13 15  1  0
 15 16  1  0
 15 17  2  0
 17 18  1  0
  4 19  2  0
 19 20  1  0
 20 21  1  0
 21 22  1  0
 21 23  1  0
 21 24  1  0
 20 25  2  0
 25 26  1  0
 25  2  1  0
 17  9  1  0
M  END
>  <cnnaffinity>  (1) 
-4.54865

>  <filename>  (1) 
[H]c1nc(S(=O)(=O)Oc2c([H])nc([H])c([H])c2[H])nc(C(F)(F)F)c1[H]

$$$$
