
     RDKit          3D

 39 42  0  0  0  0  0  0  0  0999 V2000
    7.0029   -4.1060   24.6864 O   0  0  0  0  0  0  0  0  0  0  0  0
    6.5214   -3.0192   24.5155 C   0  0  0  0  0  0  0  0  0  0  0  0
    7.3020   -1.7432   24.4523 C   0  0  0  0  0  0  0  0  0  0  0  0
    7.7085   -1.5408   23.0345 C   0  0  0  0  0  0  0  0  0  0  0  0
    8.8273   -2.0237   22.4411 C   0  0  0  0  0  0  0  0  0  0  0  0
    8.8751   -1.5368   20.7959 S   0  0  0  0  0  0  0  0  0  0  0  0
    7.3388   -0.7311   21.0127 C   0  0  0  0  0  0  0  0  0  0  0  0
    6.6414   -0.0097   19.9396 C   0  0  0  0  0  0  0  0  0  0  0  0
    5.4209    0.6536   20.1690 C   0  0  0  0  0  0  0  0  0  0  0  0
    4.8040    1.3075   19.1027 C   0  0  0  0  0  0  0  0  0  0  0  0
    5.4307    1.2792   17.8516 C   0  0  0  0  0  0  0  0  0  0  0  0
    6.5916    0.6497   17.6157 N   0  0  0  0  0  0  0  0  0  0  0  0
    7.1812    0.0284   18.6434 C   0  0  0  0  0  0  0  0  0  0  0  0
    8.1302   -0.4627   18.4283 H   0  0  0  0  0  0  0  0  0  0  0  0
    4.9717    1.7886   17.0052 H   0  0  0  0  0  0  0  0  0  0  0  0
    3.8679    1.8409   19.2359 H   0  0  0  0  0  0  0  0  0  0  0  0
    4.9830    0.6524   21.1673 H   0  0  0  0  0  0  0  0  0  0  0  0
    6.8690   -0.8435   22.2228 N   0  0  0  0  0  0  0  0  0  0  0  0
    9.6000   -2.6129   22.9015 H   0  0  0  0  0  0  0  0  0  0  0  0
    8.1637   -1.8600   25.1084 H   0  0  0  0  0  0  0  0  0  0  0  0
    6.6759   -0.9091   24.7612 H   0  0  0  0  0  0  0  0  0  0  0  0
    5.1979   -2.7665   24.3589 O   0  0  0  0  0  0  0  0  0  0  0  0
    4.3008   -3.8243   24.4666 C   0  0  0  0  0  0  0  0  0  0  0  0
    3.7338   -4.2654   23.3012 C   0  0  0  0  0  0  0  0  0  0  0  0
    2.7435   -5.2864   23.3300 C   0  0  0  0  0  0  0  0  0  0  0  0
    2.4132   -5.8806   24.5244 C   0  0  0  0  0  0  0  0  0  0  0  0
    3.0256   -5.4604   25.7508 C   0  0  0  0  0  0  0  0  0  0  0  0
    2.7037   -6.0888   26.9943 C   0  0  0  0  0  0  0  0  0  0  0  0
    3.2668   -5.6542   28.1703 C   0  0  0  0  0  0  0  0  0  0  0  0
    4.1666   -4.5535   28.1735 C   0  0  0  0  0  0  0  0  0  0  0  0
    4.4968   -3.9204   26.9976 C   0  0  0  0  0  0  0  0  0  0  0  0
    3.9683   -4.3783   25.7441 C   0  0  0  0  0  0  0  0  0  0  0  0
    5.1581   -3.0599   27.0121 H   0  0  0  0  0  0  0  0  0  0  0  0
    4.5895   -4.2158   29.1160 H   0  0  0  0  0  0  0  0  0  0  0  0
    3.0337   -6.1501   29.1091 H   0  0  0  0  0  0  0  0  0  0  0  0
    2.0064   -6.9236   26.9926 H   0  0  0  0  0  0  0  0  0  0  0  0
    1.6621   -6.6653   24.5659 H   0  0  0  0  0  0  0  0  0  0  0  0
    2.2493   -5.5823   22.4051 H   0  0  0  0  0  0  0  0  0  0  0  0
    4.0595   -3.8108   22.3744 H   0  0  0  0  0  0  0  0  0  0  0  0
  1  2  2  0
  2  3  1  0
  3  4  1  0
  4  5  2  0
  5  6  1  0
  6  7  1  0
  7  8  1  0
  8  9  2  0
  9 10  1  0
 10 11  2  0
 11 12  1  0
 12 13  2  0
 13 14  1  0
 11 15  1  0
 10 16  1  0
  9 17  1  0
  7 18  2  0
  5 19  1  0
  3 20  1  0
  3 21  1  0
  2 22  1  0
 22 23  1  0
 23 24  2  0
 24 25  1  0
 25 26  2  0
 26 27  1  0
 27 28  2  0
 28 29  1  0
 29 30  2  0
 30 31  1  0
 31 32  2  0
 31 33  1  0
 30 34  1  0
 29 35  1  0
 28 36  1  0
 26 37  1  0
 25 38  1  0
 24 39  1  0
 18  4  1  0
 32 23  1  0
 13  8  1  0
 32 27  1  0
M  END
>  <cnnaffinity>  (1) 
-5.44781

>  <filename>  (1) 
[H]c1nc([H])c(-c2nc(C([H])([H])C(=O)Oc3c([H])c([H])c([H])c4c([H])c([H])c([H])c([H])c34)c([H])s2)c([H])c1[H]

$$$$
