
     RDKit          3D

 28 30  0  0  0  0  0  0  0  0999 V2000
    4.9148    1.8060   16.9768 H   0  0  0  0  0  0  0  0  0  0  0  0
    5.3880    1.3027   17.8178 C   0  0  0  0  0  0  0  0  0  0  0  0
    6.5507    0.6819   17.5541 N   0  0  0  0  0  0  0  0  0  0  0  0
    7.1534    0.0503   18.5672 C   0  0  0  0  0  0  0  0  0  0  0  0
    8.1138   -0.4102   18.3327 H   0  0  0  0  0  0  0  0  0  0  0  0
    6.6483   -0.0040   19.8839 C   0  0  0  0  0  0  0  0  0  0  0  0
    7.3581   -0.6940   20.9675 C   0  0  0  0  0  0  0  0  0  0  0  0
    7.5600   -0.3676   22.2972 C   0  0  0  0  0  0  0  0  0  0  0  0
    7.2995    0.9427   22.8544 C   0  0  0  0  0  0  0  0  0  0  0  0
    7.3107    2.1997   22.2551 C   0  0  0  0  0  0  0  0  0  0  0  0
    7.4910    2.4153   21.2106 H   0  0  0  0  0  0  0  0  0  0  0  0
    7.0110    3.0899   23.2891 C   0  0  0  0  0  0  0  0  0  0  0  0
    6.9314    4.1692   23.2597 H   0  0  0  0  0  0  0  0  0  0  0  0
    6.8271    2.4493   24.4381 N   0  0  0  0  0  0  0  0  0  0  0  0
    7.0012    1.1564   24.1654 N   0  0  0  0  0  0  0  0  0  0  0  0
    6.9044    0.1678   25.2276 C   0  0  0  0  0  0  0  0  0  0  0  0
    6.2690   -0.6532   24.8884 H   0  0  0  0  0  0  0  0  0  0  0  0
    7.8901   -0.2430   25.4614 H   0  0  0  0  0  0  0  0  0  0  0  0
    6.4643    0.6657   26.0915 H   0  0  0  0  0  0  0  0  0  0  0  0
    8.1638   -1.4236   22.9604 N   0  0  0  0  0  0  0  0  0  0  0  0
    8.3657   -2.3288   22.0447 C   0  0  0  0  0  0  0  0  0  0  0  0
    8.8400   -3.2956   22.1892 H   0  0  0  0  0  0  0  0  0  0  0  0
    7.9174   -1.9362   20.8241 N   0  0  0  0  0  0  0  0  0  0  0  0
    7.8556   -2.4914   19.9866 H   0  0  0  0  0  0  0  0  0  0  0  0
    5.4275    0.6476   20.1330 C   0  0  0  0  0  0  0  0  0  0  0  0
    5.0181    0.6410   21.1441 H   0  0  0  0  0  0  0  0  0  0  0  0
    4.7946    1.3131   19.0834 C   0  0  0  0  0  0  0  0  0  0  0  0
    3.8669    1.8482   19.2392 H   0  0  0  0  0  0  0  0  0  0  0  0
  1  2  1  0
  2  3  2  0
  3  4  1  0
  4  5  1  0
  4  6  2  0
  6  7  1  0
  7  8  2  0
  8  9  1  0
  9 10  2  0
 10 11  1  0
 10 12  1  0
 12 13  1  0
 12 14  2  0
 14 15  1  0
 15 16  1  0
 16 17  1  0
 16 18  1  0
 16 19  1  0
  8 20  1  0
 20 21  2  0
 21 22  1  0
 21 23  1  0
 23 24  1  0
  6 25  1  0
 25 26  1  0
 25 27  2  0
 27 28  1  0
 27  2  1  0
 23  7  1  0
 15  9  1  0
M  END
>  <cnnaffinity>  (1) 
-4.82134

>  <filename>  (1) 
[H]c1nc([H])c(-c2c(-c3c([H])c([H])nn3C([H])([H])[H])nc([H])n2[H])c([H])c1[H]

$$$$
