
     RDKit          3D

 43 45  0  0  0  0  0  0  0  0999 V2000
    4.6145    2.1944   17.1006 H   0  0  0  0  0  0  0  0  0  0  0  0
    5.1226    1.6509   17.8879 C   0  0  0  0  0  0  0  0  0  0  0  0
    6.3298    1.1558   17.5745 N   0  0  0  0  0  0  0  0  0  0  0  0
    7.0149    0.5363   18.5424 C   0  0  0  0  0  0  0  0  0  0  0  0
    7.9968    0.1816   18.2212 H   0  0  0  0  0  0  0  0  0  0  0  0
    6.5505    0.3312   19.8670 C   0  0  0  0  0  0  0  0  0  0  0  0
    7.4724   -0.3461   20.9096 C   0  0  0  0  0  0  0  0  0  0  0  0
    8.6489    0.6176   21.2267 C   0  0  0  0  0  0  0  0  0  0  0  0
    8.1976    1.5282   21.6434 H   0  0  0  0  0  0  0  0  0  0  0  0
    9.0924    0.9335   20.2735 H   0  0  0  0  0  0  0  0  0  0  0  0
    9.7498    0.0766   22.1751 C   0  0  0  0  0  0  0  0  0  0  0  0
    9.5782   -0.9997   22.3571 H   0  0  0  0  0  0  0  0  0  0  0  0
    9.7037    0.7464   23.5686 C   0  0  0  0  0  0  0  0  0  0  0  0
    8.7022    0.6156   24.0036 H   0  0  0  0  0  0  0  0  0  0  0  0
    9.8433    1.8318   23.4437 H   0  0  0  0  0  0  0  0  0  0  0  0
   10.7802    0.1906   24.5135 C   0  0  0  0  0  0  0  0  0  0  0  0
   10.7291    0.6901   25.4890 H   0  0  0  0  0  0  0  0  0  0  0  0
   10.5803   -0.8779   24.6945 H   0  0  0  0  0  0  0  0  0  0  0  0
   12.1789    0.3356   23.8928 C   0  0  0  0  0  0  0  0  0  0  0  0
   12.9494   -0.0453   24.5751 H   0  0  0  0  0  0  0  0  0  0  0  0
   12.3913    1.4060   23.7525 H   0  0  0  0  0  0  0  0  0  0  0  0
   12.2419   -0.3723   22.5307 C   0  0  0  0  0  0  0  0  0  0  0  0
   13.2433   -0.2899   22.0886 H   0  0  0  0  0  0  0  0  0  0  0  0
   12.0602   -1.4486   22.6804 H   0  0  0  0  0  0  0  0  0  0  0  0
   11.1731    0.1689   21.5683 C   0  0  0  0  0  0  0  0  0  0  0  0
   11.2106   -0.4190   20.6416 H   0  0  0  0  0  0  0  0  0  0  0  0
   11.4012    1.2166   21.3054 H   0  0  0  0  0  0  0  0  0  0  0  0
    7.9647   -1.7038   20.3475 C   0  0  0  0  0  0  0  0  0  0  0  0
    8.0057   -1.6259   19.2611 H   0  0  0  0  0  0  0  0  0  0  0  0
    8.9878   -1.9270   20.6574 H   0  0  0  0  0  0  0  0  0  0  0  0
    7.0176   -2.8094   20.8753 C   0  0  0  0  0  0  0  0  0  0  0  0
    6.4928   -3.3554   20.0864 H   0  0  0  0  0  0  0  0  0  0  0  0
    7.5963   -3.5534   21.4327 H   0  0  0  0  0  0  0  0  0  0  0  0
    6.0315   -2.0879   21.8036 C   0  0  0  0  0  0  0  0  0  0  0  0
    5.7191   -2.6881   22.6638 H   0  0  0  0  0  0  0  0  0  0  0  0
    5.1377   -1.8163   21.2427 H   0  0  0  0  0  0  0  0  0  0  0  0
    6.7580   -0.8047   22.2032 C   0  0  0  0  0  0  0  0  0  0  0  0
    6.1211   -0.0208   22.6372 H   0  0  0  0  0  0  0  0  0  0  0  0
    7.5156   -1.0414   22.9587 H   0  0  0  0  0  0  0  0  0  0  0  0
    5.2673    0.8248   20.1446 C   0  0  0  0  0  0  0  0  0  0  0  0
    4.8221    0.6829   21.1264 H   0  0  0  0  0  0  0  0  0  0  0  0
    4.5521    1.5093   19.1558 C   0  0  0  0  0  0  0  0  0  0  0  0
    3.5825    1.9521   19.3547 H   0  0  0  0  0  0  0  0  0  0  0  0
  1  2  1  0
  2  3  2  0
  3  4  1  0
  4  5  1  0
  4  6  2  0
  6  7  1  0
  7  8  1  0
  8  9  1  0
  8 10  1  0
  8 11  1  0
 11 12  1  0
 11 13  1  0
 13 14  1  0
 13 15  1  0
 13 16  1  0
 16 17  1  0
 16 18  1  0
 16 19  1  0
 19 20  1  0
 19 21  1  0
 19 22  1  0
 22 23  1  0
 22 24  1  0
 22 25  1  0
 25 26  1  0
 25 27  1  0
  7 28  1  0
 28 29  1  0
 28 30  1  0
 28 31  1  0
 31 32  1  0
 31 33  1  0
 31 34  1  0
 34 35  1  0
 34 36  1  0
 34 37  1  0
 37 38  1  0
 37 39  1  0
  6 40  1  0
 40 41  1  0
 40 42  2  0
 42 43  1  0
 42  2  1  0
 37  7  1  0
 25 11  1  0
M  END
>  <cnnaffinity>  (1) 
-4.87554

>  <filename>  (1) 
[H]c1nc([H])c(C2(C([H])([H])C3([H])C([H])([H])C([H])([H])C([H])([H])C([H])([H])C3([H])[H])C([H])([H])C([H])([H])C([H])([H])C2([H])[H])c([H])c1[H]

$$$$
