
     RDKit          3D

 39 41  0  0  0  0  0  0  0  0999 V2000
   10.4562   -1.2960   21.8868 H   0  0  0  0  0  0  0  0  0  0  0  0
    9.3695   -1.3306   21.9211 C   0  0  0  0  0  0  0  0  0  0  0  0
    8.7516   -0.7060   20.9266 N   0  0  0  0  0  0  0  0  0  0  0  0
    7.4166   -0.7171   20.9726 C   0  0  0  0  0  0  0  0  0  0  0  0
    6.6739    0.0094   19.9205 C   0  0  0  0  0  0  0  0  0  0  0  0
    7.1877    0.0581   18.6179 C   0  0  0  0  0  0  0  0  0  0  0  0
    8.1289   -0.4261   18.3745 H   0  0  0  0  0  0  0  0  0  0  0  0
    6.5696    0.6637   17.5978 N   0  0  0  0  0  0  0  0  0  0  0  0
    5.4080    1.2837   17.8512 C   0  0  0  0  0  0  0  0  0  0  0  0
    4.9244    1.7722   17.0065 H   0  0  0  0  0  0  0  0  0  0  0  0
    4.8130    1.3060   19.1162 C   0  0  0  0  0  0  0  0  0  0  0  0
    3.8814    1.8374   19.2634 H   0  0  0  0  0  0  0  0  0  0  0  0
    5.4457    0.6457   20.1659 C   0  0  0  0  0  0  0  0  0  0  0  0
    5.0015    0.6422   21.1640 H   0  0  0  0  0  0  0  0  0  0  0  0
    6.7377   -1.4116   21.9489 C   0  0  0  0  0  0  0  0  0  0  0  0
    5.6736   -1.4455   21.9795 H   0  0  0  0  0  0  0  0  0  0  0  0
    7.4983   -2.0366   22.9366 C   0  0  0  0  0  0  0  0  0  0  0  0
    6.8624   -2.7007   23.9614 N   0  0  0  0  0  0  0  0  0  0  0  0
    5.8376   -3.7329   23.7217 C   0  0  0  0  0  0  0  0  0  0  0  0
    5.2830   -3.5168   22.8043 H   0  0  0  0  0  0  0  0  0  0  0  0
    6.2951   -4.7260   23.5894 H   0  0  0  0  0  0  0  0  0  0  0  0
    4.8267   -3.8341   24.8780 C   0  0  0  0  0  0  0  0  0  0  0  0
    4.1483   -4.6721   24.6768 H   0  0  0  0  0  0  0  0  0  0  0  0
    4.2065   -2.9175   24.9006 H   0  0  0  0  0  0  0  0  0  0  0  0
    5.4884   -4.0693   26.1677 N   0  0  0  0  0  0  0  0  0  0  0  0
    4.5399   -4.2588   27.2671 C   0  0  0  0  0  0  0  0  0  0  0  0
    3.6657   -4.8087   26.8940 H   0  0  0  0  0  0  0  0  0  0  0  0
    4.1525   -3.2900   27.6439 H   0  0  0  0  0  0  0  0  0  0  0  0
    5.1528   -5.0602   28.4080 C   0  0  0  0  0  0  0  0  0  0  0  0
    5.9541   -4.5052   28.9065 H   0  0  0  0  0  0  0  0  0  0  0  0
    5.5731   -5.9954   28.0253 H   0  0  0  0  0  0  0  0  0  0  0  0
    4.3906   -5.3000   29.1570 H   0  0  0  0  0  0  0  0  0  0  0  0
    6.4192   -2.9550   26.4074 C   0  0  0  0  0  0  0  0  0  0  0  0
    5.8733   -1.9949   26.4918 H   0  0  0  0  0  0  0  0  0  0  0  0
    6.9330   -3.0988   27.3625 H   0  0  0  0  0  0  0  0  0  0  0  0
    7.4759   -2.8247   25.2944 C   0  0  0  0  0  0  0  0  0  0  0  0
    8.0808   -1.9372   25.4989 H   0  0  0  0  0  0  0  0  0  0  0  0
    8.1487   -3.6923   25.3457 H   0  0  0  0  0  0  0  0  0  0  0  0
    8.8302   -1.9817   22.9459 N   0  0  0  0  0  0  0  0  0  0  0  0
  1  2  1  0
  2  3  2  0
  3  4  1  0
  4  5  1  0
  5  6  2  0
  6  7  1  0
  6  8  1  0
  8  9  2  0
  9 10  1  0
  9 11  1  0
 11 12  1  0
 11 13  2  0
 13 14  1  0
  4 15  2  0
 15 16  1  0
 15 17  1  0
 17 18  1  0
 18 19  1  0
 19 20  1  0
 19 21  1  0
 19 22  1  0
 22 23  1  0
 22 24  1  0
 22 25  1  0
 25 26  1  0
 26 27  1  0
 26 28  1  0
 26 29  1  0
 29 30  1  0
 29 31  1  0
 29 32  1  0
 25 33  1  0
 33 34  1  0
 33 35  1  0
 33 36  1  0
 36 37  1  0
 36 38  1  0
 17 39  2  0
 39  2  1  0
 13  5  1  0
 36 18  1  0
M  END
>  <cnnaffinity>  (1) 
-4.91088

>  <filename>  (1) 
[H]c1nc(-c2c([H])nc([H])c([H])c2[H])c([H])c(N2C([H])([H])C([H])([H])N(C([H])([H])C([H])([H])[H])C([H])([H])C2([H])[H])n1

$$$$
