
     RDKit          3D

 29 31  0  0  0  0  0  0  0  0999 V2000
    8.9466   -3.1973   22.0078 H   0  0  0  0  0  0  0  0  0  0  0  0
    8.4760   -2.2249   21.9492 C   0  0  0  0  0  0  0  0  0  0  0  0
    8.3700   -1.3319   22.8713 N   0  0  0  0  0  0  0  0  0  0  0  0
    7.6479   -0.3096   22.2626 C   0  0  0  0  0  0  0  0  0  0  0  0
    7.3858    1.0245   22.8668 C   0  0  1  0  0  0  0  0  0  0  0  0
    6.3027    1.1687   22.9578 H   0  0  0  0  0  0  0  0  0  0  0  0
    8.0033    1.2204   24.2526 C   0  0  0  0  0  0  0  0  0  0  0  0
    8.9927    0.7509   24.2877 H   0  0  0  0  0  0  0  0  0  0  0  0
    7.4074    0.7660   25.0521 H   0  0  0  0  0  0  0  0  0  0  0  0
    8.1012    2.6641   24.4341 N   0  0  0  0  0  0  0  0  0  0  0  0
    7.2716    3.0098   24.8976 H   0  0  0  0  0  0  0  0  0  0  0  0
    8.2350    3.3056   23.1175 C   0  0  0  0  0  0  0  0  0  0  0  0
    7.5397    4.1510   23.0445 H   0  0  0  0  0  0  0  0  0  0  0  0
    9.2448    3.7218   22.9938 H   0  0  0  0  0  0  0  0  0  0  0  0
    7.9460    2.2229   22.0568 C   0  0  0  0  0  0  0  0  0  0  0  0
    8.8685    1.9358   21.5451 H   0  0  0  0  0  0  0  0  0  0  0  0
    7.2543    2.5628   21.2816 H   0  0  0  0  0  0  0  0  0  0  0  0
    7.3672   -0.6726   20.9734 C   0  0  0  0  0  0  0  0  0  0  0  0
    6.6515   -0.0039   19.8931 C   0  0  0  0  0  0  0  0  0  0  0  0
    7.1650    0.0418   18.5789 C   0  0  0  0  0  0  0  0  0  0  0  0
    8.1166   -0.4315   18.3544 H   0  0  0  0  0  0  0  0  0  0  0  0
    6.5639    0.6753   17.5665 N   0  0  0  0  0  0  0  0  0  0  0  0
    5.4035    1.2937   17.8340 C   0  0  0  0  0  0  0  0  0  0  0  0
    4.9217    1.7872   16.9936 H   0  0  0  0  0  0  0  0  0  0  0  0
    4.8055    1.3123   19.0999 C   0  0  0  0  0  0  0  0  0  0  0  0
    3.8755    1.8414   19.2562 H   0  0  0  0  0  0  0  0  0  0  0  0
    5.4410    0.6528   20.1510 C   0  0  0  0  0  0  0  0  0  0  0  0
    4.9964    0.6346   21.1512 H   0  0  0  0  0  0  0  0  0  0  0  0
    7.9162   -1.9016   20.7691 O   0  0  0  0  0  0  0  0  0  0  0  0
  1  2  1  0
  2  3  2  0
  3  4  1  0
  4  5  1  0
  5  6  1  1
  5  7  1  0
  7  8  1  0
  7  9  1  0
  7 10  1  0
 10 11  1  0
 10 12  1  0
 12 13  1  0
 12 14  1  0
 12 15  1  0
 15 16  1  0
 15 17  1  0
  4 18  2  0
 18 19  1  0
 19 20  2  0
 20 21  1  0
 20 22  1  0
 22 23  2  0
 23 24  1  0
 23 25  1  0
 25 26  1  0
 25 27  2  0
 27 28  1  0
 18 29  1  0
 29  2  1  0
 15  5  1  0
 27 19  1  0
M  END
>  <cnnaffinity>  (1) 
-4.55744

>  <filename>  (1) 
[H]c1nc([C@@]2([H])C([H])([H])N([H])C([H])([H])C2([H])[H])c(-c2c([H])nc([H])c([H])c2[H])o1

$$$$
