
     RDKit          3D

 26 27  0  0  0  0  0  0  0  0999 V2000
    7.4430    3.9553   23.2783 F   0  0  0  0  0  0  0  0  0  0  0  0
    8.3977    3.1790   22.7105 C   0  0  0  0  0  0  0  0  0  0  0  0
    8.0688    1.9086   22.2228 C   0  0  0  0  0  0  0  0  0  0  0  0
    9.0375    1.1000   21.6342 C   0  0  0  0  0  0  0  0  0  0  0  0
    8.7373   -0.1552   21.1175 N   0  0  0  0  0  0  0  0  0  0  0  0
    7.3889   -0.7154   20.9825 C   0  0  0  0  0  0  0  0  0  0  0  0
    6.6631    0.0187   19.9034 C   0  0  0  0  0  0  0  0  0  0  0  0
    5.4456    0.6492   20.1658 C   0  0  0  0  0  0  0  0  0  0  0  0
    4.8187    1.3064   19.1073 C   0  0  0  0  0  0  0  0  0  0  0  0
    5.4056    1.2926   17.8327 C   0  0  0  0  0  0  0  0  0  0  0  0
    6.5758    0.6726   17.5847 N   0  0  0  0  0  0  0  0  0  0  0  0
    7.1947    0.0625   18.6085 C   0  0  0  0  0  0  0  0  0  0  0  0
    8.1331   -0.4391   18.4024 H   0  0  0  0  0  0  0  0  0  0  0  0
    4.8910    1.7897   17.0151 H   0  0  0  0  0  0  0  0  0  0  0  0
    3.8818    1.8338   19.2617 H   0  0  0  0  0  0  0  0  0  0  0  0
    5.0014    0.6362   21.1651 H   0  0  0  0  0  0  0  0  0  0  0  0
    6.8427   -0.6612   21.9335 H   0  0  0  0  0  0  0  0  0  0  0  0
    7.4485   -1.7768   20.7047 H   0  0  0  0  0  0  0  0  0  0  0  0
    9.5254   -0.7238   20.8236 H   0  0  0  0  0  0  0  0  0  0  0  0
   10.3516    1.5655   21.5472 C   0  0  0  0  0  0  0  0  0  0  0  0
   10.6919    2.8351   22.0358 C   0  0  0  0  0  0  0  0  0  0  0  0
    9.7185    3.6503   22.6227 C   0  0  0  0  0  0  0  0  0  0  0  0
   10.2868    5.7103   23.3842 I   0  0  0  0  0  0  0  0  0  0  0  0
   11.7107    3.2155   21.9566 H   0  0  0  0  0  0  0  0  0  0  0  0
   11.1245    0.9533   21.0965 H   0  0  0  0  0  0  0  0  0  0  0  0
    7.0451    1.5681   22.3166 H   0  0  0  0  0  0  0  0  0  0  0  0
  1  2  1  0
  2  3  2  0
  3  4  1  0
  4  5  1  0
  5  6  1  0
  6  7  1  0
  7  8  2  0
  8  9  1  0
  9 10  2  0
 10 11  1  0
 11 12  2  0
 12 13  1  0
 10 14  1  0
  9 15  1  0
  8 16  1  0
  6 17  1  0
  6 18  1  0
  5 19  1  0
  4 20  2  0
 20 21  1  0
 21 22  2  0
 22 23  1  0
 21 24  1  0
 20 25  1  0
  3 26  1  0
 22  2  1  0
 12  7  1  0
M  END
>  <cnnaffinity>  (1) 
-4.87272

>  <filename>  (1) 
[H]c1nc([H])c(C([H])([H])N([H])c2c([H])c([H])c(I)c(F)c2[H])c([H])c1[H]

$$$$
