
     RDKit          3D

 39 41  0  0  0  0  0  0  0  0999 V2000
    7.8067    3.6392   23.8205 O   0  0  0  0  0  0  0  0  0  0  0  0
    8.9391    3.3300   23.5113 C   0  0  0  0  0  0  0  0  0  0  0  0
    9.2040    2.2457   22.7496 O   0  0  0  0  0  0  0  0  0  0  0  0
    8.0700    1.4850   22.2859 C   0  0  0  0  0  0  0  0  0  0  0  0
    8.5948    0.2389   21.5944 C   0  0  0  0  0  0  0  0  0  0  0  0
    7.4691   -0.6437   21.0169 C   0  0  0  0  0  0  0  0  0  0  0  0
    6.6798    0.0121   19.9024 C   0  0  0  0  0  0  0  0  0  0  0  0
    5.4551    0.6565   20.1326 C   0  0  0  0  0  0  0  0  0  0  0  0
    4.8196    1.3100   19.0731 C   0  0  0  0  0  0  0  0  0  0  0  0
    5.4247    1.3034   17.8135 C   0  0  0  0  0  0  0  0  0  0  0  0
    6.5807    0.6722   17.5581 N   0  0  0  0  0  0  0  0  0  0  0  0
    7.1759    0.0504   18.5849 C   0  0  0  0  0  0  0  0  0  0  0  0
    8.1076   -0.4631   18.3450 H   0  0  0  0  0  0  0  0  0  0  0  0
    4.9591    1.8183   16.9735 H   0  0  0  0  0  0  0  0  0  0  0  0
    3.8802    1.8321   19.2141 H   0  0  0  0  0  0  0  0  0  0  0  0
    5.0077    0.6522   21.1301 H   0  0  0  0  0  0  0  0  0  0  0  0
    6.7804   -0.9322   21.8241 H   0  0  0  0  0  0  0  0  0  0  0  0
    7.9078   -1.5774   20.6453 H   0  0  0  0  0  0  0  0  0  0  0  0
    9.1725   -0.3541   22.3165 H   0  0  0  0  0  0  0  0  0  0  0  0
    9.2850    0.5370   20.7948 H   0  0  0  0  0  0  0  0  0  0  0  0
    7.4328    1.2280   23.1430 H   0  0  0  0  0  0  0  0  0  0  0  0
    7.4831    2.1113   21.5991 H   0  0  0  0  0  0  0  0  0  0  0  0
   10.1817    4.0643   23.9316 C   0  0  0  0  0  0  0  0  0  0  0  0
   11.3471    3.9761   23.1800 C   0  0  0  0  0  0  0  0  0  0  0  0
   12.5220    4.6691   23.5658 C   0  0  0  0  0  0  0  0  0  0  0  0
   12.5232    5.4661   24.6867 C   0  0  0  0  0  0  0  0  0  0  0  0
   11.3636    5.5625   25.5148 C   0  0  0  0  0  0  0  0  0  0  0  0
   11.3894    6.2868   26.7468 C   0  0  0  0  0  0  0  0  0  0  0  0
   10.3189    6.2445   27.6062 C   0  0  0  0  0  0  0  0  0  0  0  0
    9.1478    5.5216   27.2535 C   0  0  0  0  0  0  0  0  0  0  0  0
    9.0608    4.8532   26.0546 C   0  0  0  0  0  0  0  0  0  0  0  0
   10.1696    4.8472   25.1443 C   0  0  0  0  0  0  0  0  0  0  0  0
    8.1483    4.3349   25.7810 H   0  0  0  0  0  0  0  0  0  0  0  0
    8.2962    5.5076   27.9268 H   0  0  0  0  0  0  0  0  0  0  0  0
   10.3609    6.7566   28.5650 H   0  0  0  0  0  0  0  0  0  0  0  0
   12.2980    6.8315   27.0041 H   0  0  0  0  0  0  0  0  0  0  0  0
   13.4262    5.9924   24.9933 H   0  0  0  0  0  0  0  0  0  0  0  0
   13.4244    4.5501   22.9651 H   0  0  0  0  0  0  0  0  0  0  0  0
   11.3640    3.3555   22.2854 H   0  0  0  0  0  0  0  0  0  0  0  0
  1  2  2  0
  2  3  1  0
  3  4  1  0
  4  5  1  0
  5  6  1  0
  6  7  1  0
  7  8  2  0
  8  9  1  0
  9 10  2  0
 10 11  1  0
 11 12  2  0
 12 13  1  0
 10 14  1  0
  9 15  1  0
  8 16  1  0
  6 17  1  0
  6 18  1  0
  5 19  1  0
  5 20  1  0
  4 21  1  0
  4 22  1  0
  2 23  1  0
 23 24  2  0
 24 25  1  0
 25 26  2  0
 26 27  1  0
 27 28  2  0
 28 29  1  0
 29 30  2  0
 30 31  1  0
 31 32  2  0
 31 33  1  0
 30 34  1  0
 29 35  1  0
 28 36  1  0
 26 37  1  0
 25 38  1  0
 24 39  1  0
 12  7  1  0
 32 23  1  0
 32 27  1  0
M  END
>  <cnnaffinity>  (1) 
-4.64524

>  <filename>  (1) 
[H]c1nc([H])c(C([H])([H])C([H])([H])C([H])([H])OC(=O)c2c([H])c([H])c([H])c3c([H])c([H])c([H])c([H])c23)c([H])c1[H]

$$$$
