
     RDKit          3D

 28 30  0  0  0  0  0  0  0  0999 V2000
    5.0340    1.7800   16.9084 H   0  0  0  0  0  0  0  0  0  0  0  0
    5.4653    1.2774   17.7710 C   0  0  0  0  0  0  0  0  0  0  0  0
    6.6214    0.6288   17.5613 N   0  0  0  0  0  0  0  0  0  0  0  0
    7.1842    0.0188   18.6085 C   0  0  0  0  0  0  0  0  0  0  0  0
    8.1228   -0.5001   18.4242 H   0  0  0  0  0  0  0  0  0  0  0  0
    6.6278    0.0239   19.9007 C   0  0  0  0  0  0  0  0  0  0  0  0
    7.3409   -0.6392   20.9879 C   0  0  0  0  0  0  0  0  0  0  0  0
    8.5064   -1.3766   20.7696 N   0  0  0  0  0  0  0  0  0  0  0  0
    8.8014   -1.8042   21.9472 C   0  0  0  0  0  0  0  0  0  0  0  0
    9.8115   -2.6124   22.2541 O   0  0  0  0  0  0  0  0  0  0  0  0
    9.8596   -3.3498   23.4445 C   0  0  0  0  0  0  0  0  0  0  0  0
   11.1436   -3.7386   23.8435 C   0  0  0  0  0  0  0  0  0  0  0  0
   11.9991   -3.4362   23.2468 H   0  0  0  0  0  0  0  0  0  0  0  0
   11.2893   -4.5833   24.9462 C   0  0  0  0  0  0  0  0  0  0  0  0
   12.2306   -4.9986   25.2718 H   0  0  0  0  0  0  0  0  0  0  0  0
   10.1744   -4.9313   25.6929 C   0  0  0  0  0  0  0  0  0  0  0  0
   10.3467   -5.7036   26.7729 F   0  0  0  0  0  0  0  0  0  0  0  0
    8.9019   -4.4979   25.3462 C   0  0  0  0  0  0  0  0  0  0  0  0
    8.0678   -4.7731   25.9817 H   0  0  0  0  0  0  0  0  0  0  0  0
    8.7336   -3.7277   24.1931 C   0  0  0  0  0  0  0  0  0  0  0  0
    7.7435   -3.3871   23.9122 H   0  0  0  0  0  0  0  0  0  0  0  0
    7.9948   -1.3887   22.9400 O   0  0  0  0  0  0  0  0  0  0  0  0
    7.0286   -0.6658   22.3011 C   0  0  0  0  0  0  0  0  0  0  0  0
    6.1981   -0.3194   22.8949 H   0  0  0  0  0  0  0  0  0  0  0  0
    5.4028    0.6850   20.0993 C   0  0  0  0  0  0  0  0  0  0  0  0
    4.9134    0.7065   21.0752 H   0  0  0  0  0  0  0  0  0  0  0  0
    4.8185    1.3248   19.0108 C   0  0  0  0  0  0  0  0  0  0  0  0
    3.8877    1.8707   19.1135 H   0  0  0  0  0  0  0  0  0  0  0  0
  1  2  1  0
  2  3  2  0
  3  4  1  0
  4  5  1  0
  4  6  2  0
  6  7  1  0
  7  8  1  0
  8  9  2  0
  9 10  1  0
 10 11  1  0
 11 12  2  0
 12 13  1  0
 12 14  1  0
 14 15  1  0
 14 16  2  0
 16 17  1  0
 16 18  1  0
 18 19  1  0
 18 20  2  0
 20 21  1  0
  9 22  1  0
 22 23  1  0
 23 24  1  0
  6 25  1  0
 25 26  1  0
 25 27  2  0
 27 28  1  0
 27  2  1  0
 23  7  2  0
 20 11  1  0
M  END
>  <cnnaffinity>  (1) 
-5.18662

>  <filename>  (1) 
[H]c1nc([H])c(-c2nc(Oc3c([H])c([H])c(F)c([H])c3[H])oc2[H])c([H])c1[H]

$$$$
