
     RDKit          3D

 31 32  0  0  0  0  0  0  0  0999 V2000
    5.5377   -1.7687   21.3760 H   0  0  0  0  0  0  0  0  0  0  0  0
    6.5991   -1.6638   21.5663 C   0  0  0  0  0  0  0  0  0  0  0  0
    7.2959   -0.8227   20.7896 C   0  0  0  0  0  0  0  0  0  0  0  0
    9.0229   -0.6770   20.9547 Cl  0  0  0  0  0  0  0  0  0  0  0  0
    6.6716   -0.0020   19.7325 C   0  0  0  0  0  0  0  0  0  0  0  0
    7.2802    0.1301   18.4680 C   0  0  0  0  0  0  0  0  0  0  0  0
    8.2531   -0.3196   18.2739 H   0  0  0  0  0  0  0  0  0  0  0  0
    6.7157    0.7616   17.4330 N   0  0  0  0  0  0  0  0  0  0  0  0
    5.5242    1.3494   17.6346 C   0  0  0  0  0  0  0  0  0  0  0  0
    5.0994    1.8795   16.7832 H   0  0  0  0  0  0  0  0  0  0  0  0
    4.8514    1.3274   18.8611 C   0  0  0  0  0  0  0  0  0  0  0  0
    3.9065    1.8539   18.9679 H   0  0  0  0  0  0  0  0  0  0  0  0
    5.4313    0.6344   19.9262 C   0  0  0  0  0  0  0  0  0  0  0  0
    4.9500    0.6055   20.9025 H   0  0  0  0  0  0  0  0  0  0  0  0
    7.1335   -2.4267   22.5939 N   0  0  0  0  0  0  0  0  0  0  0  0
    8.0694   -2.1994   22.9047 H   0  0  0  0  0  0  0  0  0  0  0  0
    6.4518   -3.2648   23.4311 C   0  0  0  0  0  0  0  0  0  0  0  0
    5.1644   -4.2092   23.0290 S   0  0  0  0  0  0  0  0  0  0  0  0
    6.9776   -3.3134   24.6922 N   0  0  0  0  0  0  0  0  0  0  0  0
    6.5046   -4.0029   25.2532 H   0  0  0  0  0  0  0  0  0  0  0  0
    7.5897   -2.2516   25.4067 C   0  0  0  0  0  0  0  0  0  0  0  0
    8.5345   -2.5751   26.3856 C   0  0  0  0  0  0  0  0  0  0  0  0
    8.6960   -3.6165   26.6462 H   0  0  0  0  0  0  0  0  0  0  0  0
    9.3075   -1.5699   26.9665 C   0  0  0  0  0  0  0  0  0  0  0  0
   10.0772   -1.8320   27.6887 H   0  0  0  0  0  0  0  0  0  0  0  0
    9.1037   -0.2333   26.5996 C   0  0  0  0  0  0  0  0  0  0  0  0
    9.7387    0.5618   26.9723 H   0  0  0  0  0  0  0  0  0  0  0  0
    8.0653    0.0972   25.7264 C   0  0  0  0  0  0  0  0  0  0  0  0
    7.8531    1.1389   25.4966 H   0  0  0  0  0  0  0  0  0  0  0  0
    7.3060   -0.9068   25.1181 C   0  0  0  0  0  0  0  0  0  0  0  0
    6.5074   -0.6534   24.4316 H   0  0  0  0  0  0  0  0  0  0  0  0
  1  2  1  0
  2  3  2  3
  3  4  1  0
  3  5  1  0
  5  6  2  0
  6  7  1  0
  6  8  1  0
  8  9  2  0
  9 10  1  0
  9 11  1  0
 11 12  1  0
 11 13  2  0
 13 14  1  0
  2 15  1  0
 15 16  1  0
 15 17  1  0
 17 18  2  0
 17 19  1  0
 19 20  1  0
 19 21  1  0
 21 22  2  0
 22 23  1  0
 22 24  1  0
 24 25  1  0
 24 26  2  0
 26 27  1  0
 26 28  1  0
 28 29  1  0
 28 30  2  0
 30 31  1  0
 13  5  1  0
 30 21  1  0
M  END
>  <cnnaffinity>  (1) 
-5.55412

>  <filename>  (1) 
[H]C(=C(Cl)c1c([H])nc([H])c([H])c1[H])N([H])C(=S)N([H])c1c([H])c([H])c([H])c([H])c1[H]

$$$$
