
     RDKit          3D

 37 40  0  0  0  0  0  0  0  0999 V2000
    4.8806    1.7092   17.1939 H   0  0  0  0  0  0  0  0  0  0  0  0
    5.4169    1.3030   18.0506 C   0  0  0  0  0  0  0  0  0  0  0  0
    6.6512    0.8330   17.8218 N   0  0  0  0  0  0  0  0  0  0  0  0
    7.3320    0.3534   18.8713 C   0  0  0  0  0  0  0  0  0  0  0  0
    8.3418    0.0231   18.6365 H   0  0  0  0  0  0  0  0  0  0  0  0
    6.8287    0.2695   20.1944 C   0  0  0  0  0  0  0  0  0  0  0  0
    7.6404   -0.3190   21.3280 C   0  0  0  0  0  0  0  0  0  0  0  0
    6.9748   -0.4718   22.6790 C   0  0  0  0  0  0  0  0  0  0  0  0
    6.6760    0.5338   23.4589 N   0  0  0  0  0  0  0  0  0  0  0  0
    6.0663    0.1529   24.6152 N   0  0  0  0  0  0  0  0  0  0  0  0
    5.9259   -1.1416   24.7040 C   0  0  0  0  0  0  0  0  0  0  0  0
    5.2417   -1.8965   25.8198 C   0  0  0  0  0  0  0  0  0  0  0  0
    5.1323   -3.1108   25.7685 O   0  0  0  0  0  0  0  0  0  0  0  0
    4.7930   -1.1078   26.8320 N   0  0  0  0  0  0  0  0  0  0  0  0
    4.9413   -0.1184   26.7063 H   0  0  0  0  0  0  0  0  0  0  0  0
    4.0187   -1.4879   27.9432 C   0  0  0  0  0  0  0  0  0  0  0  0
    3.3451   -0.4707   28.6278 C   0  0  0  0  0  0  0  0  0  0  0  0
    3.3826    0.5439   28.2423 H   0  0  0  0  0  0  0  0  0  0  0  0
    2.6179   -0.7523   29.7865 C   0  0  0  0  0  0  0  0  0  0  0  0
    2.1032    0.0321   30.3348 H   0  0  0  0  0  0  0  0  0  0  0  0
    2.5732   -2.0711   30.2525 C   0  0  0  0  0  0  0  0  0  0  0  0
    1.7339   -2.4278   31.7331 Cl  0  0  0  0  0  0  0  0  0  0  0  0
    3.2014   -3.1035   29.5496 C   0  0  0  0  0  0  0  0  0  0  0  0
    3.1362   -4.1276   29.9147 H   0  0  0  0  0  0  0  0  0  0  0  0
    3.9205   -2.8162   28.3842 C   0  0  0  0  0  0  0  0  0  0  0  0
    4.3963   -3.5997   27.8073 H   0  0  0  0  0  0  0  0  0  0  0  0
    6.5613   -2.0117   23.3677 S   0  0  0  0  0  0  0  0  0  0  0  0
    9.1353   -0.0191   21.4009 C   0  0  0  0  0  0  0  0  0  0  0  0
    9.5568    0.1184   22.3965 H   0  0  0  0  0  0  0  0  0  0  0  0
    9.5701    0.6229   20.6393 H   0  0  0  0  0  0  0  0  0  0  0  0
    8.6842   -1.3765   20.9952 C   0  0  0  0  0  0  0  0  0  0  0  0
    8.8278   -2.1830   21.7106 H   0  0  0  0  0  0  0  0  0  0  0  0
    8.8033   -1.6785   19.9563 H   0  0  0  0  0  0  0  0  0  0  0  0
    5.5343    0.7718   20.3963 C   0  0  0  0  0  0  0  0  0  0  0  0
    5.1034    0.7757   21.3997 H   0  0  0  0  0  0  0  0  0  0  0  0
    4.8252    1.2930   19.3154 C   0  0  0  0  0  0  0  0  0  0  0  0
    3.8339    1.7062   19.4489 H   0  0  0  0  0  0  0  0  0  0  0  0
  1  2  1  0
  2  3  2  0
  3  4  1  0
  4  5  1  0
  4  6  2  0
  6  7  1  0
  7  8  1  0
  8  9  2  0
  9 10  1  0
 10 11  2  0
 11 12  1  0
 12 13  2  0
 12 14  1  0
 14 15  1  0
 14 16  1  0
 16 17  2  0
 17 18  1  0
 17 19  1  0
 19 20  1  0
 19 21  2  0
 21 22  1  0
 21 23  1  0
 23 24  1  0
 23 25  2  0
 25 26  1  0
 11 27  1  0
  7 28  1  0
 28 29  1  0
 28 30  1  0
 28 31  1  0
 31 32  1  0
 31 33  1  0
  6 34  1  0
 34 35  1  0
 34 36  2  0
 36 37  1  0
 36  2  1  0
 31  7  1  0
 27  8  1  0
 25 16  1  0
M  END
>  <cnnaffinity>  (1) 
-4.89314

>  <filename>  (1) 
[H]c1nc([H])c(C2(c3nnc(C(=O)N([H])c4c([H])c([H])c(Cl)c([H])c4[H])s3)C([H])([H])C2([H])[H])c([H])c1[H]

$$$$
