
     RDKit          3D

 28 30  0  0  0  0  0  0  0  0999 V2000
    9.4251    0.9056   19.9259 H   0  0  0  0  0  0  0  0  0  0  0  0
    9.4166    0.6731   20.9873 C   0  0  0  0  0  0  0  0  0  0  0  0
   10.2113    1.4198   21.7874 C   0  0  0  0  0  0  0  0  0  0  0  0
   10.2477    1.3870   23.5603 S   0  0  0  0  0  0  0  0  0  0  0  0
   11.3580    2.7856   23.6137 C   0  0  0  0  0  0  0  0  0  0  0  0
   11.8087    3.3338   24.5748 O   0  0  0  0  0  0  0  0  0  0  0  0
   11.6413    3.1730   22.3430 N   0  0  0  0  0  0  0  0  0  0  0  0
   12.2582    3.9385   22.1780 H   0  0  0  0  0  0  0  0  0  0  0  0
   11.1367    2.4816   21.2854 C   0  0  0  0  0  0  0  0  0  0  0  0
   11.4707    2.7399   20.1553 O   0  0  0  0  0  0  0  0  0  0  0  0
    8.6072   -0.4355   21.4421 C   0  0  0  0  0  0  0  0  0  0  0  0
    8.8543   -1.3620   22.4424 C   0  0  0  0  0  0  0  0  0  0  0  0
    9.7735   -1.3979   23.0184 H   0  0  0  0  0  0  0  0  0  0  0  0
    7.7208   -2.1957   22.5598 C   0  0  0  0  0  0  0  0  0  0  0  0
    7.5970   -3.0148   23.2580 H   0  0  0  0  0  0  0  0  0  0  0  0
    6.8049   -1.7642   21.6279 C   0  0  0  0  0  0  0  0  0  0  0  0
    5.8122   -2.1107   21.3800 H   0  0  0  0  0  0  0  0  0  0  0  0
    7.3427   -0.7137   20.9259 N   0  0  0  0  0  0  0  0  0  0  0  0
    6.6570    0.0028   19.9010 C   0  0  0  0  0  0  0  0  0  0  0  0
    7.1742    0.0582   18.5957 C   0  0  0  0  0  0  0  0  0  0  0  0
    8.1161   -0.4368   18.3657 H   0  0  0  0  0  0  0  0  0  0  0  0
    6.5603    0.6746   17.5780 N   0  0  0  0  0  0  0  0  0  0  0  0
    5.3991    1.2955   17.8343 C   0  0  0  0  0  0  0  0  0  0  0  0
    4.9216    1.7886   16.9899 H   0  0  0  0  0  0  0  0  0  0  0  0
    4.8079    1.3104   19.1035 C   0  0  0  0  0  0  0  0  0  0  0  0
    3.8764    1.8433   19.2542 H   0  0  0  0  0  0  0  0  0  0  0  0
    5.4363    0.6423   20.1575 C   0  0  0  0  0  0  0  0  0  0  0  0
    5.0122    0.6288   21.1637 H   0  0  0  0  0  0  0  0  0  0  0  0
  1  2  1  0
  2  3  2  3
  3  4  1  0
  4  5  1  0
  5  6  2  0
  5  7  1  0
  7  8  1  0
  7  9  1  0
  9 10  2  0
  2 11  1  0
 11 12  2  0
 12 13  1  0
 12 14  1  0
 14 15  1  0
 14 16  2  0
 16 17  1  0
 16 18  1  0
 18 19  1  0
 19 20  2  0
 20 21  1  0
 20 22  1  0
 22 23  2  0
 23 24  1  0
 23 25  1  0
 25 26  1  0
 25 27  2  0
 27 28  1  0
  9  3  1  0
 18 11  1  0
 27 19  1  0
M  END
>  <cnnaffinity>  (1) 
-5.24736

>  <filename>  (1) 
[H]C(=C1SC(=O)N([H])C1=O)c1c([H])c([H])c([H])n1-c1c([H])nc([H])c([H])c1[H]

$$$$
