
     RDKit          3D

 32 34  0  0  0  0  0  0  0  0999 V2000
    5.0479    1.7527   17.0931 H   0  0  0  0  0  0  0  0  0  0  0  0
    5.4595    1.1940   17.9299 C   0  0  0  0  0  0  0  0  0  0  0  0
    6.6101    0.5488   17.6800 N   0  0  0  0  0  0  0  0  0  0  0  0
    7.1606   -0.1130   18.7009 C   0  0  0  0  0  0  0  0  0  0  0  0
    8.1000   -0.6310   18.5061 H   0  0  0  0  0  0  0  0  0  0  0  0
    6.6072   -0.2010   19.9865 C   0  0  0  0  0  0  0  0  0  0  0  0
    7.4439   -0.8306   21.0202 C   0  0  0  0  0  0  0  0  0  0  0  0
    8.7319   -0.4980   21.3381 C   0  0  0  0  0  0  0  0  0  0  0  0
    9.3639    0.1541   20.7561 H   0  0  0  0  0  0  0  0  0  0  0  0
    8.9855   -1.1135   22.5819 C   0  0  0  0  0  0  0  0  0  0  0  0
    9.8803   -1.0607   23.1932 H   0  0  0  0  0  0  0  0  0  0  0  0
    7.9638   -1.8368   22.9876 N   0  0  0  0  0  0  0  0  0  0  0  0
    7.0224   -1.7074   21.9911 N   0  0  0  0  0  0  0  0  0  0  0  0
    5.9230   -2.6256   21.8244 C   0  0  0  0  0  0  0  0  0  0  0  0
    5.4486   -2.8758   20.7371 O   0  0  0  0  0  0  0  0  0  0  0  0
    5.5145   -3.1512   23.0239 N   0  0  0  0  0  0  0  0  0  0  0  0
    5.8586   -2.6441   23.8259 H   0  0  0  0  0  0  0  0  0  0  0  0
    4.3417   -3.8942   23.2071 C   0  0  0  0  0  0  0  0  0  0  0  0
    3.9855   -4.8888   22.2934 C   0  0  0  0  0  0  0  0  0  0  0  0
    4.6744   -5.0990   21.4840 H   0  0  0  0  0  0  0  0  0  0  0  0
    2.7481   -5.5273   22.4132 C   0  0  0  0  0  0  0  0  0  0  0  0
    2.4382   -6.2835   21.6989 H   0  0  0  0  0  0  0  0  0  0  0  0
    1.8962   -5.1818   23.4662 C   0  0  0  0  0  0  0  0  0  0  0  0
    0.3266   -5.9233   23.5713 Cl  0  0  0  0  0  0  0  0  0  0  0  0
    2.2865   -4.2513   24.4342 C   0  0  0  0  0  0  0  0  0  0  0  0
    1.6288   -4.0433   25.2728 H   0  0  0  0  0  0  0  0  0  0  0  0
    3.5249   -3.6184   24.3061 C   0  0  0  0  0  0  0  0  0  0  0  0
    3.8541   -2.8924   25.0443 H   0  0  0  0  0  0  0  0  0  0  0  0
    5.3980    0.4772   20.2308 C   0  0  0  0  0  0  0  0  0  0  0  0
    4.9378    0.4636   21.2209 H   0  0  0  0  0  0  0  0  0  0  0  0
    4.8212    1.1906   19.1762 C   0  0  0  0  0  0  0  0  0  0  0  0
    3.9077    1.7629   19.3027 H   0  0  0  0  0  0  0  0  0  0  0  0
  1  2  1  0
  2  3  2  0
  3  4  1  0
  4  5  1  0
  4  6  2  0
  6  7  1  0
  7  8  2  0
  8  9  1  0
  8 10  1  0
 10 11  1  0
 10 12  2  0
 12 13  1  0
 13 14  1  0
 14 15  2  0
 14 16  1  0
 16 17  1  0
 16 18  1  0
 18 19  2  0
 19 20  1  0
 19 21  1  0
 21 22  1  0
 21 23  2  0
 23 24  1  0
 23 25  1  0
 25 26  1  0
 25 27  2  0
 27 28  1  0
  6 29  1  0
 29 30  1  0
 29 31  2  0
 31 32  1  0
 31  2  1  0
 13  7  1  0
 27 18  1  0
M  END
>  <cnnaffinity>  (1) 
-5.38904

>  <filename>  (1) 
[H]c1nc([H])c(-c2c([H])c([H])nn2C(=O)N([H])c2c([H])c([H])c(Cl)c([H])c2[H])c([H])c1[H]

$$$$
