
     RDKit          3D

 34 36  0  0  0  0  0  0  0  0999 V2000
    8.8461   -3.4586   21.8097 H   0  0  0  0  0  0  0  0  0  0  0  0
    8.4277   -2.4577   21.7630 C   0  0  0  0  0  0  0  0  0  0  0  0
    7.8500   -1.9695   20.7160 N   0  0  0  0  0  0  0  0  0  0  0  0
    7.4026   -0.6897   20.9577 C   0  0  0  0  0  0  0  0  0  0  0  0
    6.6411   -0.0027   19.9089 C   0  0  0  0  0  0  0  0  0  0  0  0
    7.1544    0.0272   18.6025 C   0  0  0  0  0  0  0  0  0  0  0  0
    8.1071   -0.4465   18.3720 H   0  0  0  0  0  0  0  0  0  0  0  0
    6.5639    0.6610   17.5873 N   0  0  0  0  0  0  0  0  0  0  0  0
    5.4055    1.2898   17.8376 C   0  0  0  0  0  0  0  0  0  0  0  0
    4.9521    1.7967   16.9891 H   0  0  0  0  0  0  0  0  0  0  0  0
    4.7997    1.3048   19.0972 C   0  0  0  0  0  0  0  0  0  0  0  0
    3.8727    1.8405   19.2399 H   0  0  0  0  0  0  0  0  0  0  0  0
    5.4247    0.6483   20.1551 C   0  0  0  0  0  0  0  0  0  0  0  0
    4.9828    0.6492   21.1556 H   0  0  0  0  0  0  0  0  0  0  0  0
    7.7054   -0.1720   22.1920 C   0  0  0  0  0  0  0  0  0  0  0  0
    7.4334    1.1902   22.7715 C   0  0  0  0  0  0  0  0  0  0  0  0
    7.1074    1.8626   21.9719 H   0  0  0  0  0  0  0  0  0  0  0  0
    8.3553    1.6319   23.1707 H   0  0  0  0  0  0  0  0  0  0  0  0
    6.3790    1.1895   23.8888 C   0  0  0  0  0  0  0  0  0  0  0  0
    5.4309    0.7540   23.5447 H   0  0  0  0  0  0  0  0  0  0  0  0
    6.7243    0.5956   24.7446 H   0  0  0  0  0  0  0  0  0  0  0  0
    6.1651    2.5372   24.2867 O   0  0  0  0  0  0  0  0  0  0  0  0
    5.2686    2.8150   25.2797 C   0  0  0  0  0  0  0  0  0  0  0  0
    5.1308    4.1788   25.5919 C   0  0  0  0  0  0  0  0  0  0  0  0
    5.7348    4.8796   25.0248 H   0  0  0  0  0  0  0  0  0  0  0  0
    4.2464    4.5845   26.5906 C   0  0  0  0  0  0  0  0  0  0  0  0
    4.1484    5.6433   26.8230 H   0  0  0  0  0  0  0  0  0  0  0  0
    3.4861    3.6384   27.2926 C   0  0  0  0  0  0  0  0  0  0  0  0
    2.7989    3.9627   28.0711 H   0  0  0  0  0  0  0  0  0  0  0  0
    3.6229    2.2849   26.9818 C   0  0  0  0  0  0  0  0  0  0  0  0
    3.0376    1.5436   27.5240 H   0  0  0  0  0  0  0  0  0  0  0  0
    4.5098    1.8645   25.9783 C   0  0  0  0  0  0  0  0  0  0  0  0
    4.6145    0.8098   25.7409 H   0  0  0  0  0  0  0  0  0  0  0  0
    8.5228   -1.3856   23.1121 S   0  0  0  0  0  0  0  0  0  0  0  0
  1  2  1  0
  2  3  2  0
  3  4  1  0
  4  5  1  0
  5  6  2  0
  6  7  1  0
  6  8  1  0
  8  9  2  0
  9 10  1  0
  9 11  1  0
 11 12  1  0
 11 13  2  0
 13 14  1  0
  4 15  2  0
 15 16  1  0
 16 17  1  0
 16 18  1  0
 16 19  1  0
 19 20  1  0
 19 21  1  0
 19 22  1  0
 22 23  1  0
 23 24  2  0
 24 25  1  0
 24 26  1  0
 26 27  1  0
 26 28  2  0
 28 29  1  0
 28 30  1  0
 30 31  1  0
 30 32  2  0
 32 33  1  0
 15 34  1  0
 34  2  1  0
 13  5  1  0
 32 23  1  0
M  END
>  <cnnaffinity>  (1) 
-4.9818

>  <filename>  (1) 
[H]c1nc(-c2c([H])nc([H])c([H])c2[H])c(C([H])([H])C([H])([H])Oc2c([H])c([H])c([H])c([H])c2[H])s1

$$$$
