
     RDKit          3D

 36 38  0  0  0  0  0  0  0  0999 V2000
    9.2736   -1.4833   20.1237 H   0  0  0  0  0  0  0  0  0  0  0  0
    8.5928   -1.3550   20.9503 C   0  0  0  0  0  0  0  0  0  0  0  0
    8.8333   -1.8804   22.2053 N   0  0  0  0  0  0  0  0  0  0  0  0
    7.8041   -1.5119   22.9014 C   0  0  0  0  0  0  0  0  0  0  0  0
    7.5961   -1.7695   24.3462 C   0  0  0  0  0  0  0  0  0  0  0  0
    8.1436   -2.6918   24.5509 H   0  0  0  0  0  0  0  0  0  0  0  0
    6.5358   -1.9592   24.5363 H   0  0  0  0  0  0  0  0  0  0  0  0
    8.1136   -0.6473   25.2716 C   0  0  0  0  0  0  0  0  0  0  0  0
    7.9564   -0.9898   26.3073 H   0  0  0  0  0  0  0  0  0  0  0  0
    7.3206    0.6569   25.0926 C   0  0  0  0  0  0  0  0  0  0  0  0
    6.2517    0.4686   25.2391 H   0  0  0  0  0  0  0  0  0  0  0  0
    7.4303    1.0090   24.0609 H   0  0  0  0  0  0  0  0  0  0  0  0
    7.8116    1.7458   26.0482 C   0  0  0  0  0  0  0  0  0  0  0  0
    7.2637    2.6814   25.8903 H   0  0  0  0  0  0  0  0  0  0  0  0
    7.6088    1.4473   27.0875 H   0  0  0  0  0  0  0  0  0  0  0  0
    9.3156    1.9827   25.8807 C   0  0  0  0  0  0  0  0  0  0  0  0
    9.6150    2.7696   26.5669 H   0  0  0  0  0  0  0  0  0  0  0  0
    9.5199    2.4001   24.8851 H   0  0  0  0  0  0  0  0  0  0  0  0
   10.1270    0.6862   26.0508 C   0  0  0  0  0  0  0  0  0  0  0  0
   10.0222    0.2897   27.0691 H   0  0  0  0  0  0  0  0  0  0  0  0
   11.1956    0.8720   25.8989 H   0  0  0  0  0  0  0  0  0  0  0  0
    9.6240   -0.3993   25.0949 C   0  0  0  0  0  0  0  0  0  0  0  0
    9.8307   -0.0997   24.0607 H   0  0  0  0  0  0  0  0  0  0  0  0
   10.1753   -1.3336   25.2493 H   0  0  0  0  0  0  0  0  0  0  0  0
    6.8914   -0.7918   22.2061 O   0  0  0  0  0  0  0  0  0  0  0  0
    7.4061   -0.6956   20.9342 C   0  0  0  0  0  0  0  0  0  0  0  0
    6.6478    0.0141   19.9140 C   0  0  0  0  0  0  0  0  0  0  0  0
    7.1547    0.0679   18.6031 C   0  0  0  0  0  0  0  0  0  0  0  0
    8.0990   -0.4119   18.3650 H   0  0  0  0  0  0  0  0  0  0  0  0
    6.5560    0.6782   17.5789 N   0  0  0  0  0  0  0  0  0  0  0  0
    5.3945    1.2956   17.8374 C   0  0  0  0  0  0  0  0  0  0  0  0
    4.9248    1.7860   16.9885 H   0  0  0  0  0  0  0  0  0  0  0  0
    4.7966    1.3150   19.1033 C   0  0  0  0  0  0  0  0  0  0  0  0
    3.8666    1.8484   19.2466 H   0  0  0  0  0  0  0  0  0  0  0  0
    5.4201    0.6613   20.1659 C   0  0  0  0  0  0  0  0  0  0  0  0
    4.9917    0.6440   21.1718 H   0  0  0  0  0  0  0  0  0  0  0  0
  1  2  1  0
  2  3  1  0
  3  4  2  0
  4  5  1  0
  5  6  1  0
  5  7  1  0
  5  8  1  0
  8  9  1  0
  8 10  1  0
 10 11  1  0
 10 12  1  0
 10 13  1  0
 13 14  1  0
 13 15  1  0
 13 16  1  0
 16 17  1  0
 16 18  1  0
 16 19  1  0
 19 20  1  0
 19 21  1  0
 19 22  1  0
 22 23  1  0
 22 24  1  0
  4 25  1  0
 25 26  1  0
 26 27  1  0
 27 28  2  0
 28 29  1  0
 28 30  1  0
 30 31  2  0
 31 32  1  0
 31 33  1  0
 33 34  1  0
 33 35  2  0
 35 36  1  0
 26  2  2  0
 35 27  1  0
 22  8  1  0
M  END
>  <cnnaffinity>  (1) 
-5.11682

>  <filename>  (1) 
[H]c1nc(C([H])([H])C2([H])C([H])([H])C([H])([H])C([H])([H])C([H])([H])C2([H])[H])oc1-c1c([H])nc([H])c([H])c1[H]

$$$$
