
     RDKit          3D

 46 50  0  0  0  0  0  0  0  0999 V2000
    7.4397    7.6268   21.3991 O   0  0  0  0  0  0  0  0  0  0  0  0
    7.8236    6.6005   21.9374 C   0  0  0  0  0  0  0  0  0  0  0  0
    9.0447    6.4121   22.7129 C   0  0  0  0  0  0  0  0  0  0  0  0
    9.3610    5.1872   23.2308 C   0  0  0  0  0  0  0  0  0  0  0  0
    8.4756    4.0640   23.0776 C   0  0  0  0  0  0  0  0  0  0  0  0
    8.8258    2.6852   23.6414 C   0  0  0  0  0  0  0  0  0  0  0  0
    8.7579    1.5684   22.6292 C   0  0  0  0  0  0  0  0  0  0  0  0
    7.7252    0.7844   22.3832 N   0  0  0  0  0  0  0  0  0  0  0  0
    8.1356    0.0702   21.2970 C   0  0  0  0  0  0  0  0  0  0  0  0
    7.2682   -0.9107   20.5698 C   0  0  0  0  0  0  0  0  0  0  0  0
    6.4904   -0.2388   19.4449 C   0  0  0  0  0  0  0  0  0  0  0  0
    5.3521    0.5130   19.7587 C   0  0  0  0  0  0  0  0  0  0  0  0
    4.7356    1.2632   18.7568 C   0  0  0  0  0  0  0  0  0  0  0  0
    5.2992    1.2604   17.4785 C   0  0  0  0  0  0  0  0  0  0  0  0
    6.3690    0.5221   17.1456 N   0  0  0  0  0  0  0  0  0  0  0  0
    6.9340   -0.2140   18.1117 C   0  0  0  0  0  0  0  0  0  0  0  0
    7.7980   -0.8107   17.8124 H   0  0  0  0  0  0  0  0  0  0  0  0
    4.8776    1.8790   16.6885 H   0  0  0  0  0  0  0  0  0  0  0  0
    3.8585    1.8669   18.9594 H   0  0  0  0  0  0  0  0  0  0  0  0
    4.9746    0.5181   20.7827 H   0  0  0  0  0  0  0  0  0  0  0  0
    7.9081   -1.7147   20.1916 H   0  0  0  0  0  0  0  0  0  0  0  0
    6.5879   -1.3336   21.3132 H   0  0  0  0  0  0  0  0  0  0  0  0
    9.3487    0.3497   20.8720 N   0  0  0  0  0  0  0  0  0  0  0  0
    9.7511    1.3068   21.7399 N   0  0  0  0  0  0  0  0  0  0  0  0
   11.0897    1.7921   21.8233 C   0  0  0  0  0  0  0  0  0  0  0  0
   11.5947    2.8077   21.0200 C   0  0  0  0  0  0  0  0  0  0  0  0
   12.7413    3.5280   21.4129 C   0  0  0  0  0  0  0  0  0  0  0  0
   13.4740    3.1549   22.5421 C   0  0  0  0  0  0  0  0  0  0  0  0
   13.0442    2.0326   23.2750 C   0  0  0  0  0  0  0  0  0  0  0  0
   11.8833    1.3552   22.8897 C   0  0  0  0  0  0  0  0  0  0  0  0
   11.7513    0.3147   23.7777 N   0  0  0  0  0  0  0  0  0  0  0  0
   12.8082    0.4032   24.6333 C   0  0  0  0  0  0  0  0  0  0  0  0
   13.5926    1.4027   24.3728 N   0  0  0  0  0  0  0  0  0  0  0  0
   12.9471   -0.2819   25.4591 H   0  0  0  0  0  0  0  0  0  0  0  0
   11.0512   -0.4038   23.7215 H   0  0  0  0  0  0  0  0  0  0  0  0
   14.3984    3.6438   22.8190 H   0  0  0  0  0  0  0  0  0  0  0  0
   13.0834    4.3431   20.7780 H   0  0  0  0  0  0  0  0  0  0  0  0
   11.1051    3.0620   20.0903 H   0  0  0  0  0  0  0  0  0  0  0  0
    8.1765    2.4102   24.4811 H   0  0  0  0  0  0  0  0  0  0  0  0
    9.8357    2.7070   24.0584 H   0  0  0  0  0  0  0  0  0  0  0  0
    7.3175    4.2427   22.3686 C   0  0  0  0  0  0  0  0  0  0  0  0
    7.0321    5.4604   21.8096 N   0  0  0  0  0  0  0  0  0  0  0  0
    6.2736    5.6382   21.1634 H   0  0  0  0  0  0  0  0  0  0  0  0
    6.5921    3.4404   22.2387 H   0  0  0  0  0  0  0  0  0  0  0  0
   10.2990    5.0498   23.7796 H   0  0  0  0  0  0  0  0  0  0  0  0
    9.6524    7.3016   22.8145 H   0  0  0  0  0  0  0  0  0  0  0  0
  1  2  2  0
  2  3  1  0
  3  4  2  0
  4  5  1  0
  5  6  1  0
  6  7  1  0
  7  8  2  0
  8  9  1  0
  9 10  1  0
 10 11  1  0
 11 12  2  0
 12 13  1  0
 13 14  2  0
 14 15  1  0
 15 16  2  0
 16 17  1  0
 14 18  1  0
 13 19  1  0
 12 20  1  0
 10 21  1  0
 10 22  1  0
  9 23  2  0
 23 24  1  0
 24 25  1  0
 25 26  2  0
 26 27  1  0
 27 28  2  0
 28 29  1  0
 29 30  2  0
 30 31  1  0
 31 32  1  0
 32 33  2  0
 32 34  1  0
 31 35  1  0
 28 36  1  0
 27 37  1  0
 26 38  1  0
  6 39  1  0
  6 40  1  0
  5 41  2  0
 41 42  1  0
 42 43  1  0
 41 44  1  0
  4 45  1  0
  3 46  1  0
 42  2  1  0
 24  7  1  0
 30 25  1  0
 16 11  1  0
 33 29  1  0
M  END
>  <cnnaffinity>  (1) 
-6.20484

>  <filename>  (1) 
[H]c1nc([H])c(C([H])([H])c2nc(C([H])([H])c3c([H])c([H])c(=O)n([H])c3[H])n(-c3c([H])c([H])c([H])c4nc([H])n([H])c34)n2)c([H])c1[H]

$$$$
