
     RDKit          3D

 48 52  0  0  0  0  0  0  0  0999 V2000
   11.2427   -2.4178   22.6092 C   0  0  0  0  0  0  0  0  0  0  0  0
   12.4708   -1.9328   22.1439 C   0  0  0  0  0  0  0  0  0  0  0  0
   12.7971   -0.6114   22.4480 C   0  0  0  0  0  0  0  0  0  0  0  0
   11.9083    0.1630   23.2021 C   0  0  0  0  0  0  0  0  0  0  0  0
   12.0175    1.6689   23.2350 C   0  0  0  0  0  0  0  0  0  0  0  0
   11.2541    2.2990   22.0175 C   0  0  0  0  0  0  0  0  0  0  0  0
    9.8431    1.7790   21.9072 C   0  0  0  0  0  0  0  0  0  0  0  0
    9.4023    0.9344   20.9902 N   0  0  0  0  0  0  0  0  0  0  0  0
    8.2631    0.4443   21.5561 C   0  0  0  0  0  0  0  0  0  0  0  0
    7.4140   -0.5987   20.8881 C   0  0  0  0  0  0  0  0  0  0  0  0
    6.5980   -0.0193   19.7448 C   0  0  0  0  0  0  0  0  0  0  0  0
    5.3931    0.6478   19.9966 C   0  0  0  0  0  0  0  0  0  0  0  0
    4.7692    1.3308   18.9507 C   0  0  0  0  0  0  0  0  0  0  0  0
    5.3658    1.3093   17.6864 C   0  0  0  0  0  0  0  0  0  0  0  0
    6.4951    0.6396   17.4110 N   0  0  0  0  0  0  0  0  0  0  0  0
    7.0808   -0.0075   18.4251 C   0  0  0  0  0  0  0  0  0  0  0  0
    7.9979   -0.5462   18.1818 H   0  0  0  0  0  0  0  0  0  0  0  0
    4.9164    1.8411   16.8512 H   0  0  0  0  0  0  0  0  0  0  0  0
    3.8518    1.8882   19.1022 H   0  0  0  0  0  0  0  0  0  0  0  0
    4.9593    0.6314   20.9993 H   0  0  0  0  0  0  0  0  0  0  0  0
    8.0809   -1.3897   20.5302 H   0  0  0  0  0  0  0  0  0  0  0  0
    6.7661   -1.0259   21.6594 H   0  0  0  0  0  0  0  0  0  0  0  0
    7.9562    0.9596   22.7244 N   0  0  0  0  0  0  0  0  0  0  0  0
    8.9607    1.8469   22.9394 N   0  0  0  0  0  0  0  0  0  0  0  0
    8.9845    2.6982   24.0869 C   0  0  0  0  0  0  0  0  0  0  0  0
    8.6023    2.1690   25.3553 C   0  0  0  0  0  0  0  0  0  0  0  0
    8.5721    2.9728   26.4842 C   0  0  0  0  0  0  0  0  0  0  0  0
    8.9504    4.3302   26.3314 C   0  0  0  0  0  0  0  0  0  0  0  0
    9.0202    5.3719   27.2055 N   0  0  0  0  0  0  0  0  0  0  0  0
    9.4758    6.5095   26.6355 N   0  0  0  0  0  0  0  0  0  0  0  0
    9.7041    6.2078   25.3724 C   0  0  0  0  0  0  0  0  0  0  0  0
    9.3813    4.8464   25.0927 C   0  0  0  0  0  0  0  0  0  0  0  0
    9.3729    4.0230   23.9438 C   0  0  0  0  0  0  0  0  0  0  0  0
    9.6162    4.4082   22.9611 H   0  0  0  0  0  0  0  0  0  0  0  0
   10.0878    6.9533   24.6905 H   0  0  0  0  0  0  0  0  0  0  0  0
    8.6898    5.3878   28.1573 H   0  0  0  0  0  0  0  0  0  0  0  0
    8.2643    2.5796   27.4487 H   0  0  0  0  0  0  0  0  0  0  0  0
    8.3185    1.1193   25.4121 H   0  0  0  0  0  0  0  0  0  0  0  0
   11.7548    2.0520   21.0768 H   0  0  0  0  0  0  0  0  0  0  0  0
   11.2561    3.3883   22.0847 H   0  0  0  0  0  0  0  0  0  0  0  0
   11.5674    2.0229   24.1676 H   0  0  0  0  0  0  0  0  0  0  0  0
   13.0729    1.9582   23.2102 H   0  0  0  0  0  0  0  0  0  0  0  0
   10.8111   -0.3541   23.7784 N   0  0  0  0  0  0  0  0  0  0  0  0
   10.4626   -1.5974   23.4267 C   0  0  0  0  0  0  0  0  0  0  0  0
    9.5302   -1.9644   23.8468 H   0  0  0  0  0  0  0  0  0  0  0  0
   13.7120   -0.1603   22.0919 H   0  0  0  0  0  0  0  0  0  0  0  0
   13.1715   -2.5346   21.5667 H   0  0  0  0  0  0  0  0  0  0  0  0
   10.8998   -3.4210   22.4158 H   0  0  0  0  0  0  0  0  0  0  0  0
  1  2  2  0
  2  3  1  0
  3  4  2  0
  4  5  1  0
  5  6  1  0
  6  7  1  0
  7  8  2  0
  8  9  1  0
  9 10  1  0
 10 11  1  0
 11 12  2  0
 12 13  1  0
 13 14  2  0
 14 15  1  0
 15 16  2  0
 16 17  1  0
 14 18  1  0
 13 19  1  0
 12 20  1  0
 10 21  1  0
 10 22  1  0
  9 23  2  0
 23 24  1  0
 24 25  1  0
 25 26  2  0
 26 27  1  0
 27 28  2  0
 28 29  1  0
 29 30  1  0
 30 31  2  0
 31 32  1  0
 32 33  2  0
 33 34  1  0
 31 35  1  0
 29 36  1  0
 27 37  1  0
 26 38  1  0
  6 39  1  0
  6 40  1  0
  5 41  1  0
  5 42  1  0
  4 43  1  0
 43 44  2  0
 44 45  1  0
  3 46  1  0
  2 47  1  0
  1 48  1  0
 44  1  1  0
 24  7  1  0
 33 25  1  0
 16 11  1  0
 32 28  1  0
M  END
>  <cnnaffinity>  (1) 
-6.59682

>  <filename>  (1) 
[H]c1nc(C([H])([H])C([H])([H])c2nc(C([H])([H])c3c([H])nc([H])c([H])c3[H])nn2-c2c([H])c([H])c3c(c([H])nn3[H])c2[H])c([H])c([H])c1[H]

$$$$
