
     RDKit          3D

 41 44  0  0  0  0  0  0  0  0999 V2000
    9.2757    2.4774   24.7789 C   0  0  0  0  0  0  0  0  0  0  0  0
    8.1215    2.5439   23.7750 C   0  0  0  0  0  0  0  0  0  0  0  0
    8.1577    1.4866   22.7509 N   0  0  0  0  0  0  0  0  0  0  0  0
    7.0019    0.8265   22.4964 N   0  0  0  0  0  0  0  0  0  0  0  0
    7.3562   -0.0937   21.6301 C   0  0  0  0  0  0  0  0  0  0  0  0
    6.3645   -0.9701   20.9185 C   0  0  0  0  0  0  0  0  0  0  0  0
    5.8573   -0.2729   19.6592 C   0  0  0  0  0  0  0  0  0  0  0  0
    4.8080    0.6521   19.7375 C   0  0  0  0  0  0  0  0  0  0  0  0
    4.5042    1.4352   18.6183 C   0  0  0  0  0  0  0  0  0  0  0  0
    5.2803    1.2732   17.4687 C   0  0  0  0  0  0  0  0  0  0  0  0
    6.2871    0.3924   17.3666 N   0  0  0  0  0  0  0  0  0  0  0  0
    6.5539   -0.3587   18.4431 C   0  0  0  0  0  0  0  0  0  0  0  0
    7.3939   -1.0500   18.3544 H   0  0  0  0  0  0  0  0  0  0  0  0
    5.0871    1.8759   16.5819 H   0  0  0  0  0  0  0  0  0  0  0  0
    3.7091    2.1760   18.6355 H   0  0  0  0  0  0  0  0  0  0  0  0
    4.2603    0.7757   20.6721 H   0  0  0  0  0  0  0  0  0  0  0  0
    5.5392   -1.1740   21.6021 H   0  0  0  0  0  0  0  0  0  0  0  0
    6.8549   -1.9203   20.6861 H   0  0  0  0  0  0  0  0  0  0  0  0
    8.6752   -0.1018   21.3120 N   0  0  0  0  0  0  0  0  0  0  0  0
    9.1546    0.9024   22.0238 C   0  0  0  0  0  0  0  0  0  0  0  0
   10.4956    1.5007   21.9284 C   0  0  0  0  0  0  0  0  0  0  0  0
   11.6611    1.1984   22.5912 C   0  0  0  0  0  0  0  0  0  0  0  0
   12.5306    2.3153   22.3864 C   0  0  0  0  0  0  0  0  0  0  0  0
   13.7151    2.8036   22.9241 C   0  0  0  0  0  0  0  0  0  0  0  0
   14.2316    3.9869   22.5741 N   0  0  0  0  0  0  0  0  0  0  0  0
   13.5605    4.6870   21.6485 C   0  0  0  0  0  0  0  0  0  0  0  0
   12.3998    4.3687   21.0802 N   0  0  0  0  0  0  0  0  0  0  0  0
   11.9162    3.2023   21.4952 C   0  0  0  0  0  0  0  0  0  0  0  0
   10.7030    2.6638   21.1870 N   0  0  0  0  0  0  0  0  0  0  0  0
   10.0494    3.2294   20.6706 H   0  0  0  0  0  0  0  0  0  0  0  0
   14.0001    5.6417   21.3553 H   0  0  0  0  0  0  0  0  0  0  0  0
   14.1986    2.1860   23.6735 H   0  0  0  0  0  0  0  0  0  0  0  0
   11.8801    0.2935   23.1528 H   0  0  0  0  0  0  0  0  0  0  0  0
    7.9205    3.9632   23.1960 C   0  0  0  0  0  0  0  0  0  0  0  0
    7.7081    4.8126   24.2271 F   0  0  0  0  0  0  0  0  0  0  0  0
    6.8674    4.0500   22.3824 F   0  0  0  0  0  0  0  0  0  0  0  0
    8.9902    4.4251   22.5281 F   0  0  0  0  0  0  0  0  0  0  0  0
    7.1764    2.3561   24.2973 H   0  0  0  0  0  0  0  0  0  0  0  0
    9.3158    1.4811   25.2273 H   0  0  0  0  0  0  0  0  0  0  0  0
   10.2525    2.6858   24.3274 H   0  0  0  0  0  0  0  0  0  0  0  0
    9.1042    3.2162   25.5684 H   0  0  0  0  0  0  0  0  0  0  0  0
  1  2  1  0
  2  3  1  0
  3  4  1  0
  4  5  2  0
  5  6  1  0
  6  7  1  0
  7  8  2  0
  8  9  1  0
  9 10  2  0
 10 11  1  0
 11 12  2  0
 12 13  1  0
 10 14  1  0
  9 15  1  0
  8 16  1  0
  6 17  1  0
  6 18  1  0
  5 19  1  0
 19 20  2  0
 20 21  1  0
 21 22  2  0
 22 23  1  0
 23 24  2  0
 24 25  1  0
 25 26  2  0
 26 27  1  0
 27 28  2  0
 28 29  1  0
 29 30  1  0
 26 31  1  0
 24 32  1  0
 22 33  1  0
  2 34  1  0
 34 35  1  0
 34 36  1  0
 34 37  1  0
  2 38  1  0
  1 39  1  0
  1 40  1  0
  1 41  1  0
 20  3  1  0
 29 21  1  0
 12  7  1  0
 28 23  1  0
M  END
>  <cnnaffinity>  (1) 
-6.41769

>  <filename>  (1) 
[H]c1nc([H])c2c([H])c(-c3nc(C([H])([H])c4c([H])nc([H])c([H])c4[H])nn3C([H])(C([H])([H])[H])C(F)(F)F)n([H])c2n1

$$$$
