
     RDKit          3D

 39 42  0  0  0  0  0  0  0  0999 V2000
    8.2389    2.9527   26.5690 F   0  0  0  0  0  0  0  0  0  0  0  0
    8.2137    1.9625   25.5991 C   0  0  0  0  0  0  0  0  0  0  0  0
    8.4389    2.6300   24.2475 C   0  0  0  0  0  0  0  0  0  0  0  0
    8.7706    1.6647   23.2012 N   0  0  0  0  0  0  0  0  0  0  0  0
    7.7890    0.8028   22.8351 N   0  0  0  0  0  0  0  0  0  0  0  0
    8.2466    0.2692   21.7222 C   0  0  0  0  0  0  0  0  0  0  0  0
    7.4396   -0.7062   20.9140 C   0  0  0  0  0  0  0  0  0  0  0  0
    6.6885   -0.0682   19.7478 C   0  0  0  0  0  0  0  0  0  0  0  0
    5.5033    0.6466   19.9683 C   0  0  0  0  0  0  0  0  0  0  0  0
    4.8958    1.2998   18.8933 C   0  0  0  0  0  0  0  0  0  0  0  0
    5.4926    1.2173   17.6328 C   0  0  0  0  0  0  0  0  0  0  0  0
    6.6150    0.5228   17.3935 N   0  0  0  0  0  0  0  0  0  0  0  0
    7.1845   -0.1004   18.4326 C   0  0  0  0  0  0  0  0  0  0  0  0
    8.0957   -0.6587   18.2103 H   0  0  0  0  0  0  0  0  0  0  0  0
    5.0515    1.7252   16.7763 H   0  0  0  0  0  0  0  0  0  0  0  0
    3.9891    1.8809   19.0214 H   0  0  0  0  0  0  0  0  0  0  0  0
    5.0720    0.6923   20.9703 H   0  0  0  0  0  0  0  0  0  0  0  0
    8.1212   -1.4853   20.5556 H   0  0  0  0  0  0  0  0  0  0  0  0
    6.7351   -1.1786   21.6062 H   0  0  0  0  0  0  0  0  0  0  0  0
    9.4618    0.7198   21.3387 N   0  0  0  0  0  0  0  0  0  0  0  0
    9.7871    1.5860   22.2913 C   0  0  0  0  0  0  0  0  0  0  0  0
   11.0392    2.3667   22.2886 C   0  0  0  0  0  0  0  0  0  0  0  0
   11.5498    2.7929   21.0164 C   0  0  0  0  0  0  0  0  0  0  0  0
   12.5731    3.7185   20.7683 C   0  0  0  0  0  0  0  0  0  0  0  0
   13.4021    4.2981   21.8104 C   0  0  0  0  0  0  0  0  0  0  0  0
   15.1043    5.1792   20.4971 N   0  0  0  0  0  0  0  0  0  0  0  0
   14.4454    5.3046   21.5455 N   0  0  0  0  0  0  0  0  0  0  0  0
   13.1377    3.7793   23.5194 C   0  0  0  0  0  0  0  0  0  0  0  0
   13.0129    3.5473   23.1959 C   0  0  0  0  0  0  0  0  0  0  0  0
   11.7294    2.7086   23.5029 C   0  0  0  0  0  0  0  0  0  0  0  0
   11.5681    2.0794   24.4103 H   0  0  0  0  0  0  0  0  0  0  0  0
   14.0979    3.5771   23.9896 H   0  0  0  0  0  0  0  0  0  0  0  0
   14.7895    4.3504   19.9478 H   0  0  0  0  0  0  0  0  0  0  0  0
   12.7570    4.0092   19.7380 H   0  0  0  0  0  0  0  0  0  0  0  0
   11.0756    2.3798   20.1421 H   0  0  0  0  0  0  0  0  0  0  0  0
    7.5389    3.1695   23.9451 H   0  0  0  0  0  0  0  0  0  0  0  0
    9.2447    3.3602   24.3378 H   0  0  0  0  0  0  0  0  0  0  0  0
    9.0055    1.2419   25.8217 H   0  0  0  0  0  0  0  0  0  0  0  0
    7.2483    1.4523   25.6422 H   0  0  0  0  0  0  0  0  0  0  0  0
  1  2  1  0
  2  3  1  0
  3  4  1  0
  4  5  1  0
  5  6  2  0
  6  7  1  0
  7  8  1  0
  8  9  2  0
  9 10  1  0
 10 11  2  0
 11 12  1  0
 12 13  2  0
 13 14  1  0
 11 15  1  0
 10 16  1  0
  9 17  1  0
  7 18  1  0
  7 19  1  0
  6 20  1  0
 20 21  2  0
 21 22  1  0
 22 23  2  0
 23 24  1  0
 24 25  2  0
 25 26  1  0
 26 27  1  0
 27 28  2  0
 28 29  1  0
 29 30  2  0
 30 31  1  0
 28 32  1  0
 26 33  1  0
 24 34  1  0
 23 35  1  0
  3 36  1  0
  3 37  1  0
  2 38  1  0
  2 39  1  0
 21  4  1  0
 30 22  1  0
 13  8  1  0
 29 25  1  0
M  END
>  <cnnaffinity>  (1) 
-5.90084

>  <filename>  (1) 
[H]c1nc([H])c(C([H])([H])c2nc(-c3c([H])c([H])c4c(c([H])nn4[H])c3[H])n(C([H])([H])C([H])([H])F)n2)c([H])c1[H]

$$$$
