
     RDKit          3D

 28 29  0  0  0  0  0  0  0  0999 V2000
    8.2403    2.0520   22.1837 H   0  0  0  0  0  0  0  0  0  0  0  0
    8.5221    1.0720   22.5756 C   0  0  0  0  0  0  0  0  0  0  0  0
    7.1604   -0.0874   22.6475 S   0  0  0  0  0  0  0  0  0  0  0  0
    7.3506   -0.7530   20.9767 C   0  0  0  0  0  0  0  0  0  0  0  0
    8.3730   -1.9872   20.7306 S   0  0  0  0  0  0  0  0  0  0  0  0
    6.6438   -0.0011   19.9115 C   0  0  0  0  0  0  0  0  0  0  0  0
    7.1709    0.0567   18.6048 C   0  0  0  0  0  0  0  0  0  0  0  0
    8.1180   -0.4299   18.3817 H   0  0  0  0  0  0  0  0  0  0  0  0
    6.5689    0.6740   17.5873 N   0  0  0  0  0  0  0  0  0  0  0  0
    5.4031    1.2917   17.8401 C   0  0  0  0  0  0  0  0  0  0  0  0
    4.9258    1.7798   16.9942 H   0  0  0  0  0  0  0  0  0  0  0  0
    4.8032    1.3151   19.1036 C   0  0  0  0  0  0  0  0  0  0  0  0
    3.8707    1.8445   19.2545 H   0  0  0  0  0  0  0  0  0  0  0  0
    5.4289    0.6631   20.1613 C   0  0  0  0  0  0  0  0  0  0  0  0
    4.9964    0.6440   21.1674 H   0  0  0  0  0  0  0  0  0  0  0  0
    9.7917    0.7165   22.8169 C   0  0  0  0  0  0  0  0  0  0  0  0
   10.0305   -0.3175   23.0867 H   0  0  0  0  0  0  0  0  0  0  0  0
   10.9529    1.6175   22.7059 C   0  0  0  0  0  0  0  0  0  0  0  0
   10.8148    3.0202   22.6526 C   0  0  0  0  0  0  0  0  0  0  0  0
    9.8263    3.4723   22.7153 H   0  0  0  0  0  0  0  0  0  0  0  0
   11.9405    3.8375   22.5447 C   0  0  0  0  0  0  0  0  0  0  0  0
   11.8143    4.9170   22.5016 H   0  0  0  0  0  0  0  0  0  0  0  0
   13.2185    3.2718   22.4932 C   0  0  0  0  0  0  0  0  0  0  0  0
   14.0943    3.9070   22.3881 H   0  0  0  0  0  0  0  0  0  0  0  0
   13.3676    1.8790   22.5568 C   0  0  0  0  0  0  0  0  0  0  0  0
   14.3590    1.4335   22.4962 H   0  0  0  0  0  0  0  0  0  0  0  0
   12.2466    1.0589   22.6515 C   0  0  0  0  0  0  0  0  0  0  0  0
   12.3627   -0.0242   22.6704 H   0  0  0  0  0  0  0  0  0  0  0  0
  1  2  1  0
  2  3  1  0
  3  4  1  0
  4  5  2  0
  4  6  1  0
  6  7  2  0
  7  8  1  0
  7  9  1  0
  9 10  2  0
 10 11  1  0
 10 12  1  0
 12 13  1  0
 12 14  2  0
 14 15  1  0
  2 16  2  3
 16 17  1  0
 16 18  1  0
 18 19  2  0
 19 20  1  0
 19 21  1  0
 21 22  1  0
 21 23  2  0
 23 24  1  0
 23 25  1  0
 25 26  1  0
 25 27  2  0
 27 28  1  0
 14  6  1  0
 27 18  1  0
M  END
>  <cnnaffinity>  (1) 
-4.86352

>  <filename>  (1) 
[H]C(SC(=S)c1c([H])nc([H])c([H])c1[H])=C([H])c1c([H])c([H])c([H])c([H])c1[H]

$$$$
