
     RDKit          3D

 36 39  0  0  0  0  0  0  0  0999 V2000
    4.9512    1.8287   16.9072 H   0  0  0  0  0  0  0  0  0  0  0  0
    5.3862    1.3038   17.7550 C   0  0  0  0  0  0  0  0  0  0  0  0
    6.5317    0.6489   17.5173 N   0  0  0  0  0  0  0  0  0  0  0  0
    7.1102    0.0335   18.5530 C   0  0  0  0  0  0  0  0  0  0  0  0
    8.0355   -0.4966   18.3419 H   0  0  0  0  0  0  0  0  0  0  0  0
    6.5948    0.0528   19.8646 C   0  0  0  0  0  0  0  0  0  0  0  0
    7.3569   -0.5589   20.9589 C   0  0  0  0  0  0  0  0  0  0  0  0
    8.2682   -1.5141   20.7433 N   0  0  0  0  0  0  0  0  0  0  0  0
    8.7763   -1.7437   21.9487 N   0  0  0  0  0  0  0  0  0  0  0  0
    8.2758   -1.0047   22.9476 C   0  0  0  0  0  0  0  0  0  0  0  0
    7.2952   -0.2341   22.3486 C   0  0  0  0  0  0  0  0  0  0  0  0
    6.4366    0.6751   22.9028 O   0  0  0  0  0  0  0  0  0  0  0  0
    6.2286    0.6696   24.2705 C   0  0  0  0  0  0  0  0  0  0  0  0
    5.8756   -0.4924   24.9678 C   0  0  0  0  0  0  0  0  0  0  0  0
    5.8937   -1.4488   24.4513 H   0  0  0  0  0  0  0  0  0  0  0  0
    5.5446   -0.4202   26.3236 C   0  0  0  0  0  0  0  0  0  0  0  0
    5.2591   -1.3045   26.8822 H   0  0  0  0  0  0  0  0  0  0  0  0
    5.5862    0.8167   26.9633 C   0  0  0  0  0  0  0  0  0  0  0  0
    5.2369    0.8909   28.2601 F   0  0  0  0  0  0  0  0  0  0  0  0
    5.9766    1.9732   26.2933 C   0  0  0  0  0  0  0  0  0  0  0  0
    6.0165    2.9179   26.8278 H   0  0  0  0  0  0  0  0  0  0  0  0
    6.3057    1.8956   24.9369 C   0  0  0  0  0  0  0  0  0  0  0  0
    6.6337    2.7709   24.3843 H   0  0  0  0  0  0  0  0  0  0  0  0
    8.9957   -1.2895   24.2340 C   0  0  0  0  0  0  0  0  0  0  0  0
    9.4005   -0.3741   24.6796 H   0  0  0  0  0  0  0  0  0  0  0  0
    8.3326   -1.7454   24.9775 H   0  0  0  0  0  0  0  0  0  0  0  0
   10.1283   -2.2483   23.7712 C   0  0  0  0  0  0  0  0  0  0  0  0
   11.0426   -1.6709   23.6780 H   0  0  0  0  0  0  0  0  0  0  0  0
   10.3010   -3.0714   24.4704 H   0  0  0  0  0  0  0  0  0  0  0  0
    9.7676   -2.7180   22.3361 C   0  0  0  0  0  0  0  0  0  0  0  0
    9.3400   -3.7252   22.2943 H   0  0  0  0  0  0  0  0  0  0  0  0
   10.6126   -2.6425   21.6493 H   0  0  0  0  0  0  0  0  0  0  0  0
    5.3677    0.7018   20.0870 C   0  0  0  0  0  0  0  0  0  0  0  0
    4.9157    0.7239   21.0792 H   0  0  0  0  0  0  0  0  0  0  0  0
    4.7622    1.3334   19.0059 C   0  0  0  0  0  0  0  0  0  0  0  0
    3.8343    1.8754   19.1267 H   0  0  0  0  0  0  0  0  0  0  0  0
  1  2  1  0
  2  3  2  0
  3  4  1  0
  4  5  1  0
  4  6  2  0
  6  7  1  0
  7  8  2  0
  8  9  1  0
  9 10  1  0
 10 11  2  0
 11 12  1  0
 12 13  1  0
 13 14  2  0
 14 15  1  0
 14 16  1  0
 16 17  1  0
 16 18  2  0
 18 19  1  0
 18 20  1  0
 20 21  1  0
 20 22  2  0
 22 23  1  0
 10 24  1  0
 24 25  1  0
 24 26  1  0
 24 27  1  0
 27 28  1  0
 27 29  1  0
 27 30  1  0
 30 31  1  0
 30 32  1  0
  6 33  1  0
 33 34  1  0
 33 35  2  0
 35 36  1  0
 35  2  1  0
 11  7  1  0
 22 13  1  0
 30  9  1  0
M  END
>  <cnnaffinity>  (1) 
-5.36395

>  <filename>  (1) 
[H]c1nc([H])c(-c2nn3c(c2Oc2c([H])c([H])c(F)c([H])c2[H])C([H])([H])C([H])([H])C3([H])[H])c([H])c1[H]

$$$$
