
     RDKit          3D

 42 44  0  0  0  0  0  0  0  0999 V2000
    7.6012   -0.6818   25.2105 C   0  0  0  0  0  0  0  0  0  0  0  0
    7.7825   -1.8903   24.2802 C   0  0  0  0  0  0  0  0  0  0  0  0
    6.6713   -2.9615   24.4793 C   0  0  0  0  0  0  0  0  0  0  0  0
    6.9026   -4.2032   23.7464 N   0  0  0  0  0  0  0  0  0  0  0  0
    7.7422   -5.2131   24.0901 C   0  0  0  0  0  0  0  0  0  0  0  0
    7.7721   -6.0960   23.0325 C   0  0  0  0  0  0  0  0  0  0  0  0
    6.9011   -5.5146   22.0756 C   0  0  0  0  0  0  0  0  0  0  0  0
    6.3817   -4.3818   22.5228 N   0  0  0  0  0  0  0  0  0  0  0  0
    6.6328   -5.8480   21.0788 H   0  0  0  0  0  0  0  0  0  0  0  0
    8.3237   -7.0263   22.9596 H   0  0  0  0  0  0  0  0  0  0  0  0
    8.2241   -5.2066   25.0623 H   0  0  0  0  0  0  0  0  0  0  0  0
    5.7081   -2.5712   24.1395 H   0  0  0  0  0  0  0  0  0  0  0  0
    6.6030   -3.2205   25.5427 H   0  0  0  0  0  0  0  0  0  0  0  0
    7.8343   -1.4452   22.8442 C   0  0  0  0  0  0  0  0  0  0  0  0
    6.9450   -0.6818   22.2376 N   0  0  0  0  0  0  0  0  0  0  0  0
    7.3568   -0.6888   20.9476 C   0  0  0  0  0  0  0  0  0  0  0  0
    6.6460    0.0171   19.8962 C   0  0  0  0  0  0  0  0  0  0  0  0
    5.4303    0.6618   20.1527 C   0  0  0  0  0  0  0  0  0  0  0  0
    4.8041    1.3094   19.0953 C   0  0  0  0  0  0  0  0  0  0  0  0
    5.4163    1.2842   17.8359 C   0  0  0  0  0  0  0  0  0  0  0  0
    6.5789    0.6638   17.5823 N   0  0  0  0  0  0  0  0  0  0  0  0
    7.1823    0.0493   18.6024 C   0  0  0  0  0  0  0  0  0  0  0  0
    8.1347   -0.4371   18.3805 H   0  0  0  0  0  0  0  0  0  0  0  0
    4.9504    1.7864   16.9933 H   0  0  0  0  0  0  0  0  0  0  0  0
    3.8702    1.8415   19.2382 H   0  0  0  0  0  0  0  0  0  0  0  0
    4.9992    0.6506   21.1576 H   0  0  0  0  0  0  0  0  0  0  0  0
    8.4503   -1.3925   20.7280 N   0  0  0  0  0  0  0  0  0  0  0  0
    8.7565   -1.8616   21.9538 N   0  0  0  0  0  0  0  0  0  0  0  0
    9.9968   -2.5684   22.1729 C   0  0  0  0  0  0  0  0  0  0  0  0
   11.1279   -1.7733   22.8223 C   0  0  0  0  0  0  0  0  0  0  0  0
   11.6737   -0.6232   22.0102 C   0  0  0  0  0  0  0  0  0  0  0  0
   12.7274   -0.0700   22.6422 F   0  0  0  0  0  0  0  0  0  0  0  0
   12.1163   -1.0772   20.8204 F   0  0  0  0  0  0  0  0  0  0  0  0
   10.8022    0.3634   21.7697 F   0  0  0  0  0  0  0  0  0  0  0  0
   11.9700   -2.4620   22.9142 H   0  0  0  0  0  0  0  0  0  0  0  0
   10.8804   -1.3962   23.8194 H   0  0  0  0  0  0  0  0  0  0  0  0
   10.2965   -2.8745   21.1751 H   0  0  0  0  0  0  0  0  0  0  0  0
    9.8022   -3.4595   22.7737 H   0  0  0  0  0  0  0  0  0  0  0  0
    8.7364   -2.3725   24.5273 H   0  0  0  0  0  0  0  0  0  0  0  0
    7.6062   -0.9817   26.2637 H   0  0  0  0  0  0  0  0  0  0  0  0
    6.6602   -0.1628   24.9976 H   0  0  0  0  0  0  0  0  0  0  0  0
    8.4160    0.0386   25.0641 H   0  0  0  0  0  0  0  0  0  0  0  0
  1  2  1  0
  2  3  1  0
  3  4  1  0
  4  5  1  0
  5  6  2  0
  6  7  1  0
  7  8  2  0
  7  9  1  0
  6 10  1  0
  5 11  1  0
  3 12  1  0
  3 13  1  0
  2 14  1  0
 14 15  2  0
 15 16  1  0
 16 17  1  0
 17 18  2  0
 18 19  1  0
 19 20  2  0
 20 21  1  0
 21 22  2  0
 22 23  1  0
 20 24  1  0
 19 25  1  0
 18 26  1  0
 16 27  2  0
 27 28  1  0
 28 29  1  0
 29 30  1  0
 30 31  1  0
 31 32  1  0
 31 33  1  0
 31 34  1  0
 30 35  1  0
 30 36  1  0
 29 37  1  0
 29 38  1  0
  2 39  1  0
  1 40  1  0
  1 41  1  0
  1 42  1  0
  8  4  1  0
 28 14  1  0
 22 17  1  0
M  END
>  <cnnaffinity>  (1) 
-6.43945

>  <filename>  (1) 
[H]c1nc([H])c(-c2nc(C([H])(C([H])([H])[H])C([H])([H])n3nc([H])c([H])c3[H])n(C([H])([H])C([H])([H])C(F)(F)F)n2)c([H])c1[H]

$$$$
