
     RDKit          3D

 44 47  0  0  0  0  0  0  0  0999 V2000
   13.5280    1.4550   23.0086 F   0  0  0  0  0  0  0  0  0  0  0  0
   12.2228    0.9999   23.0238 C   0  0  0  0  0  0  0  0  0  0  0  0
   11.4051    1.8979   22.0971 C   0  0  0  0  0  0  0  0  0  0  0  0
   10.0088    1.4903   22.0718 N   0  0  0  0  0  0  0  0  0  0  0  0
    9.6048    0.4940   21.2442 N   0  0  0  0  0  0  0  0  0  0  0  0
    8.3724    0.2607   21.6567 C   0  0  0  0  0  0  0  0  0  0  0  0
    7.4432   -0.7001   20.9818 C   0  0  0  0  0  0  0  0  0  0  0  0
    6.6422   -0.0360   19.8644 C   0  0  0  0  0  0  0  0  0  0  0  0
    5.4404    0.6362   20.1267 C   0  0  0  0  0  0  0  0  0  0  0  0
    4.7946    1.3108   19.0849 C   0  0  0  0  0  0  0  0  0  0  0  0
    5.3830    1.3034   17.8168 C   0  0  0  0  0  0  0  0  0  0  0  0
    6.5404    0.6814   17.5485 N   0  0  0  0  0  0  0  0  0  0  0  0
    7.1469    0.0437   18.5560 C   0  0  0  0  0  0  0  0  0  0  0  0
    8.1050   -0.4202   18.3204 H   0  0  0  0  0  0  0  0  0  0  0  0
    4.9165    1.8174   16.9768 H   0  0  0  0  0  0  0  0  0  0  0  0
    3.8682    1.8533   19.2372 H   0  0  0  0  0  0  0  0  0  0  0  0
    5.0353    0.6445   21.1409 H   0  0  0  0  0  0  0  0  0  0  0  0
    8.0315   -1.5479   20.6128 H   0  0  0  0  0  0  0  0  0  0  0  0
    6.7755   -1.0651   21.7694 H   0  0  0  0  0  0  0  0  0  0  0  0
    7.9763    0.9863   22.7267 N   0  0  0  0  0  0  0  0  0  0  0  0
    9.0149    1.7727   22.9510 C   0  0  0  0  0  0  0  0  0  0  0  0
    9.1151    2.8065   23.9813 C   0  0  0  0  0  0  0  0  0  0  0  0
    9.2086    4.1797   23.8504 C   0  0  0  0  0  0  0  0  0  0  0  0
    9.3124    5.0129   22.6016 C   0  0  0  0  0  0  0  0  0  0  0  0
    8.9047    6.4736   22.8448 C   0  0  0  0  0  0  0  0  0  0  0  0
    9.6005    7.0233   24.1038 C   0  0  0  0  0  0  0  0  0  0  0  0
    9.2040    6.2425   25.3798 C   0  0  0  0  0  0  0  0  0  0  0  0
    9.2046    4.7442   25.1465 C   0  0  0  0  0  0  0  0  0  0  0  0
    9.0780    3.7040   26.0268 C   0  0  0  0  0  0  0  0  0  0  0  0
    9.0386    2.5260   25.3224 N   0  0  0  0  0  0  0  0  0  0  0  0
    8.8849    1.6087   25.7209 H   0  0  0  0  0  0  0  0  0  0  0  0
    8.9702    3.7204   27.0995 H   0  0  0  0  0  0  0  0  0  0  0  0
    8.1902    6.5441   25.6877 H   0  0  0  0  0  0  0  0  0  0  0  0
    9.8729    6.5084   26.2077 H   0  0  0  0  0  0  0  0  0  0  0  0
    9.3600    8.0846   24.2327 H   0  0  0  0  0  0  0  0  0  0  0  0
   10.6908    6.9517   23.9629 H   0  0  0  0  0  0  0  0  0  0  0  0
    7.8110    6.5456   22.9563 H   0  0  0  0  0  0  0  0  0  0  0  0
    9.1634    7.0747   21.9645 H   0  0  0  0  0  0  0  0  0  0  0  0
    8.7078    4.5648   21.8030 H   0  0  0  0  0  0  0  0  0  0  0  0
   10.3696    4.9970   22.2838 H   0  0  0  0  0  0  0  0  0  0  0  0
   11.7852    1.8403   21.0733 H   0  0  0  0  0  0  0  0  0  0  0  0
   11.4657    2.9375   22.4389 H   0  0  0  0  0  0  0  0  0  0  0  0
   12.1983   -0.0412   22.6795 H   0  0  0  0  0  0  0  0  0  0  0  0
   11.8483    1.0487   24.0547 H   0  0  0  0  0  0  0  0  0  0  0  0
  1  2  1  0
  2  3  1  0
  3  4  1  0
  4  5  1  0
  5  6  2  0
  6  7  1  0
  7  8  1  0
  8  9  2  0
  9 10  1  0
 10 11  2  0
 11 12  1  0
 12 13  2  0
 13 14  1  0
 11 15  1  0
 10 16  1  0
  9 17  1  0
  7 18  1  0
  7 19  1  0
  6 20  1  0
 20 21  2  0
 21 22  1  0
 22 23  2  0
 23 24  1  0
 24 25  1  0
 25 26  1  0
 26 27  1  0
 27 28  1  0
 28 29  2  0
 29 30  1  0
 30 31  1  0
 29 32  1  0
 27 33  1  0
 27 34  1  0
 26 35  1  0
 26 36  1  0
 25 37  1  0
 25 38  1  0
 24 39  1  0
 24 40  1  0
  3 41  1  0
  3 42  1  0
  2 43  1  0
  2 44  1  0
 21  4  1  0
 30 22  1  0
 13  8  1  0
 28 23  1  0
M  END
>  <cnnaffinity>  (1) 
-5.7037

>  <filename>  (1) 
[H]c1nc([H])c(C([H])([H])c2nc(-c3c4c(c([H])n3[H])C([H])([H])C([H])([H])C([H])([H])C4([H])[H])n(C([H])([H])C([H])([H])F)n2)c([H])c1[H]

$$$$
