
     RDKit          3D

 35 36  0  0  0  0  0  0  0  0999 V2000
    6.9254   -0.4724   22.3981 C   0  0  0  0  0  0  0  0  0  0  0  0
    7.4956   -0.6591   21.0059 C   0  0  0  0  0  0  0  0  0  0  0  0
    8.9743   -0.2826   20.9602 C   0  0  0  0  0  0  0  0  0  0  0  0
    9.4824   -0.6375   21.8600 H   0  0  0  0  0  0  0  0  0  0  0  0
    9.0778    0.8020   20.9152 H   0  0  0  0  0  0  0  0  0  0  0  0
    9.4841   -0.7274   20.0994 H   0  0  0  0  0  0  0  0  0  0  0  0
    7.3379   -2.2039   20.6199 N   0  0  0  0  0  4  0  0  0  0  0  0
    7.8677   -3.2288   21.5790 C   0  0  0  0  0  0  0  0  0  0  0  0
    6.8546   -3.8623   22.5489 C   0  0  0  0  0  0  0  0  0  0  0  0
    6.9276   -3.5334   23.8528 N   0  0  0  0  0  0  0  0  0  0  0  0
    5.9993   -4.0044   24.6988 C   0  0  0  0  0  0  0  0  0  0  0  0
    4.9943   -4.8883   24.3033 C   0  0  0  0  0  0  0  0  0  0  0  0
    4.9544   -5.2921   22.9599 C   0  0  0  0  0  0  0  0  0  0  0  0
    3.7668   -6.4088   22.3871 Cl  0  0  0  0  0  0  0  0  0  0  0  0
    5.8926   -4.7684   22.0710 C   0  0  0  0  0  0  0  0  0  0  0  0
    5.8751   -5.1008   20.7688 F   0  0  0  0  0  0  0  0  0  0  0  0
    4.2705   -5.2627   25.0192 H   0  0  0  0  0  0  0  0  0  0  0  0
    6.0509   -3.6386   25.7273 H   0  0  0  0  0  0  0  0  0  0  0  0
    8.3675   -4.0516   21.0557 H   0  0  0  0  0  0  0  0  0  0  0  0
    8.6091   -2.7664   22.2359 H   0  0  0  0  0  0  0  0  0  0  0  0
    6.3045   -2.2968   20.4915 H   0  0  0  0  0  0  0  0  0  0  0  0
    7.7617   -2.2323   19.6729 H   0  0  0  0  0  0  0  0  0  0  0  0
    6.6721   -0.0022   19.9195 C   0  0  0  0  0  0  0  0  0  0  0  0
    5.4371    0.6386   20.1449 C   0  0  0  0  0  0  0  0  0  0  0  0
    4.7986    1.2903   19.0888 C   0  0  0  0  0  0  0  0  0  0  0  0
    5.4021    1.2669   17.8294 C   0  0  0  0  0  0  0  0  0  0  0  0
    6.5526    0.6291   17.5771 N   0  0  0  0  0  0  0  0  0  0  0  0
    7.1613    0.0200   18.6006 C   0  0  0  0  0  0  0  0  0  0  0  0
    8.1157   -0.4471   18.3434 H   0  0  0  0  0  0  0  0  0  0  0  0
    4.9591    1.7979   16.9869 H   0  0  0  0  0  0  0  0  0  0  0  0
    3.8766    1.8447   19.2378 H   0  0  0  0  0  0  0  0  0  0  0  0
    4.9846    0.6454   21.1385 H   0  0  0  0  0  0  0  0  0  0  0  0
    6.8136    0.5846   22.6328 H   0  0  0  0  0  0  0  0  0  0  0  0
    7.5740   -0.9229   23.1503 H   0  0  0  0  0  0  0  0  0  0  0  0
    5.9622   -0.9799   22.4307 H   0  0  0  0  0  0  0  0  0  0  0  0
  1  2  1  0
  2  3  1  0
  3  4  1  0
  3  5  1  0
  3  6  1  0
  2  7  1  0
  7  8  1  0
  8  9  1  0
  9 10  2  0
 10 11  1  0
 11 12  2  0
 12 13  1  0
 13 14  1  0
 13 15  2  0
 15 16  1  0
 12 17  1  0
 11 18  1  0
  8 19  1  0
  8 20  1  0
  7 21  1  0
  7 22  1  0
  2 23  1  0
 23 24  2  0
 24 25  1  0
 25 26  2  0
 26 27  1  0
 27 28  2  0
 28 29  1  0
 26 30  1  0
 25 31  1  0
 24 32  1  0
  1 33  1  0
  1 34  1  0
  1 35  1  0
 15  9  1  0
 28 23  1  0
M  CHG  1   7   1
M  END
>  <cnnaffinity>  (1) 
-5.33127

>  <filename>  (1) 
[H]c1nc([H])c(C(C([H])([H])[H])(C([H])([H])[H])[N+]([H])([H])C([H])([H])c2nc([H])c([H])c(Cl)c2F)c([H])c1[H]

$$$$
