
     RDKit          3D

 41 43  0  0  0  0  0  0  0  0999 V2000
    4.9490    1.7984   17.0538 H   0  0  0  0  0  0  0  0  0  0  0  0
    5.4440    1.2868   17.8736 C   0  0  0  0  0  0  0  0  0  0  0  0
    6.6140    0.6892   17.5804 N   0  0  0  0  0  0  0  0  0  0  0  0
    7.2415    0.0492   18.5767 C   0  0  0  0  0  0  0  0  0  0  0  0
    8.1817   -0.4405   18.3137 H   0  0  0  0  0  0  0  0  0  0  0  0
    6.7583   -0.0376   19.9104 C   0  0  0  0  0  0  0  0  0  0  0  0
    7.4324   -0.7668   20.8874 N   0  0  0  0  0  0  0  0  0  0  0  0
    8.3607   -1.0688   20.6272 H   0  0  0  0  0  0  0  0  0  0  0  0
    7.2989   -0.6292   22.3083 C   0  0  0  0  0  0  0  0  0  0  0  0
    7.3681    0.7668   22.9215 C   0  0  0  0  0  0  0  0  0  0  0  0
    6.5239    1.3777   22.5909 H   0  0  0  0  0  0  0  0  0  0  0  0
    7.2703    0.6757   24.0100 H   0  0  0  0  0  0  0  0  0  0  0  0
    8.6741    1.5192   22.6483 C   0  0  0  0  0  0  0  0  0  0  0  0
    8.6089    2.5278   23.0972 H   0  0  0  0  0  0  0  0  0  0  0  0
    8.7875    1.6831   21.5683 H   0  0  0  0  0  0  0  0  0  0  0  0
    9.8236    0.7962   23.1582 N   0  0  0  0  0  0  0  0  0  0  0  0
   10.0873    0.7901   24.5864 C   0  0  0  0  0  0  0  0  0  0  0  0
    9.2764    0.3089   25.1555 H   0  0  0  0  0  0  0  0  0  0  0  0
   10.2127    1.8025   25.0130 H   0  0  0  0  0  0  0  0  0  0  0  0
   11.3803   -0.0108   24.6951 C   0  0  0  0  0  0  0  0  0  0  0  0
   11.1100   -1.0710   24.7419 H   0  0  0  0  0  0  0  0  0  0  0  0
   11.9524    0.2238   25.5976 H   0  0  0  0  0  0  0  0  0  0  0  0
   12.1382    0.3381   23.4058 C   0  0  0  0  0  0  0  0  0  0  0  0
   12.7589    1.2292   23.5660 H   0  0  0  0  0  0  0  0  0  0  0  0
   12.8181   -0.4626   23.0802 H   0  0  0  0  0  0  0  0  0  0  0  0
   11.0386    0.6580   22.3609 C   0  0  1  0  0  0  0  0  0  0  0  0
   11.2862    1.6018   21.8385 H   0  0  0  0  0  0  0  0  0  0  0  0
   10.8458   -0.4355   21.3075 C   0  0  0  0  0  0  0  0  0  0  0  0
   10.5544   -1.3760   21.7834 H   0  0  0  0  0  0  0  0  0  0  0  0
   10.0504   -0.1420   20.6154 H   0  0  0  0  0  0  0  0  0  0  0  0
   11.7516   -0.6139   20.7192 H   0  0  0  0  0  0  0  0  0  0  0  0
    8.0026   -1.7684   22.9817 C   0  0  0  0  0  0  0  0  0  0  0  0
    8.5767   -1.5449   23.8658 H   0  0  0  0  0  0  0  0  0  0  0  0
    8.4393   -2.5150   22.3261 H   0  0  0  0  0  0  0  0  0  0  0  0
    6.5072   -1.6910   23.0243 C   0  0  0  0  0  0  0  0  0  0  0  0
    5.9394   -2.3892   22.4126 H   0  0  0  0  0  0  0  0  0  0  0  0
    6.0549   -1.4181   23.9712 H   0  0  0  0  0  0  0  0  0  0  0  0
    5.5276    0.5737   20.1786 C   0  0  0  0  0  0  0  0  0  0  0  0
    5.1194    0.5047   21.1852 H   0  0  0  0  0  0  0  0  0  0  0  0
    4.8693    1.2507   19.1500 C   0  0  0  0  0  0  0  0  0  0  0  0
    3.9276    1.7567   19.3354 H   0  0  0  0  0  0  0  0  0  0  0  0
  1  2  1  0
  2  3  2  0
  3  4  1  0
  4  5  1  0
  4  6  2  0
  6  7  1  0
  7  8  1  0
  7  9  1  0
  9 10  1  0
 10 11  1  0
 10 12  1  0
 10 13  1  0
 13 14  1  0
 13 15  1  0
 13 16  1  0
 16 17  1  0
 17 18  1  0
 17 19  1  0
 17 20  1  0
 20 21  1  0
 20 22  1  0
 20 23  1  0
 23 24  1  0
 23 25  1  0
 23 26  1  0
 26 27  1  6
 26 28  1  0
 28 29  1  0
 28 30  1  0
 28 31  1  0
  9 32  1  0
 32 33  1  0
 32 34  1  0
 32 35  1  0
 35 36  1  0
 35 37  1  0
  6 38  1  0
 38 39  1  0
 38 40  2  0
 40 41  1  0
 40  2  1  0
 35  9  1  0
 26 16  1  0
M  END
>  <cnnaffinity>  (1) 
-5.06923

>  <filename>  (1) 
[H]c1nc([H])c(N([H])C2(C([H])([H])C([H])([H])N3C([H])([H])C([H])([H])C([H])([H])[C@@]3([H])C([H])([H])[H])C([H])([H])C2([H])[H])c([H])c1[H]

$$$$
