
     RDKit          3D

 33 35  0  0  0  0  0  0  0  0999 V2000
    8.2050   -4.5242   24.6164 H   0  0  0  0  0  0  0  0  0  0  0  0
    7.4648   -4.2219   23.8735 C   0  0  0  0  0  0  0  0  0  0  0  0
    6.2679   -4.7668   24.0245 N   0  0  0  0  0  0  0  0  0  0  0  0
    5.3823   -4.4152   23.0917 C   0  0  0  0  0  0  0  0  0  0  0  0
    4.1953   -4.9551   23.2838 N   0  0  0  0  0  0  0  0  0  0  0  0
    3.4489   -4.6392   22.7071 H   0  0  0  0  0  0  0  0  0  0  0  0
    4.1562   -5.4346   24.1608 H   0  0  0  0  0  0  0  0  0  0  0  0
    5.5289   -3.6473   22.0361 N   0  0  0  0  0  0  0  0  0  0  0  0
    6.7332   -3.0893   21.9831 C   0  0  0  0  0  0  0  0  0  0  0  0
    6.8194   -2.2474   20.9322 N   0  0  0  0  0  0  0  0  0  0  0  0
    5.8790   -2.3132   20.5717 H   0  0  0  0  0  0  0  0  0  0  0  0
    7.3118   -0.8848   21.0291 C   0  0  0  0  0  0  0  0  0  0  0  0
    6.6062   -0.1069   19.9470 C   0  0  0  0  0  0  0  0  0  0  0  0
    7.1226   -0.0951   18.6452 C   0  0  0  0  0  0  0  0  0  0  0  0
    8.0646   -0.6003   18.4342 H   0  0  0  0  0  0  0  0  0  0  0  0
    6.5721    0.5600   17.6164 N   0  0  0  0  0  0  0  0  0  0  0  0
    5.4389    1.2345   17.8540 C   0  0  0  0  0  0  0  0  0  0  0  0
    5.0158    1.7819   17.0132 H   0  0  0  0  0  0  0  0  0  0  0  0
    4.8123    1.2617   19.1043 C   0  0  0  0  0  0  0  0  0  0  0  0
    3.9001    1.8292   19.2396 H   0  0  0  0  0  0  0  0  0  0  0  0
    5.3992    0.5745   20.1647 C   0  0  0  0  0  0  0  0  0  0  0  0
    4.9451    0.5795   21.1590 H   0  0  0  0  0  0  0  0  0  0  0  0
    7.3158   -0.1728   22.4256 C   0  0  0  0  0  0  0  0  0  0  0  0
    6.8186   -0.6897   23.2542 H   0  0  0  0  0  0  0  0  0  0  0  0
    6.8986    0.8330   22.3558 H   0  0  0  0  0  0  0  0  0  0  0  0
    8.8625   -0.1599   22.4228 C   0  0  0  0  0  0  0  0  0  0  0  0
    9.3296   -0.7540   23.2136 H   0  0  0  0  0  0  0  0  0  0  0  0
    9.3029    0.8418   22.4458 H   0  0  0  0  0  0  0  0  0  0  0  0
    8.8600   -0.8088   21.0208 C   0  0  0  0  0  0  0  0  0  0  0  0
    9.2430   -0.1295   20.2564 H   0  0  0  0  0  0  0  0  0  0  0  0
    9.3568   -1.7785   20.9143 H   0  0  0  0  0  0  0  0  0  0  0  0
    7.7793   -3.3400   22.8576 C   0  0  0  0  0  0  0  0  0  0  0  0
    8.7423   -2.8752   22.7493 H   0  0  0  0  0  0  0  0  0  0  0  0
  1  2  1  0
  2  3  2  0
  3  4  1  0
  4  5  1  0
  5  6  1  0
  5  7  1  0
  4  8  2  0
  8  9  1  0
  9 10  1  0
 10 11  1  0
 10 12  1  0
 12 13  1  0
 13 14  2  0
 14 15  1  0
 14 16  1  0
 16 17  2  0
 17 18  1  0
 17 19  1  0
 19 20  1  0
 19 21  2  0
 21 22  1  0
 12 23  1  0
 23 24  1  0
 23 25  1  0
 23 26  1  0
 26 27  1  0
 26 28  1  0
 26 29  1  0
 29 30  1  0
 29 31  1  0
  9 32  2  0
 32 33  1  0
 32  2  1  0
 29 12  1  0
 21 13  1  0
M  END
>  <cnnaffinity>  (1) 
-4.85695

>  <filename>  (1) 
[H]c1nc(N([H])[H])nc(N([H])C2(c3c([H])nc([H])c([H])c3[H])C([H])([H])C([H])([H])C2([H])[H])c1[H]

$$$$
