
     RDKit          3D

 39 42  0  0  0  0  0  0  0  0999 V2000
    7.7233   -0.7387   26.2213 F   0  0  0  0  0  0  0  0  0  0  0  0
    7.3541   -0.3586   24.9381 C   0  0  0  0  0  0  0  0  0  0  0  0
    7.1330   -1.6198   24.1022 C   0  0  0  0  0  0  0  0  0  0  0  0
    7.3478   -1.3581   22.6914 N   0  0  0  0  0  0  0  0  0  0  0  0
    6.4576   -0.5990   22.0200 N   0  0  0  0  0  0  0  0  0  0  0  0
    6.9327   -0.6080   20.7917 C   0  0  0  0  0  0  0  0  0  0  0  0
    6.3141    0.1162   19.6949 C   0  0  0  0  0  0  0  0  0  0  0  0
    5.1275    0.8523   19.8386 C   0  0  0  0  0  0  0  0  0  0  0  0
    4.6543    1.5290   18.7206 C   0  0  0  0  0  0  0  0  0  0  0  0
    5.3788    1.4525   17.5228 C   0  0  0  0  0  0  0  0  0  0  0  0
    6.5124    0.7490   17.3821 N   0  0  0  0  0  0  0  0  0  0  0  0
    6.9655    0.0973   18.4559 C   0  0  0  0  0  0  0  0  0  0  0  0
    7.8907   -0.4641   18.3359 H   0  0  0  0  0  0  0  0  0  0  0  0
    5.0316    1.9768   16.6371 H   0  0  0  0  0  0  0  0  0  0  0  0
    3.7508    2.1252   18.7654 H   0  0  0  0  0  0  0  0  0  0  0  0
    4.6165    0.8981   20.8057 H   0  0  0  0  0  0  0  0  0  0  0  0
    8.0861   -1.3129   20.6329 N   0  0  0  0  0  0  0  0  0  0  0  0
    8.3391   -1.7357   21.8531 C   0  0  0  0  0  0  0  0  0  0  0  0
    9.5858   -2.4143   22.3422 C   0  0  0  0  0  0  0  0  0  0  0  0
   10.3893   -1.5584   23.2863 C   0  0  0  0  0  0  0  0  0  0  0  0
   10.4182   -1.6187   24.6332 C   0  0  0  0  0  0  0  0  0  0  0  0
   11.1536   -0.6065   25.1938 O   0  0  0  0  0  0  0  0  0  0  0  0
   11.5911    0.1574   24.1609 C   0  0  0  0  0  0  0  0  0  0  0  0
   12.3282    1.3412   24.2629 C   0  0  0  0  0  0  0  0  0  0  0  0
   12.5785    2.0001   23.0672 C   0  0  0  0  0  0  0  0  0  0  0  0
   13.2492    3.1639   23.0985 F   0  0  0  0  0  0  0  0  0  0  0  0
   12.1209    1.5268   21.8211 C   0  0  0  0  0  0  0  0  0  0  0  0
   11.4010    0.3360   21.7571 C   0  0  0  0  0  0  0  0  0  0  0  0
   11.1349   -0.3699   22.9442 C   0  0  0  0  0  0  0  0  0  0  0  0
   11.0252   -0.0633   20.8200 H   0  0  0  0  0  0  0  0  0  0  0  0
   12.3188    2.1254   20.9374 H   0  0  0  0  0  0  0  0  0  0  0  0
   12.6449    1.7518   25.2068 H   0  0  0  0  0  0  0  0  0  0  0  0
    9.9604   -2.3065   25.3319 H   0  0  0  0  0  0  0  0  0  0  0  0
    9.3261   -3.3536   22.8420 H   0  0  0  0  0  0  0  0  0  0  0  0
   10.1651   -2.6753   21.4540 H   0  0  0  0  0  0  0  0  0  0  0  0
    6.1188   -2.0089   24.2244 H   0  0  0  0  0  0  0  0  0  0  0  0
    7.8209   -2.4002   24.4311 H   0  0  0  0  0  0  0  0  0  0  0  0
    6.4434    0.2426   25.0043 H   0  0  0  0  0  0  0  0  0  0  0  0
    8.1585    0.2583   24.5192 H   0  0  0  0  0  0  0  0  0  0  0  0
  1  2  1  0
  2  3  1  0
  3  4  1  0
  4  5  1  0
  5  6  2  0
  6  7  1  0
  7  8  2  0
  8  9  1  0
  9 10  2  0
 10 11  1  0
 11 12  2  0
 12 13  1  0
 10 14  1  0
  9 15  1  0
  8 16  1  0
  6 17  1  0
 17 18  2  0
 18 19  1  0
 19 20  1  0
 20 21  2  0
 21 22  1  0
 22 23  1  0
 23 24  2  0
 24 25  1  0
 25 26  1  0
 25 27  2  0
 27 28  1  0
 28 29  2  0
 28 30  1  0
 27 31  1  0
 24 32  1  0
 21 33  1  0
 19 34  1  0
 19 35  1  0
  3 36  1  0
  3 37  1  0
  2 38  1  0
  2 39  1  0
 18  4  1  0
 29 20  1  0
 12  7  1  0
 29 23  1  0
M  END
>  <cnnaffinity>  (1) 
-5.61767

>  <filename>  (1) 
[H]c1nc([H])c(-c2nc(C([H])([H])c3c([H])oc4c([H])c(F)c([H])c([H])c34)n(C([H])([H])C([H])([H])F)n2)c([H])c1[H]

$$$$
