
     RDKit          3D

 43 44  0  0  0  0  0  0  0  0999 V2000
    8.0175   -5.7678   25.7060 C   0  0  0  0  0  0  0  0  0  0  0  0
    9.2333   -5.4458   24.4082 S   0  0  0  0  0  0  0  0  0  0  0  0
    9.0602   -3.6602   24.1668 C   0  0  0  0  0  0  0  0  0  0  0  0
    7.8523   -3.2586   23.3057 C   0  0  0  0  0  0  0  0  0  0  0  0
    7.8077   -1.7506   22.9838 C   0  0  0  0  0  0  0  0  0  0  0  0
    7.2971   -1.0667   24.1992 N   0  0  0  0  0  0  0  0  0  0  0  0
    7.7922    0.3010   24.9662 S   0  0  0  0  0  0  0  0  0  0  0  0
    9.2265    0.3290   25.1296 O   0  0  0  0  0  0  0  0  0  0  0  0
    6.8809    0.2701   26.0965 O   0  0  0  0  0  0  0  0  0  0  0  0
    7.2894    1.5001   23.8027 C   0  0  0  0  0  0  0  0  0  0  0  0
    6.0129    2.0780   23.7823 C   0  0  0  0  0  0  0  0  0  0  0  0
    5.7060    3.0102   22.7886 C   0  0  0  0  0  0  0  0  0  0  0  0
    6.6494    3.3686   21.8170 C   0  0  0  0  0  0  0  0  0  0  0  0
    7.9085    2.7616   21.8252 C   0  0  0  0  0  0  0  0  0  0  0  0
    8.1910    1.7972   22.7881 C   0  0  0  0  0  0  0  0  0  0  0  0
    9.3205    1.0943   22.6537 F   0  0  0  0  0  0  0  0  0  0  0  0
    8.6783    3.0052   21.1004 H   0  0  0  0  0  0  0  0  0  0  0  0
    6.4020    4.1214   21.0682 H   0  0  0  0  0  0  0  0  0  0  0  0
    4.7209    3.4650   22.7636 H   0  0  0  0  0  0  0  0  0  0  0  0
    5.2552    1.8192   24.5225 H   0  0  0  0  0  0  0  0  0  0  0  0
    6.8704   -1.5260   24.9926 H   0  0  0  0  0  0  0  0  0  0  0  0
    6.9494   -1.5063   21.6442 C   0  0  0  0  0  0  0  0  0  0  0  0
    5.9047   -2.0814   21.4143 O   0  0  0  0  0  0  0  0  0  0  0  0
    7.5215   -0.6333   20.7221 N   0  0  0  0  0  0  0  0  0  0  0  0
    6.7662    0.0249   19.6863 C   0  0  0  0  0  0  0  0  0  0  0  0
    5.5384    0.6197   19.9862 C   0  0  0  0  0  0  0  0  0  0  0  0
    4.8760    1.3416   18.9852 C   0  0  0  0  0  0  0  0  0  0  0  0
    5.4466    1.4141   17.7102 C   0  0  0  0  0  0  0  0  0  0  0  0
    6.6104    0.8216   17.3934 N   0  0  0  0  0  0  0  0  0  0  0  0
    7.2539    0.1589   18.3663 C   0  0  0  0  0  0  0  0  0  0  0  0
    8.2089   -0.2861   18.0934 H   0  0  0  0  0  0  0  0  0  0  0  0
    4.9515    1.9746   16.9189 H   0  0  0  0  0  0  0  0  0  0  0  0
    3.9370    1.8485   19.1892 H   0  0  0  0  0  0  0  0  0  0  0  0
    5.1404    0.5212   20.9982 H   0  0  0  0  0  0  0  0  0  0  0  0
    8.3410   -0.1387   21.0357 H   0  0  0  0  0  0  0  0  0  0  0  0
    8.8268   -1.3907   22.7668 H   0  0  0  0  0  0  0  0  0  0  0  0
    6.9145   -3.5347   23.8098 H   0  0  0  0  0  0  0  0  0  0  0  0
    7.8650   -3.8413   22.3791 H   0  0  0  0  0  0  0  0  0  0  0  0
    9.9941   -3.3660   23.6677 H   0  0  0  0  0  0  0  0  0  0  0  0
    9.0418   -3.1612   25.1471 H   0  0  0  0  0  0  0  0  0  0  0  0
    8.1004   -6.8324   25.9394 H   0  0  0  0  0  0  0  0  0  0  0  0
    8.2377   -5.2019   26.6182 H   0  0  0  0  0  0  0  0  0  0  0  0
    6.9931   -5.5601   25.3793 H   0  0  0  0  0  0  0  0  0  0  0  0
  1  2  1  0
  2  3  1  0
  3  4  1  0
  4  5  1  0
  5  6  1  0
  6  7  1  0
  7  8  2  0
  7  9  2  0
  7 10  1  0
 10 11  2  0
 11 12  1  0
 12 13  2  0
 13 14  1  0
 14 15  2  0
 15 16  1  0
 14 17  1  0
 13 18  1  0
 12 19  1  0
 11 20  1  0
  6 21  1  0
  5 22  1  0
 22 23  2  0
 22 24  1  0
 24 25  1  0
 25 26  2  0
 26 27  1  0
 27 28  2  0
 28 29  1  0
 29 30  2  0
 30 31  1  0
 28 32  1  0
 27 33  1  0
 26 34  1  0
 24 35  1  0
  5 36  1  0
  4 37  1  0
  4 38  1  0
  3 39  1  0
  3 40  1  0
  1 41  1  0
  1 42  1  0
  1 43  1  0
 15 10  1  0
 30 25  1  0
M  END
>  <cnnaffinity>  (1) 
-5.6956

>  <filename>  (1) 
[H]c1nc([H])c(N([H])C(=O)C([H])(N([H])S(=O)(=O)c2c([H])c([H])c([H])c([H])c2F)C([H])([H])C([H])([H])SC([H])([H])[H])c([H])c1[H]

$$$$
