
     RDKit          3D

 23 24  0  0  0  0  0  0  0  0999 V2000
    6.1453   -2.4667   20.2227 H   0  0  0  0  0  0  0  0  0  0  0  0
    6.8982   -2.1893   20.9554 C   0  0  0  0  0  0  0  0  0  0  0  0
    7.3650   -3.1181   21.8096 C   0  0  0  0  0  0  0  0  0  0  0  0
    8.5436   -2.8528   23.0959 S   0  0  0  0  0  0  0  0  0  0  0  0
    8.3273   -4.4824   23.7257 C   0  0  0  0  0  0  0  0  0  0  0  0
    8.9597   -5.0921   25.1019 S   0  0  0  0  0  0  0  0  0  0  0  0
    7.5269   -5.1843   22.8797 N   0  0  0  0  0  0  0  0  0  0  0  0
    7.2468   -6.1305   23.0646 H   0  0  0  0  0  0  0  0  0  0  0  0
    6.8941   -4.5374   21.8460 C   0  0  0  0  0  0  0  0  0  0  0  0
    6.0884   -5.0941   21.1368 O   0  0  0  0  0  0  0  0  0  0  0  0
    7.3662   -0.7521   20.9600 C   0  0  0  0  0  0  0  0  0  0  0  0
    7.1594   -0.1963   22.1938 F   0  0  0  0  0  0  0  0  0  0  0  0
    8.7203   -0.7068   20.7642 F   0  0  0  0  0  0  0  0  0  0  0  0
    6.6622    0.0625   19.9055 C   0  0  0  0  0  0  0  0  0  0  0  0
    7.1752    0.0757   18.6062 C   0  0  0  0  0  0  0  0  0  0  0  0
    8.1181   -0.4181   18.3803 H   0  0  0  0  0  0  0  0  0  0  0  0
    6.5611    0.6709   17.5807 N   0  0  0  0  0  0  0  0  0  0  0  0
    5.3992    1.2897   17.8306 C   0  0  0  0  0  0  0  0  0  0  0  0
    4.9328    1.7864   16.9811 H   0  0  0  0  0  0  0  0  0  0  0  0
    4.7974    1.3168   19.0937 C   0  0  0  0  0  0  0  0  0  0  0  0
    3.8632    1.8466   19.2335 H   0  0  0  0  0  0  0  0  0  0  0  0
    5.4325    0.6786   20.1574 C   0  0  0  0  0  0  0  0  0  0  0  0
    4.9944    0.6605   21.1590 H   0  0  0  0  0  0  0  0  0  0  0  0
  1  2  1  0
  2  3  2  3
  3  4  1  0
  4  5  1  0
  5  6  2  0
  5  7  1  0
  7  8  1  0
  7  9  1  0
  9 10  2  0
  2 11  1  0
 11 12  1  0
 11 13  1  0
 11 14  1  0
 14 15  2  0
 15 16  1  0
 15 17  1  0
 17 18  2  0
 18 19  1  0
 18 20  1  0
 20 21  1  0
 20 22  2  0
 22 23  1  0
  9  3  1  0
 22 14  1  0
M  END
>  <cnnaffinity>  (1) 
-4.75996

>  <filename>  (1) 
[H]C(=C1SC(=S)N([H])C1=O)C(F)(F)c1c([H])nc([H])c([H])c1[H]

$$$$
