
     RDKit          3D

 38 40  0  0  0  0  0  0  0  0999 V2000
    7.8366   -4.3637   24.3222 F   0  0  0  0  0  0  0  0  0  0  0  0
    8.4285   -3.1680   24.1047 C   0  0  0  0  0  0  0  0  0  0  0  0
    8.5491   -3.0472   22.7766 F   0  0  0  0  0  0  0  0  0  0  0  0
    9.6780   -3.2470   24.6237 F   0  0  0  0  0  0  0  0  0  0  0  0
    7.6576   -2.0794   24.7466 C   0  0  0  0  0  0  0  0  0  0  0  0
    6.8589   -2.3257   25.8679 C   0  0  0  0  0  0  0  0  0  0  0  0
    6.1427   -1.2585   26.4029 C   0  0  0  0  0  0  0  0  0  0  0  0
    6.2402   -0.0142   25.7810 C   0  0  0  0  0  0  0  0  0  0  0  0
    6.9892    0.2132   24.6997 N   0  0  0  0  0  0  0  0  0  0  0  0
    7.7361   -0.7787   24.2177 C   0  0  0  0  0  0  0  0  0  0  0  0
    8.5731   -0.4663   23.1591 N   0  0  0  0  0  0  0  0  0  0  0  0
   10.0234   -0.3800   23.3129 C   0  0  0  0  0  0  0  0  0  0  0  0
   10.4943    0.2369   21.9809 C   0  0  0  0  0  0  0  0  0  0  0  0
    9.2664    0.9758   21.4195 C   0  0  0  0  0  0  0  0  0  0  0  0
    8.0386    0.2626   22.0116 C   0  0  0  0  0  0  0  0  0  0  0  0
    7.3710   -0.7221   21.0190 C   0  0  0  0  0  0  0  0  0  0  0  0
    6.6412   -0.0294   19.8798 C   0  0  0  0  0  0  0  0  0  0  0  0
    5.4356    0.6439   20.1241 C   0  0  0  0  0  0  0  0  0  0  0  0
    4.7921    1.3132   19.0795 C   0  0  0  0  0  0  0  0  0  0  0  0
    5.3857    1.3051   17.8133 C   0  0  0  0  0  0  0  0  0  0  0  0
    6.5432    0.6813   17.5535 N   0  0  0  0  0  0  0  0  0  0  0  0
    7.1487    0.0455   18.5682 C   0  0  0  0  0  0  0  0  0  0  0  0
    8.1024   -0.4204   18.3116 H   0  0  0  0  0  0  0  0  0  0  0  0
    4.9200    1.8212   16.9732 H   0  0  0  0  0  0  0  0  0  0  0  0
    3.8652    1.8539   19.2300 H   0  0  0  0  0  0  0  0  0  0  0  0
    5.0250    0.6479   21.1370 H   0  0  0  0  0  0  0  0  0  0  0  0
    6.6751   -1.3376   21.6019 H   0  0  0  0  0  0  0  0  0  0  0  0
    8.1477   -1.4008   20.6456 H   0  0  0  0  0  0  0  0  0  0  0  0
    7.2777    0.9932   22.3348 H   0  0  0  0  0  0  0  0  0  0  0  0
    9.2365    0.9410   20.3241 H   0  0  0  0  0  0  0  0  0  0  0  0
    9.2581    2.0339   21.7024 H   0  0  0  0  0  0  0  0  0  0  0  0
   11.3429    0.9153   22.1250 H   0  0  0  0  0  0  0  0  0  0  0  0
   10.8219   -0.5482   21.2894 H   0  0  0  0  0  0  0  0  0  0  0  0
   10.3091    0.2660   24.1624 H   0  0  0  0  0  0  0  0  0  0  0  0
   10.4575   -1.3690   23.5088 H   0  0  0  0  0  0  0  0  0  0  0  0
    5.6918    0.8487   26.1653 H   0  0  0  0  0  0  0  0  0  0  0  0
    5.4994   -1.3756   27.2634 H   0  0  0  0  0  0  0  0  0  0  0  0
    6.7844   -3.3295   26.2920 H   0  0  0  0  0  0  0  0  0  0  0  0
  1  2  1  0
  2  3  1  0
  2  4  1  0
  2  5  1  0
  5  6  2  0
  6  7  1  0
  7  8  2  0
  8  9  1  0
  9 10  2  0
 10 11  1  0
 11 12  1  0
 12 13  1  0
 13 14  1  0
 14 15  1  0
 15 16  1  0
 16 17  1  0
 17 18  2  0
 18 19  1  0
 19 20  2  0
 20 21  1  0
 21 22  2  0
 22 23  1  0
 20 24  1  0
 19 25  1  0
 18 26  1  0
 16 27  1  0
 16 28  1  0
 15 29  1  0
 14 30  1  0
 14 31  1  0
 13 32  1  0
 13 33  1  0
 12 34  1  0
 12 35  1  0
  8 36  1  0
  7 37  1  0
  6 38  1  0
 10  5  1  0
 15 11  1  0
 22 17  1  0
M  END
>  <cnnaffinity>  (1) 
-5.34781

>  <filename>  (1) 
[H]c1nc(N2C([H])([H])C([H])([H])C([H])([H])C2([H])C([H])([H])c2c([H])nc([H])c([H])c2[H])c(C(F)(F)F)c([H])c1[H]

$$$$
