
     RDKit          3D

 46 49  0  0  0  0  0  0  0  0999 V2000
    4.9978    1.7392   16.9503 H   0  0  0  0  0  0  0  0  0  0  0  0
    5.4904    1.3280   17.8304 C   0  0  0  0  0  0  0  0  0  0  0  0
    6.6751    0.7412   17.6196 N   0  0  0  0  0  0  0  0  0  0  0  0
    7.2947    0.2131   18.6845 C   0  0  0  0  0  0  0  0  0  0  0  0
    8.2484   -0.2639   18.4717 H   0  0  0  0  0  0  0  0  0  0  0  0
    6.7994    0.2187   20.0031 C   0  0  0  0  0  0  0  0  0  0  0  0
    7.5881   -0.4040   21.1745 C   0  0  2  0  0  0  0  0  0  0  0  0
    8.2980    0.7292   21.9841 C   0  0  0  0  0  0  0  0  0  0  0  0
    8.6851    0.2974   22.9152 H   0  0  0  0  0  0  0  0  0  0  0  0
    7.5445    1.4860   22.2762 H   0  0  0  0  0  0  0  0  0  0  0  0
    9.4396    1.3154   21.2776 N   0  0  0  0  0  0  0  0  0  0  0  0
    9.0947    2.0024   20.6114 H   0  0  0  0  0  0  0  0  0  0  0  0
   10.4114    1.9956   22.1287 C   0  0  0  0  0  0  0  0  0  0  0  0
   10.7200    1.3053   22.9342 H   0  0  0  0  0  0  0  0  0  0  0  0
   11.6630    2.3806   21.3350 C   0  0  0  0  0  0  0  0  0  0  0  0
   11.3605    2.6208   20.3095 H   0  0  0  0  0  0  0  0  0  0  0  0
   12.3478    1.5256   21.2876 H   0  0  0  0  0  0  0  0  0  0  0  0
   12.2688    3.6335   22.0206 C   0  0  0  0  0  0  0  0  0  0  0  0
   12.4196    4.4320   21.2844 H   0  0  0  0  0  0  0  0  0  0  0  0
   13.2516    3.4333   22.4599 H   0  0  0  0  0  0  0  0  0  0  0  0
   11.2513    4.0412   23.1169 C   0  0  0  0  0  0  0  0  0  0  0  0
   11.1180    5.1254   23.2025 H   0  0  0  0  0  0  0  0  0  0  0  0
   11.6089    3.6847   24.0890 H   0  0  0  0  0  0  0  0  0  0  0  0
    9.9463    3.3098   22.7693 C   0  0  0  0  0  0  0  0  0  0  0  0
    9.2995    3.1559   23.6406 H   0  0  0  0  0  0  0  0  0  0  0  0
    9.3449    3.8747   22.0451 H   0  0  0  0  0  0  0  0  0  0  0  0
    8.6184   -1.5354   20.7701 C   0  0  0  0  0  0  0  0  0  0  0  0
    8.7045   -1.6747   19.6893 H   0  0  0  0  0  0  0  0  0  0  0  0
    9.6238   -1.2669   21.1266 H   0  0  0  0  0  0  0  0  0  0  0  0
    8.1465   -2.8037   21.5209 C   0  0  2  0  0  0  0  0  0  0  0  0
    8.9403   -3.5525   21.5843 H   0  0  0  0  0  0  0  0  0  0  0  0
    6.8021   -3.3691   21.0063 C   0  0  0  0  0  0  0  0  0  0  0  0
    6.7417   -3.6325   19.9483 H   0  0  0  0  0  0  0  0  0  0  0  0
    6.5758   -4.2959   21.5498 H   0  0  0  0  0  0  0  0  0  0  0  0
    5.7960   -2.2505   21.3866 C   0  0  0  0  0  0  0  0  0  0  0  0
    4.9862   -2.6444   22.0082 H   0  0  0  0  0  0  0  0  0  0  0  0
    5.3472   -1.7995   20.4979 H   0  0  0  0  0  0  0  0  0  0  0  0
    6.6751   -1.2348   22.1654 C   0  0  1  0  0  0  0  0  0  0  0  0
    6.1149   -0.5784   22.8425 H   0  0  0  0  0  0  0  0  0  0  0  0
    7.6694   -2.1920   22.8507 C   0  0  0  0  0  0  0  0  0  0  0  0
    8.4673   -1.6966   23.4139 H   0  0  0  0  0  0  0  0  0  0  0  0
    7.1799   -2.9118   23.5230 H   0  0  0  0  0  0  0  0  0  0  0  0
    5.5541    0.8562   20.1941 C   0  0  0  0  0  0  0  0  0  0  0  0
    5.0851    0.8981   21.1778 H   0  0  0  0  0  0  0  0  0  0  0  0
    4.8878    1.4063   19.0893 C   0  0  0  0  0  0  0  0  0  0  0  0
    3.9217    1.8875   19.1921 H   0  0  0  0  0  0  0  0  0  0  0  0
  1  2  1  0
  2  3  2  0
  3  4  1  0
  4  5  1  0
  4  6  2  0
  6  7  1  0
  7  8  1  1
  8  9  1  0
  8 10  1  0
  8 11  1  0
 11 12  1  0
 11 13  1  0
 13 14  1  0
 13 15  1  0
 15 16  1  0
 15 17  1  0
 15 18  1  0
 18 19  1  0
 18 20  1  0
 18 21  1  0
 21 22  1  0
 21 23  1  0
 21 24  1  0
 24 25  1  0
 24 26  1  0
  7 27  1  0
 27 28  1  0
 27 29  1  0
 27 30  1  0
 30 31  1  1
 30 32  1  0
 32 33  1  0
 32 34  1  0
 32 35  1  0
 35 36  1  0
 35 37  1  0
 35 38  1  0
 38 39  1  1
 38 40  1  0
 40 41  1  0
 40 42  1  0
  6 43  1  0
 43 44  1  0
 43 45  2  0
 45 46  1  0
 45  2  1  0
 38  7  1  0
 24 13  1  0
 40 30  1  0
M  END
>  <cnnaffinity>  (1) 
-5.11225

>  <filename>  (1) 
[H]c1nc([H])c([C@]2(C([H])([H])N([H])C3([H])C([H])([H])C([H])([H])C([H])([H])C3([H])[H])C([H])([H])[C@]3([H])C([H])([H])C([H])([H])[C@@]2([H])C3([H])[H])c([H])c1[H]

$$$$
