
     RDKit          3D

 21 22  0  0  0  0  0  0  0  0999 V2000
    7.6426    0.8397   26.7508 Br  0  0  0  0  0  0  0  0  0  0  0  0
    7.5499    0.3447   24.8971 C   0  0  0  0  0  0  0  0  0  0  0  0
    7.1353    1.2563   23.9153 C   0  0  0  0  0  0  0  0  0  0  0  0
    7.0445    0.9460   22.6093 N   0  0  0  0  0  0  0  0  0  0  0  0
    7.3746   -0.3077   22.2260 C   0  0  0  0  0  0  0  0  0  0  0  0
    7.3756   -0.6872   20.8979 O   0  0  0  0  0  0  0  0  0  0  0  0
    6.6834    0.0161   19.9273 C   0  0  0  0  0  0  0  0  0  0  0  0
    5.4612    0.6550   20.1751 C   0  0  0  0  0  0  0  0  0  0  0  0
    4.8220    1.3083   19.1121 C   0  0  0  0  0  0  0  0  0  0  0  0
    5.3981    1.2972   17.8325 C   0  0  0  0  0  0  0  0  0  0  0  0
    6.5648    0.6764   17.5771 N   0  0  0  0  0  0  0  0  0  0  0  0
    7.1812    0.0570   18.6032 C   0  0  0  0  0  0  0  0  0  0  0  0
    8.1242   -0.4414   18.3985 H   0  0  0  0  0  0  0  0  0  0  0  0
    4.8876    1.7913   17.0126 H   0  0  0  0  0  0  0  0  0  0  0  0
    3.8820    1.8328   19.2625 H   0  0  0  0  0  0  0  0  0  0  0  0
    5.0182    0.6294   21.1709 H   0  0  0  0  0  0  0  0  0  0  0  0
    7.8157   -1.2727   23.1585 C   0  0  0  0  0  0  0  0  0  0  0  0
    8.3955   -3.3596   22.5262 I   0  0  0  0  0  0  0  0  0  0  0  0
    7.8974   -0.9424   24.5099 C   0  0  0  0  0  0  0  0  0  0  0  0
    8.2266   -1.6777   25.2429 H   0  0  0  0  0  0  0  0  0  0  0  0
    6.8742    2.2587   24.2347 H   0  0  0  0  0  0  0  0  0  0  0  0
  1  2  1  0
  2  3  2  0
  3  4  1  0
  4  5  2  0
  5  6  1  0
  6  7  1  0
  7  8  2  0
  8  9  1  0
  9 10  2  0
 10 11  1  0
 11 12  2  0
 12 13  1  0
 10 14  1  0
  9 15  1  0
  8 16  1  0
  5 17  1  0
 17 18  1  0
 17 19  2  0
 19 20  1  0
  3 21  1  0
 19  2  1  0
 12  7  1  0
M  END
>  <cnnaffinity>  (1) 
-4.898

>  <filename>  (1) 
[H]c1nc([H])c(Oc2nc([H])c(Br)c([H])c2I)c([H])c1[H]

$$$$
