
     RDKit          3D

 50 54  0  0  0  0  0  0  0  0999 V2000
   11.3060    5.5148   23.8365 C   0  0  0  0  0  0  0  0  0  0  0  0
   10.0511    5.9562   24.4026 N   0  0  0  0  0  0  0  0  0  0  0  0
    9.8863    7.0406   25.2248 C   0  0  0  0  0  0  0  0  0  0  0  0
    8.5511    7.1779   25.5016 C   0  0  0  0  0  0  0  0  0  0  0  0
    7.8795    6.1308   24.8173 C   0  0  0  0  0  0  0  0  0  0  0  0
    8.8229    5.3831   24.1479 C   0  0  0  0  0  0  0  0  0  0  0  0
    8.6179    4.1624   23.2973 C   0  0  0  0  0  0  0  0  0  0  0  0
    8.5132    2.8331   24.1070 C   0  0  0  0  0  0  0  0  0  0  0  0
    8.5186    1.6057   23.2498 C   0  0  0  0  0  0  0  0  0  0  0  0
    7.4629    0.9840   22.7607 N   0  0  0  0  0  0  0  0  0  0  0  0
    8.0092    0.0798   21.8991 C   0  0  0  0  0  0  0  0  0  0  0  0
    7.2308   -0.8221   20.9863 C   0  0  0  0  0  0  0  0  0  0  0  0
    6.5812   -0.0913   19.8176 C   0  0  0  0  0  0  0  0  0  0  0  0
    5.4441    0.6960   20.0379 C   0  0  0  0  0  0  0  0  0  0  0  0
    4.8744    1.3644   18.9530 C   0  0  0  0  0  0  0  0  0  0  0  0
    5.4750    1.2471   17.6944 C   0  0  0  0  0  0  0  0  0  0  0  0
    6.5888    0.5333   17.4696 N   0  0  0  0  0  0  0  0  0  0  0  0
    7.1191   -0.1076   18.5184 C   0  0  0  0  0  0  0  0  0  0  0  0
    8.0377   -0.6616   18.3281 H   0  0  0  0  0  0  0  0  0  0  0  0
    5.0474    1.7465   16.8272 H   0  0  0  0  0  0  0  0  0  0  0  0
    3.9910    1.9809   19.0709 H   0  0  0  0  0  0  0  0  0  0  0  0
    5.0471    0.7954   21.0531 H   0  0  0  0  0  0  0  0  0  0  0  0
    6.4690   -1.3187   21.5962 H   0  0  0  0  0  0  0  0  0  0  0  0
    7.9269   -1.5877   20.6293 H   0  0  0  0  0  0  0  0  0  0  0  0
    9.3178    0.0953   21.8395 N   0  0  0  0  0  0  0  0  0  0  0  0
    9.6596    1.0437   22.7536 N   0  0  0  0  0  0  0  0  0  0  0  0
   10.9417    1.6729   22.6673 C   0  0  0  0  0  0  0  0  0  0  0  0
   11.9066    1.5629   23.6982 C   0  0  0  0  0  0  0  0  0  0  0  0
   13.0815    2.3048   23.6444 C   0  0  0  0  0  0  0  0  0  0  0  0
   13.2371    3.2219   22.5803 C   0  0  0  0  0  0  0  0  0  0  0  0
   14.1539    4.2013   22.3200 N   0  0  0  0  0  0  0  0  0  0  0  0
   13.8789    4.9069   21.1981 N   0  0  0  0  0  0  0  0  0  0  0  0
   12.7685    4.3700   20.7205 C   0  0  0  0  0  0  0  0  0  0  0  0
   12.2895    3.3136   21.5435 C   0  0  0  0  0  0  0  0  0  0  0  0
   11.1576    2.4686   21.5499 C   0  0  0  0  0  0  0  0  0  0  0  0
   10.4586    2.4193   20.7212 H   0  0  0  0  0  0  0  0  0  0  0  0
   12.2965    4.7528   19.8249 H   0  0  0  0  0  0  0  0  0  0  0  0
   14.9203    4.4706   22.9136 H   0  0  0  0  0  0  0  0  0  0  0  0
   13.8359    2.2019   24.4051 H   0  0  0  0  0  0  0  0  0  0  0  0
   11.7111    0.8839   24.5240 H   0  0  0  0  0  0  0  0  0  0  0  0
    9.3303    2.7648   24.8352 H   0  0  0  0  0  0  0  0  0  0  0  0
    7.5784    2.8299   24.6707 H   0  0  0  0  0  0  0  0  0  0  0  0
    9.4073    4.0802   22.5396 H   0  0  0  0  0  0  0  0  0  0  0  0
    7.6897    4.3030   22.7265 H   0  0  0  0  0  0  0  0  0  0  0  0
    6.8133    5.9383   24.8065 H   0  0  0  0  0  0  0  0  0  0  0  0
    8.0936    7.9516   26.1054 H   0  0  0  0  0  0  0  0  0  0  0  0
   10.7411    7.6291   25.5347 H   0  0  0  0  0  0  0  0  0  0  0  0
   12.0300    6.3312   23.8543 H   0  0  0  0  0  0  0  0  0  0  0  0
   11.7179    4.6505   24.3703 H   0  0  0  0  0  0  0  0  0  0  0  0
   11.1401    5.2481   22.7936 H   0  0  0  0  0  0  0  0  0  0  0  0
  1  2  1  0
  2  3  1  0
  3  4  2  0
  4  5  1  0
  5  6  2  0
  6  7  1  0
  7  8  1  0
  8  9  1  0
  9 10  2  0
 10 11  1  0
 11 12  1  0
 12 13  1  0
 13 14  2  0
 14 15  1  0
 15 16  2  0
 16 17  1  0
 17 18  2  0
 18 19  1  0
 16 20  1  0
 15 21  1  0
 14 22  1  0
 12 23  1  0
 12 24  1  0
 11 25  2  0
 25 26  1  0
 26 27  1  0
 27 28  2  0
 28 29  1  0
 29 30  2  0
 30 31  1  0
 31 32  1  0
 32 33  2  0
 33 34  1  0
 34 35  2  0
 35 36  1  0
 33 37  1  0
 31 38  1  0
 29 39  1  0
 28 40  1  0
  8 41  1  0
  8 42  1  0
  7 43  1  0
  7 44  1  0
  5 45  1  0
  4 46  1  0
  3 47  1  0
  1 48  1  0
  1 49  1  0
  1 50  1  0
  6  2  1  0
 26  9  1  0
 35 27  1  0
 18 13  1  0
 34 30  1  0
M  END
>  <cnnaffinity>  (1) 
-6.72326

>  <filename>  (1) 
[H]c1nc([H])c(C([H])([H])c2nc(C([H])([H])C([H])([H])c3c([H])c([H])c([H])n3C([H])([H])[H])n(-c3c([H])c([H])c4c(c([H])nn4[H])c3[H])n2)c([H])c1[H]

$$$$
