
     RDKit          3D

 34 36  0  0  0  0  0  0  0  0999 V2000
    4.9168    1.7957   16.9785 H   0  0  0  0  0  0  0  0  0  0  0  0
    5.3921    1.3024   17.8220 C   0  0  0  0  0  0  0  0  0  0  0  0
    6.5529    0.6839   17.5565 N   0  0  0  0  0  0  0  0  0  0  0  0
    7.1602    0.0753   18.5826 C   0  0  0  0  0  0  0  0  0  0  0  0
    8.1035   -0.4184   18.3572 H   0  0  0  0  0  0  0  0  0  0  0  0
    6.6471    0.0123   19.8944 C   0  0  0  0  0  0  0  0  0  0  0  0
    7.3714   -0.7051   20.9720 C   0  0  0  0  0  0  0  0  0  0  0  0
    8.7782   -0.5655   21.1331 C   0  0  0  0  0  0  0  0  0  0  0  0
    9.3070    0.1031   20.4469 H   0  0  0  0  0  0  0  0  0  0  0  0
    9.4306   -1.2163   22.1351 C   0  0  0  0  0  0  0  0  0  0  0  0
   10.4926   -1.1379   22.3038 H   0  0  0  0  0  0  0  0  0  0  0  0
    8.7534   -2.0905   23.0787 C   0  0  0  0  0  0  0  0  0  0  0  0
    9.3306   -2.6813   23.9710 O   0  0  0  0  0  0  0  0  0  0  0  0
    7.3397   -2.1937   22.8716 N   0  0  0  0  0  0  0  0  0  0  0  0
    6.5720   -3.0430   23.7418 C   0  0  0  0  0  0  0  0  0  0  0  0
    6.2572   -2.5555   25.0148 C   0  0  0  0  0  0  0  0  0  0  0  0
    6.6362   -1.5676   25.2569 H   0  0  0  0  0  0  0  0  0  0  0  0
    5.4981   -3.3223   25.9045 C   0  0  0  0  0  0  0  0  0  0  0  0
    5.2660   -2.9324   26.8928 H   0  0  0  0  0  0  0  0  0  0  0  0
    5.0476   -4.5886   25.5154 C   0  0  0  0  0  0  0  0  0  0  0  0
    4.4544   -5.1928   26.2000 H   0  0  0  0  0  0  0  0  0  0  0  0
    5.3633   -5.0887   24.2482 C   0  0  0  0  0  0  0  0  0  0  0  0
    5.0125   -6.0795   23.9571 H   0  0  0  0  0  0  0  0  0  0  0  0
    6.1367   -4.3267   23.3468 C   0  0  0  0  0  0  0  0  0  0  0  0
    6.4710   -4.8805   21.9626 C   0  0  0  0  0  0  0  0  0  0  0  0
    5.6736   -4.3596   20.9993 F   0  0  0  0  0  0  0  0  0  0  0  0
    7.7446   -4.6481   21.5915 F   0  0  0  0  0  0  0  0  0  0  0  0
    6.2869   -6.2174   21.9068 F   0  0  0  0  0  0  0  0  0  0  0  0
    6.7026   -1.5128   21.8493 C   0  0  0  0  0  0  0  0  0  0  0  0
    5.6351   -1.6739   21.7558 H   0  0  0  0  0  0  0  0  0  0  0  0
    5.4244    0.6540   20.1427 C   0  0  0  0  0  0  0  0  0  0  0  0
    5.0078    0.6471   21.1536 H   0  0  0  0  0  0  0  0  0  0  0  0
    4.7977    1.3214   19.0891 C   0  0  0  0  0  0  0  0  0  0  0  0
    3.8668    1.8506   19.2429 H   0  0  0  0  0  0  0  0  0  0  0  0
  1  2  1  0
  2  3  2  0
  3  4  1  0
  4  5  1  0
  4  6  2  0
  6  7  1  0
  7  8  1  0
  8  9  1  0
  8 10  2  0
 10 11  1  0
 10 12  1  0
 12 13  2  0
 12 14  1  0
 14 15  1  0
 15 16  2  0
 16 17  1  0
 16 18  1  0
 18 19  1  0
 18 20  2  0
 20 21  1  0
 20 22  1  0
 22 23  1  0
 22 24  2  0
 24 25  1  0
 25 26  1  0
 25 27  1  0
 25 28  1  0
 14 29  1  0
 29 30  1  0
  6 31  1  0
 31 32  1  0
 31 33  2  0
 33 34  1  0
 33  2  1  0
 29  7  2  0
 24 15  1  0
M  END
>  <cnnaffinity>  (1) 
-5.75298

>  <filename>  (1) 
[H]c1nc([H])c(-c2c([H])c([H])c(=O)n(-c3c([H])c([H])c([H])c([H])c3C(F)(F)F)c2[H])c([H])c1[H]

$$$$
