
     RDKit          3D

 35 37  0  0  0  0  0  0  0  0999 V2000
    4.9974    1.6748   16.9634 H   0  0  0  0  0  0  0  0  0  0  0  0
    5.4585    1.2220   17.8391 C   0  0  0  0  0  0  0  0  0  0  0  0
    6.6024    0.5643   17.6172 N   0  0  0  0  0  0  0  0  0  0  0  0
    7.2024    0.0013   18.6627 C   0  0  0  0  0  0  0  0  0  0  0  0
    8.1086   -0.5686   18.4663 H   0  0  0  0  0  0  0  0  0  0  0  0
    6.7363    0.1038   19.9845 C   0  0  0  0  0  0  0  0  0  0  0  0
    7.6535   -0.5386   20.9774 C   0  0  0  0  0  0  0  0  0  0  0  0
    8.2109   -1.5823   20.6946 O   0  0  0  0  0  0  0  0  0  0  0  0
    7.9728    0.0766   22.3199 C   0  0  0  0  0  0  0  0  0  0  0  0
    8.9761   -0.2641   22.5767 H   0  0  0  0  0  0  0  0  0  0  0  0
    6.8732   -0.1833   23.3742 C   0  0  0  0  0  0  0  0  0  0  0  0
    7.2906   -0.3684   24.3784 H   0  0  0  0  0  0  0  0  0  0  0  0
    6.1595   -0.9965   23.1713 H   0  0  0  0  0  0  0  0  0  0  0  0
    6.4291    1.2070   23.1729 N   0  0  0  0  0  0  0  0  0  0  0  0
    5.7227    1.9489   24.1211 C   0  0  0  0  0  0  0  0  0  0  0  0
    5.0835    1.2579   25.1714 C   0  0  0  0  0  0  0  0  0  0  0  0
    5.2119    0.1806   25.2236 H   0  0  0  0  0  0  0  0  0  0  0  0
    4.2942    1.9228   26.1117 C   0  0  0  0  0  0  0  0  0  0  0  0
    3.8086    1.3568   26.9075 H   0  0  0  0  0  0  0  0  0  0  0  0
    4.1223    3.3058   26.0244 C   0  0  0  0  0  0  0  0  0  0  0  0
    3.4990    3.8321   26.7473 H   0  0  0  0  0  0  0  0  0  0  0  0
    4.7455    4.0073   24.9931 C   0  0  0  0  0  0  0  0  0  0  0  0
    4.6015    5.0840   24.9250 H   0  0  0  0  0  0  0  0  0  0  0  0
    5.5367    3.3554   24.0276 C   0  0  0  0  0  0  0  0  0  0  0  0
    6.1375    4.1692   22.9043 C   0  0  0  0  0  0  0  0  0  0  0  0
    5.6924    5.4436   22.8893 F   0  0  0  0  0  0  0  0  0  0  0  0
    5.8470    3.6627   21.6894 F   0  0  0  0  0  0  0  0  0  0  0  0
    7.4847    4.2581   22.9945 F   0  0  0  0  0  0  0  0  0  0  0  0
    7.6931    1.5730   22.5181 C   0  0  0  0  0  0  0  0  0  0  0  0
    7.5792    2.1666   21.6071 H   0  0  0  0  0  0  0  0  0  0  0  0
    8.4124    2.0790   23.1809 H   0  0  0  0  0  0  0  0  0  0  0  0
    5.5206    0.7750   20.2045 C   0  0  0  0  0  0  0  0  0  0  0  0
    5.0881    0.8913   21.1993 H   0  0  0  0  0  0  0  0  0  0  0  0
    4.8655    1.3206   19.0987 C   0  0  0  0  0  0  0  0  0  0  0  0
    3.9180    1.8357   19.1920 H   0  0  0  0  0  0  0  0  0  0  0  0
  1  2  1  0
  2  3  2  0
  3  4  1  0
  4  5  1  0
  4  6  2  0
  6  7  1  0
  7  8  2  0
  7  9  1  0
  9 10  1  0
  9 11  1  0
 11 12  1  0
 11 13  1  0
 11 14  1  0
 14 15  1  0
 15 16  2  0
 16 17  1  0
 16 18  1  0
 18 19  1  0
 18 20  2  0
 20 21  1  0
 20 22  1  0
 22 23  1  0
 22 24  2  0
 24 25  1  0
 25 26  1  0
 25 27  1  0
 25 28  1  0
 14 29  1  0
 29 30  1  0
 29 31  1  0
  6 32  1  0
 32 33  1  0
 32 34  2  0
 34 35  1  0
 34  2  1  0
 29  9  1  0
 24 15  1  0
M  END
>  <cnnaffinity>  (1) 
-4.76485

>  <filename>  (1) 
[H]c1nc([H])c(C(=O)C2([H])C([H])([H])N(c3c([H])c([H])c([H])c([H])c3C(F)(F)F)C2([H])[H])c([H])c1[H]

$$$$
