
     RDKit          3D

 29 31  0  0  0  0  0  0  0  0999 V2000
    6.8055    4.1130   22.0155 H   0  0  0  0  0  0  0  0  0  0  0  0
    7.0168    3.2608   22.6580 C   0  0  0  0  0  0  0  0  0  0  0  0
    7.1889    2.0849   22.0563 N   0  0  0  0  0  0  0  0  0  0  0  0
    7.4352    1.0424   22.8580 C   0  0  0  0  0  0  0  0  0  0  0  0
    7.6379   -0.2576   22.2536 C   0  0  0  0  0  0  0  0  0  0  0  0
    8.2494   -1.3716   22.8597 C   0  0  0  0  0  0  0  0  0  0  0  0
    8.6189   -1.4975   23.8743 H   0  0  0  0  0  0  0  0  0  0  0  0
    8.3643   -2.3727   22.0059 N   0  0  0  0  0  0  0  0  0  0  0  0
    7.8301   -1.9144   20.8645 N   0  0  0  0  0  0  0  0  0  0  0  0
    7.7585   -2.5121   20.0536 H   0  0  0  0  0  0  0  0  0  0  0  0
    7.3480   -0.6567   20.9516 C   0  0  0  0  0  0  0  0  0  0  0  0
    6.6343    0.0140   19.8733 C   0  0  0  0  0  0  0  0  0  0  0  0
    7.1551    0.0683   18.5688 C   0  0  0  0  0  0  0  0  0  0  0  0
    8.1141   -0.4005   18.3410 H   0  0  0  0  0  0  0  0  0  0  0  0
    6.5538    0.6911   17.5530 N   0  0  0  0  0  0  0  0  0  0  0  0
    5.3860    1.3035   17.8140 C   0  0  0  0  0  0  0  0  0  0  0  0
    4.9162    1.8056   16.9722 H   0  0  0  0  0  0  0  0  0  0  0  0
    4.7813    1.3049   19.0742 C   0  0  0  0  0  0  0  0  0  0  0  0
    3.8636    1.8494   19.2425 H   0  0  0  0  0  0  0  0  0  0  0  0
    5.4051    0.6372   20.1217 C   0  0  0  0  0  0  0  0  0  0  0  0
    4.9992    0.6477   21.1347 H   0  0  0  0  0  0  0  0  0  0  0  0
    7.5402    1.0980   24.1928 N   0  0  0  0  0  0  0  0  0  0  0  0
    7.3644    2.2771   24.7932 C   0  0  0  0  0  0  0  0  0  0  0  0
    7.4812    2.3985   26.3514 C   0  0  0  0  0  0  0  0  0  0  0  0
    7.7325    1.2432   26.9699 F   0  0  0  0  0  0  0  0  0  0  0  0
    6.3417    2.9050   26.8723 F   0  0  0  0  0  0  0  0  0  0  0  0
    8.4631    3.2667   26.6798 F   0  0  0  0  0  0  0  0  0  0  0  0
    7.0917    3.4257   24.0401 C   0  0  0  0  0  0  0  0  0  0  0  0
    6.9560    4.3952   24.4923 H   0  0  0  0  0  0  0  0  0  0  0  0
  1  2  1  0
  2  3  2  0
  3  4  1  0
  4  5  1  0
  5  6  1  0
  6  7  1  0
  6  8  2  0
  8  9  1  0
  9 10  1  0
  9 11  1  0
 11 12  1  0
 12 13  2  0
 13 14  1  0
 13 15  1  0
 15 16  2  0
 16 17  1  0
 16 18  1  0
 18 19  1  0
 18 20  2  0
 20 21  1  0
  4 22  2  0
 22 23  1  0
 23 24  1  0
 24 25  1  0
 24 26  1  0
 24 27  1  0
 23 28  2  0
 28 29  1  0
 28  2  1  0
 11  5  2  0
 20 12  1  0
M  END
>  <cnnaffinity>  (1) 
-5.21183

>  <filename>  (1) 
[H]c1nc(-c2c([H])nn([H])c2-c2c([H])nc([H])c([H])c2[H])nc(C(F)(F)F)c1[H]

$$$$
