
     RDKit          3D

 38 39  0  0  0  0  0  0  0  0999 V2000
    8.5382    2.3491   20.7010 O   0  0  0  0  0  0  0  0  0  0  0  0
    8.0602    2.1816   21.8008 C   0  0  0  0  0  0  0  0  0  0  0  0
    7.5237    3.2868   22.7034 C   0  0  0  0  0  0  0  0  0  0  0  0
    8.6088    3.9698   23.5634 C   0  0  0  0  0  0  0  0  0  0  0  0
    8.0622    5.0312   24.5481 C   0  0  0  0  0  0  0  0  0  0  0  0
    9.1586    5.7105   25.3609 C   0  0  0  0  0  0  0  0  0  0  0  0
    9.4281    5.3637   26.6990 C   0  0  0  0  0  0  0  0  0  0  0  0
   10.4740    5.9621   27.4148 C   0  0  0  0  0  0  0  0  0  0  0  0
   11.3036    6.9049   26.8061 C   0  0  0  0  0  0  0  0  0  0  0  0
   11.0742    7.2598   25.4803 C   0  0  0  0  0  0  0  0  0  0  0  0
    9.9986    6.6893   24.7883 C   0  0  0  0  0  0  0  0  0  0  0  0
    9.7026    7.2459   23.1621 Cl  0  0  0  0  0  0  0  0  0  0  0  0
   11.7595    7.9427   24.9915 H   0  0  0  0  0  0  0  0  0  0  0  0
   12.1272    7.3697   27.3491 H   0  0  0  0  0  0  0  0  0  0  0  0
   10.6518    5.6983   28.4490 H   0  0  0  0  0  0  0  0  0  0  0  0
    8.8168    4.6036   27.1863 H   0  0  0  0  0  0  0  0  0  0  0  0
    7.3452    4.5650   25.2379 H   0  0  0  0  0  0  0  0  0  0  0  0
    7.5179    5.8095   23.9924 H   0  0  0  0  0  0  0  0  0  0  0  0
    9.1580    3.2119   24.1398 H   0  0  0  0  0  0  0  0  0  0  0  0
    9.3427    4.4449   22.9010 H   0  0  0  0  0  0  0  0  0  0  0  0
    7.0489    4.0164   22.0400 H   0  0  0  0  0  0  0  0  0  0  0  0
    6.7364    2.8633   23.3391 H   0  0  0  0  0  0  0  0  0  0  0  0
    7.8924    0.9363   22.3961 N   0  0  0  0  0  0  0  0  0  0  0  0
    8.3754   -0.1697   21.7242 O   0  0  0  0  0  0  0  0  0  0  0  0
    7.3227   -0.8431   21.0099 C   0  0  0  0  0  0  0  0  0  0  0  0
    6.6520   -0.0345   19.9234 C   0  0  0  0  0  0  0  0  0  0  0  0
    5.4443    0.6409   20.1545 C   0  0  0  0  0  0  0  0  0  0  0  0
    4.8342    1.3174   19.0968 C   0  0  0  0  0  0  0  0  0  0  0  0
    5.4608    1.3185   17.8487 C   0  0  0  0  0  0  0  0  0  0  0  0
    6.6329    0.7095   17.6131 N   0  0  0  0  0  0  0  0  0  0  0  0
    7.2090    0.0701   18.6415 C   0  0  0  0  0  0  0  0  0  0  0  0
    8.1662   -0.4053   18.4203 H   0  0  0  0  0  0  0  0  0  0  0  0
    4.9954    1.8146   16.9956 H   0  0  0  0  0  0  0  0  0  0  0  0
    3.8921    1.8354   19.2242 H   0  0  0  0  0  0  0  0  0  0  0  0
    4.9893    0.6346   21.1481 H   0  0  0  0  0  0  0  0  0  0  0  0
    6.5812   -1.2090   21.7320 H   0  0  0  0  0  0  0  0  0  0  0  0
    7.8499   -1.6997   20.5877 H   0  0  0  0  0  0  0  0  0  0  0  0
    8.0986    0.9162   23.3844 H   0  0  0  0  0  0  0  0  0  0  0  0
  1  2  2  0
  2  3  1  0
  3  4  1  0
  4  5  1  0
  5  6  1  0
  6  7  2  0
  7  8  1  0
  8  9  2  0
  9 10  1  0
 10 11  2  0
 11 12  1  0
 10 13  1  0
  9 14  1  0
  8 15  1  0
  7 16  1  0
  5 17  1  0
  5 18  1  0
  4 19  1  0
  4 20  1  0
  3 21  1  0
  3 22  1  0
  2 23  1  0
 23 24  1  0
 24 25  1  0
 25 26  1  0
 26 27  2  0
 27 28  1  0
 28 29  2  0
 29 30  1  0
 30 31  2  0
 31 32  1  0
 29 33  1  0
 28 34  1  0
 27 35  1  0
 25 36  1  0
 25 37  1  0
 23 38  1  0
 11  6  1  0
 31 26  1  0
M  END
>  <cnnaffinity>  (1) 
-4.59035

>  <filename>  (1) 
[H]c1nc([H])c(C([H])([H])ON([H])C(=O)C([H])([H])C([H])([H])C([H])([H])c2c([H])c([H])c([H])c([H])c2Cl)c([H])c1[H]

$$$$
