
     RDKit          3D

 31 32  0  0  0  0  0  0  0  0999 V2000
    9.2956    0.9419   21.2488 C   0  0  0  0  0  0  0  0  0  0  0  0
    8.1092    0.2939   21.9459 C   0  0  0  0  0  0  0  0  0  0  0  0
    7.3816   -0.7071   21.0094 C   0  0  0  0  0  0  0  0  0  0  0  0
    6.6419   -0.0293   19.8720 C   0  0  0  0  0  0  0  0  0  0  0  0
    5.4358    0.6448   20.1256 C   0  0  0  0  0  0  0  0  0  0  0  0
    4.7939    1.3145   19.0808 C   0  0  0  0  0  0  0  0  0  0  0  0
    5.3884    1.3051   17.8144 C   0  0  0  0  0  0  0  0  0  0  0  0
    6.5464    0.6836   17.5477 N   0  0  0  0  0  0  0  0  0  0  0  0
    7.1484    0.0473   18.5615 C   0  0  0  0  0  0  0  0  0  0  0  0
    8.1018   -0.4243   18.3202 H   0  0  0  0  0  0  0  0  0  0  0  0
    4.9171    1.8171   16.9767 H   0  0  0  0  0  0  0  0  0  0  0  0
    3.8637    1.8558   19.2353 H   0  0  0  0  0  0  0  0  0  0  0  0
    5.0253    0.6444   21.1395 H   0  0  0  0  0  0  0  0  0  0  0  0
    8.1094   -1.4358   20.6282 H   0  0  0  0  0  0  0  0  0  0  0  0
    6.6711   -1.2698   21.6260 H   0  0  0  0  0  0  0  0  0  0  0  0
    8.5438   -0.3449   23.1633 N   0  0  0  0  0  0  0  0  0  0  0  0
    7.7270   -0.7110   24.1709 C   0  0  0  0  0  0  0  0  0  0  0  0
    6.4597   -0.2920   24.1274 N   0  0  0  0  0  0  0  0  0  0  0  0
    5.6480   -0.6260   25.1345 C   0  0  0  0  0  0  0  0  0  0  0  0
    6.0639   -1.3639   26.2395 C   0  0  0  0  0  0  0  0  0  0  0  0
    7.3978   -1.8117   26.2982 C   0  0  0  0  0  0  0  0  0  0  0  0
    8.2284   -1.5091   25.2350 C   0  0  0  0  0  0  0  0  0  0  0  0
    9.8278   -2.1841   25.1114 Cl  0  0  0  0  0  0  0  0  0  0  0  0
    7.7764   -2.3912   27.1432 H   0  0  0  0  0  0  0  0  0  0  0  0
    5.3518   -1.5915   27.0184 H   0  0  0  0  0  0  0  0  0  0  0  0
    4.6144   -0.2847   25.0458 H   0  0  0  0  0  0  0  0  0  0  0  0
    9.4716   -0.7078   23.2529 H   0  0  0  0  0  0  0  0  0  0  0  0
    7.3797    1.0667   22.2277 H   0  0  0  0  0  0  0  0  0  0  0  0
    8.9201    1.5391   20.4141 H   0  0  0  0  0  0  0  0  0  0  0  0
    9.9864    0.1870   20.8469 H   0  0  0  0  0  0  0  0  0  0  0  0
    9.8536    1.6000   21.9208 H   0  0  0  0  0  0  0  0  0  0  0  0
  1  2  1  0
  2  3  1  0
  3  4  1  0
  4  5  2  0
  5  6  1  0
  6  7  2  0
  7  8  1  0
  8  9  2  0
  9 10  1  0
  7 11  1  0
  6 12  1  0
  5 13  1  0
  3 14  1  0
  3 15  1  0
  2 16  1  0
 16 17  1  0
 17 18  2  0
 18 19  1  0
 19 20  2  0
 20 21  1  0
 21 22  2  0
 22 23  1  0
 21 24  1  0
 20 25  1  0
 19 26  1  0
 16 27  1  0
  2 28  1  0
  1 29  1  0
  1 30  1  0
  1 31  1  0
  9  4  1  0
 22 17  1  0
M  END
>  <cnnaffinity>  (1) 
-4.74825

>  <filename>  (1) 
[H]c1nc(N([H])C([H])(C([H])([H])[H])C([H])([H])c2c([H])nc([H])c([H])c2[H])c(Cl)c([H])c1[H]

$$$$
