
     RDKit          3D

 38 39  0  0  0  0  0  0  0  0999 V2000
    7.8229   -0.1006   21.7577 H   0  0  0  0  0  0  0  0  0  0  0  0
    7.2876   -0.6430   20.9734 C   0  0  0  0  0  0  0  0  0  0  0  0
    7.0408   -1.9481   21.1535 C   0  0  0  0  0  0  0  0  0  0  0  0
    7.7588   -2.6020   22.1700 N   0  0  0  0  0  0  0  0  0  0  0  0
    8.5690   -2.1095   22.5084 H   0  0  0  0  0  0  0  0  0  0  0  0
    7.3898   -3.7025   22.9068 C   0  0  0  0  0  0  0  0  0  0  0  0
    6.2964   -4.2288   22.8079 O   0  0  0  0  0  0  0  0  0  0  0  0
    8.4486   -4.2040   23.8849 C   0  0  0  0  0  0  0  0  0  0  0  0
    9.3915   -3.6882   23.6553 H   0  0  0  0  0  0  0  0  0  0  0  0
    8.7072   -5.7178   23.7239 C   0  0  0  0  0  0  0  0  0  0  0  0
    7.7715   -6.2646   23.9101 H   0  0  0  0  0  0  0  0  0  0  0  0
    8.9857   -5.9450   22.6846 H   0  0  0  0  0  0  0  0  0  0  0  0
    9.7931   -6.1789   24.7115 C   0  0  0  0  0  0  0  0  0  0  0  0
    9.9738   -7.2528   24.5956 H   0  0  0  0  0  0  0  0  0  0  0  0
   10.7501   -5.6720   24.4975 H   0  0  0  0  0  0  0  0  0  0  0  0
    9.4175   -5.8753   26.1646 C   0  0  0  0  0  0  0  0  0  0  0  0
   10.2729   -6.1217   26.8073 H   0  0  0  0  0  0  0  0  0  0  0  0
    8.5804   -6.5218   26.4674 H   0  0  0  0  0  0  0  0  0  0  0  0
    9.0473   -4.3990   26.3787 C   0  0  0  0  0  0  0  0  0  0  0  0
    9.9699   -3.8004   26.3451 H   0  0  0  0  0  0  0  0  0  0  0  0
    8.6338   -4.2855   27.3900 H   0  0  0  0  0  0  0  0  0  0  0  0
    8.0448   -3.8536   25.3428 C   0  0  0  0  0  0  0  0  0  0  0  0
    7.9695   -2.7620   25.4532 H   0  0  0  0  0  0  0  0  0  0  0  0
    7.0413   -4.2585   25.5422 H   0  0  0  0  0  0  0  0  0  0  0  0
    6.0691   -2.7794   20.3726 C   0  0  0  0  0  0  0  0  0  0  0  0
    5.8176   -2.2800   19.4351 H   0  0  0  0  0  0  0  0  0  0  0  0
    5.1636   -2.9388   20.9589 H   0  0  0  0  0  0  0  0  0  0  0  0
    6.4838   -3.7657   20.1570 H   0  0  0  0  0  0  0  0  0  0  0  0
    6.7053    0.1596   19.8676 C   0  0  0  0  0  0  0  0  0  0  0  0
    7.2254    0.1784   18.5613 C   0  0  0  0  0  0  0  0  0  0  0  0
    8.1852   -0.2989   18.3640 H   0  0  0  0  0  0  0  0  0  0  0  0
    6.6197    0.7610   17.5160 N   0  0  0  0  0  0  0  0  0  0  0  0
    5.4563    1.3852   17.7557 C   0  0  0  0  0  0  0  0  0  0  0  0
    4.9724    1.8315   16.8894 H   0  0  0  0  0  0  0  0  0  0  0  0
    4.8698    1.4709   19.0232 C   0  0  0  0  0  0  0  0  0  0  0  0
    3.9308    2.0007   19.1421 H   0  0  0  0  0  0  0  0  0  0  0  0
    5.5141    0.8578   20.1007 C   0  0  0  0  0  0  0  0  0  0  0  0
    5.1122    0.8934   21.1152 H   0  0  0  0  0  0  0  0  0  0  0  0
  1  2  1  0
  2  3  2  3
  3  4  1  0
  4  5  1  0
  4  6  1  0
  6  7  2  0
  6  8  1  0
  8  9  1  0
  8 10  1  0
 10 11  1  0
 10 12  1  0
 10 13  1  0
 13 14  1  0
 13 15  1  0
 13 16  1  0
 16 17  1  0
 16 18  1  0
 16 19  1  0
 19 20  1  0
 19 21  1  0
 19 22  1  0
 22 23  1  0
 22 24  1  0
  3 25  1  0
 25 26  1  0
 25 27  1  0
 25 28  1  0
  2 29  1  0
 29 30  2  0
 30 31  1  0
 30 32  1  0
 32 33  2  0
 33 34  1  0
 33 35  1  0
 35 36  1  0
 35 37  2  0
 37 38  1  0
 22  8  1  0
 37 29  1  0
M  END
>  <cnnaffinity>  (1) 
-4.68983

>  <filename>  (1) 
[H]C(=C(N([H])C(=O)C1([H])C([H])([H])C([H])([H])C([H])([H])C([H])([H])C1([H])[H])C([H])([H])[H])c1c([H])nc([H])c([H])c1[H]

$$$$
