
     RDKit          3D

 45 46  0  0  0  0  0  0  0  0999 V2000
    6.9630   -0.2311   22.6425 C   0  0  0  0  0  0  0  0  0  0  0  0
    7.4854   -0.4947   21.2197 C   0  0  0  0  0  0  0  0  0  0  0  0
    8.9679   -0.0570   21.1754 C   0  0  0  0  0  0  0  0  0  0  0  0
    9.5332   -0.5085   21.9999 H   0  0  0  0  0  0  0  0  0  0  0  0
    9.0338    1.0316   21.2833 H   0  0  0  0  0  0  0  0  0  0  0  0
    9.4672   -0.3339   20.2422 H   0  0  0  0  0  0  0  0  0  0  0  0
    7.3123   -2.0045   20.8614 C   0  0  0  0  0  0  0  0  0  0  0  0
    7.9795   -2.9949   21.6811 N   0  0  0  0  0  0  0  0  0  0  0  0
    7.3235   -3.7285   22.6185 C   0  0  0  0  0  0  0  0  0  0  0  0
    6.1181   -3.6464   22.8171 O   0  0  0  0  0  0  0  0  0  0  0  0
    8.2289   -4.5143   23.5283 C   0  0  0  0  0  0  0  0  0  0  0  0
    8.7549   -3.5133   24.5473 C   0  0  0  0  0  0  0  0  0  0  0  0
    7.6241   -2.8176   25.1216 N   0  0  0  0  0  0  0  0  0  0  0  0
    7.7687   -1.6915   25.8920 C   0  0  0  0  0  0  0  0  0  0  0  0
    6.6424   -1.0600   26.4592 C   0  0  0  0  0  0  0  0  0  0  0  0
    6.8193    0.0012   27.3522 C   0  0  0  0  0  0  0  0  0  0  0  0
    8.0989    0.4791   27.6587 C   0  0  0  0  0  0  0  0  0  0  0  0
    9.2075   -0.0929   27.0258 C   0  0  0  0  0  0  0  0  0  0  0  0
    9.0408   -1.1524   26.1423 C   0  0  0  0  0  0  0  0  0  0  0  0
    9.8906   -1.5838   25.6330 H   0  0  0  0  0  0  0  0  0  0  0  0
   10.2207    0.2524   27.2130 H   0  0  0  0  0  0  0  0  0  0  0  0
    8.2313    1.2784   28.3845 H   0  0  0  0  0  0  0  0  0  0  0  0
    5.9552    0.4633   27.8281 H   0  0  0  0  0  0  0  0  0  0  0  0
    5.6447   -1.4121   26.2067 H   0  0  0  0  0  0  0  0  0  0  0  0
    6.7118   -2.9019   24.6885 H   0  0  0  0  0  0  0  0  0  0  0  0
    9.3530   -3.9868   25.3431 H   0  0  0  0  0  0  0  0  0  0  0  0
    9.4215   -2.7955   24.0311 H   0  0  0  0  0  0  0  0  0  0  0  0
    9.0526   -4.9827   22.9881 H   0  0  0  0  0  0  0  0  0  0  0  0
    7.6380   -5.2859   24.0207 H   0  0  0  0  0  0  0  0  0  0  0  0
    8.9772   -2.9278   21.7959 H   0  0  0  0  0  0  0  0  0  0  0  0
    6.2443   -2.2434   20.8379 H   0  0  0  0  0  0  0  0  0  0  0  0
    7.6686   -2.0762   19.8443 H   0  0  0  0  0  0  0  0  0  0  0  0
    6.7023    0.2270   20.0956 C   0  0  0  0  0  0  0  0  0  0  0  0
    5.4388    0.8110   20.2512 C   0  0  0  0  0  0  0  0  0  0  0  0
    4.8014    1.3629   19.1309 C   0  0  0  0  0  0  0  0  0  0  0  0
    5.4366    1.3125   17.8877 C   0  0  0  0  0  0  0  0  0  0  0  0
    6.6329    0.7372   17.7020 N   0  0  0  0  0  0  0  0  0  0  0  0
    7.2236    0.2079   18.7801 C   0  0  0  0  0  0  0  0  0  0  0  0
    8.1703   -0.2919   18.5780 H   0  0  0  0  0  0  0  0  0  0  0  0
    4.9726    1.7361   16.9986 H   0  0  0  0  0  0  0  0  0  0  0  0
    3.8299    1.8352   19.2109 H   0  0  0  0  0  0  0  0  0  0  0  0
    4.9539    0.8292   21.2295 H   0  0  0  0  0  0  0  0  0  0  0  0
    6.1227   -0.8830   22.8768 H   0  0  0  0  0  0  0  0  0  0  0  0
    6.6715    0.8123   22.7840 H   0  0  0  0  0  0  0  0  0  0  0  0
    7.7306   -0.4544   23.3889 H   0  0  0  0  0  0  0  0  0  0  0  0
  1  2  1  0
  2  3  1  0
  3  4  1  0
  3  5  1  0
  3  6  1  0
  2  7  1  0
  7  8  1  0
  8  9  1  0
  9 10  2  0
  9 11  1  0
 11 12  1  0
 12 13  1  0
 13 14  1  0
 14 15  2  0
 15 16  1  0
 16 17  2  0
 17 18  1  0
 18 19  2  0
 19 20  1  0
 18 21  1  0
 17 22  1  0
 16 23  1  0
 15 24  1  0
 13 25  1  0
 12 26  1  0
 12 27  1  0
 11 28  1  0
 11 29  1  0
  8 30  1  0
  7 31  1  0
  7 32  1  0
  2 33  1  0
 33 34  2  0
 34 35  1  0
 35 36  2  0
 36 37  1  0
 37 38  2  0
 38 39  1  0
 36 40  1  0
 35 41  1  0
 34 42  1  0
  1 43  1  0
  1 44  1  0
  1 45  1  0
 19 14  1  0
 38 33  1  0
M  END
>  <cnnaffinity>  (1) 
-5.01539

>  <filename>  (1) 
[H]c1nc([H])c(C(C([H])([H])[H])(C([H])([H])[H])C([H])([H])N([H])C(=O)C([H])([H])C([H])([H])N([H])c2c([H])c([H])c([H])c([H])c2[H])c([H])c1[H]

$$$$
