
     RDKit          3D

 29 30  0  0  0  0  0  0  0  0999 V2000
    4.9106    1.7801   16.9973 H   0  0  0  0  0  0  0  0  0  0  0  0
    5.4015    1.2938   17.8364 C   0  0  0  0  0  0  0  0  0  0  0  0
    6.5666    0.6828   17.5700 N   0  0  0  0  0  0  0  0  0  0  0  0
    7.1660    0.0655   18.5945 C   0  0  0  0  0  0  0  0  0  0  0  0
    8.1131   -0.4215   18.3726 H   0  0  0  0  0  0  0  0  0  0  0  0
    6.6462   -0.0135   19.8959 C   0  0  0  0  0  0  0  0  0  0  0  0
    7.4493   -0.7105   20.9800 C   0  0  1  0  0  0  0  0  0  0  0  0
    8.0819   -1.4515   20.4807 H   0  0  0  0  0  0  0  0  0  0  0  0
    8.3762    0.2811   21.6719 C   0  0  0  0  0  0  0  0  0  0  0  0
    9.7610    0.1692   21.5436 C   0  0  0  0  0  0  0  0  0  0  0  0
   10.1973   -0.6325   20.9586 H   0  0  0  0  0  0  0  0  0  0  0  0
   10.5734    1.0964   22.1952 C   0  0  0  0  0  0  0  0  0  0  0  0
   11.6499    1.0080   22.1075 H   0  0  0  0  0  0  0  0  0  0  0  0
   10.1094    2.1095   22.9410 N   0  0  0  0  0  0  0  0  0  0  0  0
    8.7814    2.2346   23.0519 C   0  0  0  0  0  0  0  0  0  0  0  0
    8.2412    3.3709   23.8750 C   0  0  0  0  0  0  0  0  0  0  0  0
    7.5889    3.0095   24.6764 H   0  0  0  0  0  0  0  0  0  0  0  0
    9.0452    3.9519   24.3262 H   0  0  0  0  0  0  0  0  0  0  0  0
    7.6340    4.0470   23.2646 H   0  0  0  0  0  0  0  0  0  0  0  0
    7.8893    1.3428   22.4359 C   0  0  0  0  0  0  0  0  0  0  0  0
    6.8229    1.5041   22.5573 H   0  0  0  0  0  0  0  0  0  0  0  0
    6.5788   -1.4765   21.9753 C   0  0  0  0  0  0  0  0  0  0  0  0
    5.8640   -2.1139   21.4478 H   0  0  0  0  0  0  0  0  0  0  0  0
    7.2051   -2.0936   22.6233 H   0  0  0  0  0  0  0  0  0  0  0  0
    6.0391   -0.7843   22.6218 H   0  0  0  0  0  0  0  0  0  0  0  0
    5.4404    0.6472   20.1524 C   0  0  0  0  0  0  0  0  0  0  0  0
    4.9951    0.6330   21.1539 H   0  0  0  0  0  0  0  0  0  0  0  0
    4.8046    1.3125   19.1028 C   0  0  0  0  0  0  0  0  0  0  0  0
    3.8720    1.8452   19.2600 H   0  0  0  0  0  0  0  0  0  0  0  0
  1  2  1  0
  2  3  2  0
  3  4  1  0
  4  5  1  0
  4  6  2  0
  6  7  1  0
  7  8  1  6
  7  9  1  0
  9 10  2  0
 10 11  1  0
 10 12  1  0
 12 13  1  0
 12 14  2  0
 14 15  1  0
 15 16  1  0
 16 17  1  0
 16 18  1  0
 16 19  1  0
 15 20  2  0
 20 21  1  0
  7 22  1  0
 22 23  1  0
 22 24  1  0
 22 25  1  0
  6 26  1  0
 26 27  1  0
 26 28  2  0
 28 29  1  0
 28  2  1  0
 20  9  1  0
M  END
>  <cnnaffinity>  (1) 
-4.65929

>  <filename>  (1) 
[H]c1nc([H])c([C@@]([H])(c2c([H])c([H])nc(C([H])([H])[H])c2[H])C([H])([H])[H])c([H])c1[H]

$$$$
