
     RDKit          3D

 30 32  0  0  0  0  0  0  0  0999 V2000
    8.1451    2.6488   22.1487 Cl  0  0  0  0  0  0  0  0  0  0  0  0
    9.7608    2.1537   22.5612 C   0  0  0  0  0  0  0  0  0  0  0  0
   10.3764    2.7891   23.5707 N   0  0  0  0  0  0  0  0  0  0  0  0
   11.6116    2.3874   23.9001 C   0  0  0  0  0  0  0  0  0  0  0  0
   12.2762    1.3420   23.2483 C   0  0  0  0  0  0  0  0  0  0  0  0
   14.0184    0.7765   23.7616 Br  0  0  0  0  0  0  0  0  0  0  0  0
   11.6447    0.6829   22.2077 C   0  0  0  0  0  0  0  0  0  0  0  0
   10.3599    1.0908   21.8520 C   0  0  0  0  0  0  0  0  0  0  0  0
    9.6194    0.3259   20.7752 C   0  0  0  0  0  0  0  0  0  0  0  0
    8.6496   -0.6083   21.3410 N   0  0  0  0  0  0  0  0  0  0  0  0
    8.9568   -1.4900   22.3354 N   0  0  0  0  0  0  0  0  0  0  0  0
    7.8306   -2.0916   22.6163 C   0  0  0  0  0  0  0  0  0  0  0  0
    6.7645   -1.6292   21.7621 C   0  0  0  0  0  0  0  0  0  0  0  0
    7.3217   -0.7034   20.9480 C   0  0  0  0  0  0  0  0  0  0  0  0
    6.6389    0.0174   19.8862 C   0  0  0  0  0  0  0  0  0  0  0  0
    5.4244    0.6471   20.1500 C   0  0  0  0  0  0  0  0  0  0  0  0
    4.8092    1.3103   19.0917 C   0  0  0  0  0  0  0  0  0  0  0  0
    5.4001    1.3003   17.8196 C   0  0  0  0  0  0  0  0  0  0  0  0
    6.5718    0.6887   17.5626 N   0  0  0  0  0  0  0  0  0  0  0  0
    7.1812    0.0695   18.5912 C   0  0  0  0  0  0  0  0  0  0  0  0
    8.1248   -0.4346   18.4073 H   0  0  0  0  0  0  0  0  0  0  0  0
    4.8869    1.8015   17.0086 H   0  0  0  0  0  0  0  0  0  0  0  0
    3.8778    1.8366   19.2550 H   0  0  0  0  0  0  0  0  0  0  0  0
    5.0012    0.6310   21.1586 H   0  0  0  0  0  0  0  0  0  0  0  0
    5.7356   -1.9692   21.7555 H   0  0  0  0  0  0  0  0  0  0  0  0
    7.7181   -2.8480   23.3795 H   0  0  0  0  0  0  0  0  0  0  0  0
   10.2953   -0.3152   20.2166 H   0  0  0  0  0  0  0  0  0  0  0  0
    9.1383    1.0239   20.0841 H   0  0  0  0  0  0  0  0  0  0  0  0
   12.1469   -0.1478   21.7113 H   0  0  0  0  0  0  0  0  0  0  0  0
   12.1092    2.8993   24.7123 H   0  0  0  0  0  0  0  0  0  0  0  0
  1  2  1  0
  2  3  2  0
  3  4  1  0
  4  5  2  0
  5  6  1  0
  5  7  1  0
  7  8  2  0
  8  9  1  0
  9 10  1  0
 10 11  1  0
 11 12  2  0
 12 13  1  0
 13 14  2  0
 14 15  1  0
 15 16  2  0
 16 17  1  0
 17 18  2  0
 18 19  1  0
 19 20  2  0
 20 21  1  0
 18 22  1  0
 17 23  1  0
 16 24  1  0
 13 25  1  0
 12 26  1  0
  9 27  1  0
  9 28  1  0
  7 29  1  0
  4 30  1  0
  8  2  1  0
 14 10  1  0
 20 15  1  0
M  END
>  <cnnaffinity>  (1) 
-5.62499

>  <filename>  (1) 
[H]c1nc([H])c(-c2c([H])c([H])nn2C([H])([H])c2c(Cl)nc([H])c(Br)c2[H])c([H])c1[H]

$$$$
