
     RDKit          3D

 31 33  0  0  0  0  0  0  0  0999 V2000
    5.0364    1.8410   16.8535 H   0  0  0  0  0  0  0  0  0  0  0  0
    5.4530    1.3227   17.7169 C   0  0  0  0  0  0  0  0  0  0  0  0
    6.5937    0.6457   17.5067 N   0  0  0  0  0  0  0  0  0  0  0  0
    7.1400    0.0276   18.5639 C   0  0  0  0  0  0  0  0  0  0  0  0
    8.0565   -0.5292   18.3691 H   0  0  0  0  0  0  0  0  0  0  0  0
    6.6048    0.0376   19.8682 C   0  0  0  0  0  0  0  0  0  0  0  0
    7.3219   -0.6218   21.0018 C   0  0  0  0  0  0  0  0  0  0  0  0
    8.6936   -0.3473   21.2728 C   0  0  0  0  0  0  0  0  0  0  0  0
    9.2256    0.3576   20.6394 H   0  0  0  0  0  0  0  0  0  0  0  0
    9.3815   -0.9436   22.3078 C   0  0  0  0  0  0  0  0  0  0  0  0
   10.8523   -0.7454   22.4251 C   0  0  0  0  0  0  0  0  0  0  0  0
   11.7701   -1.8103   22.3578 C   0  0  0  0  0  0  0  0  0  0  0  0
   11.3054   -3.0545   22.5108 F   0  0  0  0  0  0  0  0  0  0  0  0
   13.1384   -1.6388   22.1455 C   0  0  0  0  0  0  0  0  0  0  0  0
   13.7599   -2.5230   22.0386 H   0  0  0  0  0  0  0  0  0  0  0  0
   13.6512   -0.3434   22.1081 C   0  0  0  0  0  0  0  0  0  0  0  0
   14.7126   -0.1779   21.9448 H   0  0  0  0  0  0  0  0  0  0  0  0
   12.8087    0.7535   22.2952 C   0  0  0  0  0  0  0  0  0  0  0  0
   13.1907    1.7683   22.3226 H   0  0  0  0  0  0  0  0  0  0  0  0
   11.4434    0.5325   22.4558 C   0  0  0  0  0  0  0  0  0  0  0  0
   10.6526    1.6056   22.6316 F   0  0  0  0  0  0  0  0  0  0  0  0
    8.6553   -1.8372   23.2322 C   0  0  0  0  0  0  0  0  0  0  0  0
    9.0271   -2.3588   24.2640 O   0  0  0  0  0  0  0  0  0  0  0  0
    7.3379   -2.0970   22.8428 N   0  0  0  0  0  0  0  0  0  0  0  0
    6.9307   -2.7087   23.5355 H   0  0  0  0  0  0  0  0  0  0  0  0
    6.6753   -1.5213   21.8051 C   0  0  0  0  0  0  0  0  0  0  0  0
    5.6443   -1.8159   21.6319 H   0  0  0  0  0  0  0  0  0  0  0  0
    5.3825    0.7094   20.0456 C   0  0  0  0  0  0  0  0  0  0  0  0
    4.8986    0.7304   21.0233 H   0  0  0  0  0  0  0  0  0  0  0  0
    4.8068    1.3722   18.9578 C   0  0  0  0  0  0  0  0  0  0  0  0
    3.8820    1.9325   19.0580 H   0  0  0  0  0  0  0  0  0  0  0  0
  1  2  1  0
  2  3  2  0
  3  4  1  0
  4  5  1  0
  4  6  2  0
  6  7  1  0
  7  8  1  0
  8  9  1  0
  8 10  2  0
 10 11  1  0
 11 12  2  0
 12 13  1  0
 12 14  1  0
 14 15  1  0
 14 16  2  0
 16 17  1  0
 16 18  1  0
 18 19  1  0
 18 20  2  0
 20 21  1  0
 10 22  1  0
 22 23  2  0
 22 24  1  0
 24 25  1  0
 24 26  1  0
 26 27  1  0
  6 28  1  0
 28 29  1  0
 28 30  2  0
 30 31  1  0
 30  2  1  0
 26  7  2  0
 20 11  1  0
M  END
>  <cnnaffinity>  (1) 
-5.42929

>  <filename>  (1) 
[H]c1nc([H])c(-c2c([H])c(-c3c(F)c([H])c([H])c([H])c3F)c(=O)n([H])c2[H])c([H])c1[H]

$$$$
