
     RDKit          3D

 38 41  0  0  0  0  0  0  0  0999 V2000
    5.3647   -4.9694   21.7726 H   0  0  0  0  0  0  0  0  0  0  0  0
    6.0560   -4.4647   22.4497 C   0  0  0  0  0  0  0  0  0  0  0  0
    7.0125   -3.6759   21.9297 C   0  0  0  0  0  0  0  0  0  0  0  0
    7.0071   -3.5106   20.8498 H   0  0  0  0  0  0  0  0  0  0  0  0
    8.0653   -2.9748   22.7234 C   0  0  2  0  0  0  0  0  0  0  0  0
    8.4982   -3.6097   23.4987 H   0  0  0  0  0  0  0  0  0  0  0  0
    7.9555   -1.5011   23.0956 C   0  0  2  0  0  0  0  0  0  0  0  0
    8.2048   -1.1979   24.1076 H   0  0  0  0  0  0  0  0  0  0  0  0
    6.9170   -0.6796   22.3519 C   0  0  0  0  0  0  0  0  0  0  0  0
    6.8126    0.3227   22.7864 H   0  0  0  0  0  0  0  0  0  0  0  0
    5.9454   -1.1856   22.3931 H   0  0  0  0  0  0  0  0  0  0  0  0
    7.3991   -0.6116   20.9751 N   0  0  0  0  0  0  0  0  0  0  0  0
    6.6987   -0.0075   19.9430 C   0  0  0  0  0  0  0  0  0  0  0  0
    7.1868    0.0450   18.5984 C   0  0  0  0  0  0  0  0  0  0  0  0
    8.1326   -0.4233   18.3413 H   0  0  0  0  0  0  0  0  0  0  0  0
    6.5689    0.6607   17.5804 N   0  0  0  0  0  0  0  0  0  0  0  0
    5.4085    1.2819   17.8425 C   0  0  0  0  0  0  0  0  0  0  0  0
    4.9381    1.7869   17.0065 H   0  0  0  0  0  0  0  0  0  0  0  0
    4.8247    1.2898   19.1124 C   0  0  0  0  0  0  0  0  0  0  0  0
    3.8919    1.8216   19.2684 H   0  0  0  0  0  0  0  0  0  0  0  0
    5.4580    0.6357   20.1721 C   0  0  0  0  0  0  0  0  0  0  0  0
    5.0215    0.6322   21.1674 H   0  0  0  0  0  0  0  0  0  0  0  0
    8.6625   -1.3109   20.7876 C   0  0  0  0  0  0  0  0  0  0  0  0
    9.4454   -0.6142   20.4555 H   0  0  0  0  0  0  0  0  0  0  0  0
    8.5897   -2.0848   20.0312 H   0  0  0  0  0  0  0  0  0  0  0  0
    9.0017   -1.9330   22.1272 C   0  0  2  0  0  0  0  0  0  0  0  0
   10.0557   -1.9987   22.3747 H   0  0  0  0  0  0  0  0  0  0  0  0
    5.8215   -4.7504   23.8886 C   0  0  0  0  0  0  0  0  0  0  0  0
    5.8137   -3.7385   24.8636 C   0  0  0  0  0  0  0  0  0  0  0  0
    5.9518   -2.7060   24.5487 H   0  0  0  0  0  0  0  0  0  0  0  0
    5.6409   -4.0476   26.2165 C   0  0  0  0  0  0  0  0  0  0  0  0
    5.6535   -3.2538   26.9595 H   0  0  0  0  0  0  0  0  0  0  0  0
    5.4707   -5.3775   26.6128 C   0  0  0  0  0  0  0  0  0  0  0  0
    5.3455   -5.6243   27.6652 H   0  0  0  0  0  0  0  0  0  0  0  0
    5.4507   -6.3941   25.6513 C   0  0  0  0  0  0  0  0  0  0  0  0
    5.3235   -7.4292   25.9583 H   0  0  0  0  0  0  0  0  0  0  0  0
    5.6082   -6.0781   24.2995 C   0  0  0  0  0  0  0  0  0  0  0  0
    5.6093   -6.8626   23.5456 H   0  0  0  0  0  0  0  0  0  0  0  0
  1  2  1  0
  2  3  2  3
  3  4  1  0
  3  5  1  0
  5  6  1  1
  5  7  1  0
  7  8  1  1
  7  9  1  0
  9 10  1  0
  9 11  1  0
  9 12  1  0
 12 13  1  0
 13 14  2  0
 14 15  1  0
 14 16  1  0
 16 17  2  0
 17 18  1  0
 17 19  1  0
 19 20  1  0
 19 21  2  0
 21 22  1  0
 12 23  1  0
 23 24  1  0
 23 25  1  0
 23 26  1  0
 26 27  1  1
  2 28  1  0
 28 29  2  0
 29 30  1  0
 29 31  1  0
 31 32  1  0
 31 33  2  0
 33 34  1  0
 33 35  1  0
 35 36  1  0
 35 37  2  0
 37 38  1  0
 26  5  1  0
 37 28  1  0
 26  7  1  0
 21 13  1  0
M  END
>  <cnnaffinity>  (1) 
-5.99572

>  <filename>  (1) 
[H]C(=C([H])[C@]1([H])[C@]2([H])C([H])([H])N(c3c([H])nc([H])c([H])c3[H])C([H])([H])[C@]12[H])c1c([H])c([H])c([H])c([H])c1[H]

$$$$
