
     RDKit          3D

 41 44  0  0  0  0  0  0  0  0999 V2000
    4.9943    1.8410   16.9092 H   0  0  0  0  0  0  0  0  0  0  0  0
    5.3872    1.3114   17.7794 C   0  0  0  0  0  0  0  0  0  0  0  0
    6.5356    0.6434   17.6010 N   0  0  0  0  0  0  0  0  0  0  0  0
    7.0587    0.0219   18.6677 C   0  0  0  0  0  0  0  0  0  0  0  0
    7.9903   -0.5101   18.4807 H   0  0  0  0  0  0  0  0  0  0  0  0
    6.4768    0.0007   19.9532 C   0  0  0  0  0  0  0  0  0  0  0  0
    7.2277   -0.6037   21.0734 C   0  0  0  0  0  0  0  0  0  0  0  0
    8.5827   -0.5428   21.3015 C   0  0  0  0  0  0  0  0  0  0  0  0
    8.7924   -1.1202   22.5505 C   0  0  0  0  0  0  0  0  0  0  0  0
    7.6832   -1.5850   23.0906 N   0  0  0  0  0  0  0  0  0  0  0  0
    6.7311   -1.2541   22.1725 N   0  0  0  0  0  0  0  0  0  0  0  0
    5.7725   -1.5299   22.3542 H   0  0  0  0  0  0  0  0  0  0  0  0
   10.2320   -1.0230   22.9765 C   0  0  0  0  0  0  0  0  0  0  0  0
   10.3482   -0.7384   24.0281 H   0  0  0  0  0  0  0  0  0  0  0  0
   10.7348   -1.9881   22.8322 H   0  0  0  0  0  0  0  0  0  0  0  0
   10.8078    0.0545   21.9861 C   0  0  2  0  0  0  0  0  0  0  0  0
   11.8262   -0.2396   21.6971 H   0  0  0  0  0  0  0  0  0  0  0  0
   10.8887    1.4705   22.6148 C   0  0  0  0  0  0  0  0  0  0  0  0
   11.5085    1.3730   23.5220 H   0  0  0  0  0  0  0  0  0  0  0  0
    9.5215    2.0332   23.0411 C   0  0  0  0  0  0  0  0  0  0  0  0
    8.9600    1.3062   23.6339 H   0  0  0  0  0  0  0  0  0  0  0  0
    8.9143    2.2265   22.1466 H   0  0  0  0  0  0  0  0  0  0  0  0
    9.6875    3.3266   23.8370 C   0  0  0  0  0  0  0  0  0  0  0  0
   10.2349    3.1076   24.7611 H   0  0  0  0  0  0  0  0  0  0  0  0
    8.7048    3.7061   24.1376 H   0  0  0  0  0  0  0  0  0  0  0  0
   10.4480    4.4013   23.0538 C   0  0  0  0  0  0  0  0  0  0  0  0
    9.7782    4.8212   22.2941 H   0  0  0  0  0  0  0  0  0  0  0  0
   10.6896    5.2403   23.7175 H   0  0  0  0  0  0  0  0  0  0  0  0
   11.7440    3.8726   22.4052 C   0  0  0  0  0  0  0  0  0  0  0  0
   12.1155    4.6123   21.6852 H   0  0  0  0  0  0  0  0  0  0  0  0
   12.5184    3.7812   23.1787 H   0  0  0  0  0  0  0  0  0  0  0  0
   11.5933    2.5051   21.7101 C   0  0  0  0  0  0  0  0  0  0  0  0
   12.5872    2.1389   21.4288 H   0  0  0  0  0  0  0  0  0  0  0  0
   11.0384    2.6270   20.7700 H   0  0  0  0  0  0  0  0  0  0  0  0
    9.8591   -0.0120   20.7458 C   0  0  0  0  0  0  0  0  0  0  0  0
    9.7279    0.9489   20.2340 H   0  0  0  0  0  0  0  0  0  0  0  0
   10.2802   -0.7259   20.0339 H   0  0  0  0  0  0  0  0  0  0  0  0
    5.2546    0.6750   20.1061 C   0  0  0  0  0  0  0  0  0  0  0  0
    4.7487    0.6997   21.0727 H   0  0  0  0  0  0  0  0  0  0  0  0
    4.7124    1.3419   19.0059 C   0  0  0  0  0  0  0  0  0  0  0  0
    3.7953    1.9092   19.0829 H   0  0  0  0  0  0  0  0  0  0  0  0
  1  2  1  0
  2  3  2  0
  3  4  1  0
  4  5  1  0
  4  6  2  0
  6  7  1  0
  7  8  2  0
  8  9  1  0
  9 10  2  0
 10 11  1  0
 11 12  1  0
  9 13  1  0
 13 14  1  0
 13 15  1  0
 13 16  1  0
 16 17  1  6
 16 18  1  0
 18 19  1  0
 18 20  1  0
 20 21  1  0
 20 22  1  0
 20 23  1  0
 23 24  1  0
 23 25  1  0
 23 26  1  0
 26 27  1  0
 26 28  1  0
 26 29  1  0
 29 30  1  0
 29 31  1  0
 29 32  1  0
 32 33  1  0
 32 34  1  0
 16 35  1  0
 35 36  1  0
 35 37  1  0
  6 38  1  0
 38 39  1  0
 38 40  2  0
 40 41  1  0
 40  2  1  0
 11  7  1  0
 32 18  1  0
 35  8  1  0
M  END
>  <cnnaffinity>  (1) 
-5.7372

>  <filename>  (1) 
[H]c1nc([H])c(-c2c3c(nn2[H])C([H])([H])[C@]([H])(C2([H])C([H])([H])C([H])([H])C([H])([H])C([H])([H])C2([H])[H])C3([H])[H])c([H])c1[H]

$$$$
