
     RDKit          3D

 35 36  0  0  0  0  0  0  0  0999 V2000
    8.8503    1.9696   21.6583 C   0  0  0  0  0  0  0  0  0  0  0  0
    8.9752    0.5300   21.1482 C   0  0  0  0  0  0  0  0  0  0  0  0
    7.6138   -0.1004   20.8340 C   0  0  0  0  0  0  0  0  0  0  0  0
    7.7496   -1.5452   20.6316 N   0  0  0  0  0  0  0  0  0  0  0  0
    6.7403   -2.3362   21.1275 C   0  0  0  0  0  0  0  0  0  0  0  0
    5.6655   -1.9357   21.5184 O   0  0  0  0  0  0  0  0  0  0  0  0
    7.1661   -3.6690   21.1482 N   0  0  0  0  0  0  0  0  0  0  0  0
    6.3293   -4.6272   21.7257 C   0  0  0  0  0  0  0  0  0  0  0  0
    6.1276   -4.5828   23.1045 C   0  0  0  0  0  0  0  0  0  0  0  0
    5.2735   -5.5087   23.6902 C   0  0  0  0  0  0  0  0  0  0  0  0
    4.6155   -6.4454   22.9927 N   0  0  0  0  0  0  0  0  0  0  0  0
    4.7982   -6.4695   21.6707 C   0  0  0  0  0  0  0  0  0  0  0  0
    5.6432   -5.5933   20.9848 C   0  0  0  0  0  0  0  0  0  0  0  0
    5.7770   -5.6923   19.2586 Cl  0  0  0  0  0  0  0  0  0  0  0  0
    4.2496   -7.2046   21.0965 H   0  0  0  0  0  0  0  0  0  0  0  0
    5.0944   -5.5045   24.7605 H   0  0  0  0  0  0  0  0  0  0  0  0
    6.6298   -3.8261   23.6895 H   0  0  0  0  0  0  0  0  0  0  0  0
    7.5880   -3.9188   20.2676 H   0  0  0  0  0  0  0  0  0  0  0  0
    8.6515   -1.9539   20.8089 H   0  0  0  0  0  0  0  0  0  0  0  0
    6.8851    0.4850   19.6414 C   0  0  0  0  0  0  0  0  0  0  0  0
    5.6044    1.0443   19.7614 C   0  0  0  0  0  0  0  0  0  0  0  0
    4.9579    1.5120   18.6148 C   0  0  0  0  0  0  0  0  0  0  0  0
    5.6170    1.4145   17.3872 C   0  0  0  0  0  0  0  0  0  0  0  0
    6.8328    0.8684   17.2484 N   0  0  0  0  0  0  0  0  0  0  0  0
    7.4369    0.4131   18.3545 C   0  0  0  0  0  0  0  0  0  0  0  0
    8.4128   -0.0491   18.1956 H   0  0  0  0  0  0  0  0  0  0  0  0
    5.1510    1.7872   16.4738 H   0  0  0  0  0  0  0  0  0  0  0  0
    3.9745    1.9663   18.6585 H   0  0  0  0  0  0  0  0  0  0  0  0
    5.1191    1.0891   20.7408 H   0  0  0  0  0  0  0  0  0  0  0  0
    6.9646    0.0768   21.7069 H   0  0  0  0  0  0  0  0  0  0  0  0
    9.6094    0.4735   20.2543 H   0  0  0  0  0  0  0  0  0  0  0  0
    9.4561   -0.0869   21.9213 H   0  0  0  0  0  0  0  0  0  0  0  0
    8.3722    2.6154   20.9139 H   0  0  0  0  0  0  0  0  0  0  0  0
    9.8223    2.4020   21.9171 H   0  0  0  0  0  0  0  0  0  0  0  0
    8.2317    2.0048   22.5645 H   0  0  0  0  0  0  0  0  0  0  0  0
  1  2  1  0
  2  3  1  0
  3  4  1  0
  4  5  1  0
  5  6  2  0
  5  7  1  0
  7  8  1  0
  8  9  2  0
  9 10  1  0
 10 11  2  0
 11 12  1  0
 12 13  2  0
 13 14  1  0
 12 15  1  0
 10 16  1  0
  9 17  1  0
  7 18  1  0
  4 19  1  0
  3 20  1  0
 20 21  2  0
 21 22  1  0
 22 23  2  0
 23 24  1  0
 24 25  2  0
 25 26  1  0
 23 27  1  0
 22 28  1  0
 21 29  1  0
  3 30  1  0
  2 31  1  0
  2 32  1  0
  1 33  1  0
  1 34  1  0
  1 35  1  0
 13  8  1  0
 25 20  1  0
M  END
>  <cnnaffinity>  (1) 
-4.21739

>  <filename>  (1) 
[H]c1nc([H])c(C([H])(N([H])C(=O)N([H])c2c([H])c([H])nc([H])c2Cl)C([H])([H])C([H])([H])[H])c([H])c1[H]

$$$$
