
     RDKit          3D

 29 31  0  0  0  0  0  0  0  0999 V2000
    6.7584   -3.9603   23.0709 H   0  0  0  0  0  0  0  0  0  0  0  0
    7.4803   -3.2220   23.4303 C   0  0  0  0  0  0  0  0  0  0  0  0
    8.0002   -3.3899   24.6531 C   0  0  0  0  0  0  0  0  0  0  0  0
    7.8734   -4.9280   25.5168 S   0  0  0  0  0  0  0  0  0  0  0  0
    8.6258   -4.1986   26.9750 C   0  0  0  0  0  0  0  0  0  0  0  0
    8.9605   -4.7546   27.9773 O   0  0  0  0  0  0  0  0  0  0  0  0
    8.7843   -2.8601   26.7733 N   0  0  0  0  0  0  0  0  0  0  0  0
    9.2480   -2.3110   27.4688 H   0  0  0  0  0  0  0  0  0  0  0  0
    8.5862   -2.3506   25.5254 C   0  0  0  0  0  0  0  0  0  0  0  0
    8.8704   -1.2000   25.2819 O   0  0  0  0  0  0  0  0  0  0  0  0
    7.7653   -2.1591   22.5868 N   0  0  0  0  0  0  0  0  0  0  0  0
    6.8836   -1.8151   21.5708 C   0  0  0  0  0  0  0  0  0  0  0  0
    5.8195   -2.3309   21.3444 O   0  0  0  0  0  0  0  0  0  0  0  0
    7.4780   -0.7908   20.8300 N   0  0  0  0  0  0  0  0  0  0  0  0
    6.7704   -0.0507   19.8205 C   0  0  0  0  0  0  0  0  0  0  0  0
    7.2584    0.0629   18.5028 C   0  0  0  0  0  0  0  0  0  0  0  0
    8.2073   -0.4098   18.2580 H   0  0  0  0  0  0  0  0  0  0  0  0
    6.6072    0.7134   17.5327 N   0  0  0  0  0  0  0  0  0  0  0  0
    5.4415    1.2961   17.8548 C   0  0  0  0  0  0  0  0  0  0  0  0
    4.9310    1.8091   17.0456 H   0  0  0  0  0  0  0  0  0  0  0  0
    4.8838    1.2506   19.1369 C   0  0  0  0  0  0  0  0  0  0  0  0
    3.9490    1.7570   19.3360 H   0  0  0  0  0  0  0  0  0  0  0  0
    5.5523    0.5504   20.1451 C   0  0  0  0  0  0  0  0  0  0  0  0
    5.1596    0.4608   21.1590 H   0  0  0  0  0  0  0  0  0  0  0  0
    8.8082   -0.6185   21.1935 C   0  0  0  0  0  0  0  0  0  0  0  0
    9.6052    0.1013   20.6484 O   0  0  0  0  0  0  0  0  0  0  0  0
    9.0642   -1.5212   22.3787 C   0  0  0  0  0  0  0  0  0  0  0  0
    9.3668   -0.9316   23.2428 H   0  0  0  0  0  0  0  0  0  0  0  0
    9.8581   -2.2340   22.1360 H   0  0  0  0  0  0  0  0  0  0  0  0
  1  2  1  0
  2  3  2  3
  3  4  1  0
  4  5  1  0
  5  6  2  0
  5  7  1  0
  7  8  1  0
  7  9  1  0
  9 10  2  0
  2 11  1  0
 11 12  1  0
 12 13  2  0
 12 14  1  0
 14 15  1  0
 15 16  2  0
 16 17  1  0
 16 18  1  0
 18 19  2  0
 19 20  1  0
 19 21  1  0
 21 22  1  0
 21 23  2  0
 23 24  1  0
 14 25  1  0
 25 26  2  0
 25 27  1  0
 27 28  1  0
 27 29  1  0
  9  3  1  0
 27 11  1  0
 23 15  1  0
M  END
>  <cnnaffinity>  (1) 
-5.07509

>  <filename>  (1) 
[H]C(=C1SC(=O)N([H])C1=O)N1C(=O)N(c2c([H])nc([H])c([H])c2[H])C(=O)C1([H])[H]

$$$$
