
     RDKit          3D

 27 28  0  0  0  0  0  0  0  0999 V2000
    4.9143    1.7895   16.9890 H   0  0  0  0  0  0  0  0  0  0  0  0
    5.3954    1.2981   17.8302 C   0  0  0  0  0  0  0  0  0  0  0  0
    6.5586    0.6840   17.5605 N   0  0  0  0  0  0  0  0  0  0  0  0
    7.1557    0.0572   18.5786 C   0  0  0  0  0  0  0  0  0  0  0  0
    8.1154   -0.4123   18.3665 H   0  0  0  0  0  0  0  0  0  0  0  0
    6.6382   -0.0191   19.8853 C   0  0  0  0  0  0  0  0  0  0  0  0
    7.4081   -0.6988   20.9990 C   0  0  0  0  0  0  0  0  0  0  0  0
    6.7299   -1.0397   21.7869 H   0  0  0  0  0  0  0  0  0  0  0  0
    7.9528   -1.5760   20.6253 H   0  0  0  0  0  0  0  0  0  0  0  0
    8.4486    0.2213   21.6730 C   0  0  0  0  0  0  0  0  0  0  0  0
    9.1588   -0.5028   22.5808 F   0  0  0  0  0  0  0  0  0  0  0  0
    9.3718    0.5717   20.7122 F   0  0  0  0  0  0  0  0  0  0  0  0
    7.8501    1.4909   22.2811 C   0  0  0  0  0  0  0  0  0  0  0  0
    7.8868    2.6973   21.5611 C   0  0  0  0  0  0  0  0  0  0  0  0
    8.4149    2.7055   20.6139 H   0  0  0  0  0  0  0  0  0  0  0  0
    7.2660    3.8467   22.0432 C   0  0  0  0  0  0  0  0  0  0  0  0
    7.3118    4.7729   21.4768 H   0  0  0  0  0  0  0  0  0  0  0  0
    6.5879    3.8169   23.2590 C   0  0  0  0  0  0  0  0  0  0  0  0
    6.1121    4.7033   23.6648 H   0  0  0  0  0  0  0  0  0  0  0  0
    6.5119    2.6234   23.9791 C   0  0  0  0  0  0  0  0  0  0  0  0
    5.6536    2.6347   25.4838 Cl  0  0  0  0  0  0  0  0  0  0  0  0
    7.1238    1.4571   23.4860 C   0  0  0  0  0  0  0  0  0  0  0  0
    6.9648   -0.0185   24.3740 Cl  0  0  0  0  0  0  0  0  0  0  0  0
    5.4281    0.6409   20.1467 C   0  0  0  0  0  0  0  0  0  0  0  0
    5.0138    0.6338   21.1609 H   0  0  0  0  0  0  0  0  0  0  0  0
    4.8000    1.3133   19.0958 C   0  0  0  0  0  0  0  0  0  0  0  0
    3.8698    1.8486   19.2497 H   0  0  0  0  0  0  0  0  0  0  0  0
  1  2  1  0
  2  3  2  0
  3  4  1  0
  4  5  1  0
  4  6  2  0
  6  7  1  0
  7  8  1  0
  7  9  1  0
  7 10  1  0
 10 11  1  0
 10 12  1  0
 10 13  1  0
 13 14  2  0
 14 15  1  0
 14 16  1  0
 16 17  1  0
 16 18  2  0
 18 19  1  0
 18 20  1  0
 20 21  1  0
 20 22  2  0
 22 23  1  0
  6 24  1  0
 24 25  1  0
 24 26  2  0
 26 27  1  0
 26  2  1  0
 22 13  1  0
M  END
>  <cnnaffinity>  (1) 
-4.91422

>  <filename>  (1) 
[H]c1nc([H])c(C([H])([H])C(F)(F)c2c([H])c([H])c([H])c(Cl)c2Cl)c([H])c1[H]

$$$$
