
     RDKit          3D

 30 32  0  0  0  0  0  0  0  0999 V2000
    4.9175    1.7748   17.0039 H   0  0  0  0  0  0  0  0  0  0  0  0
    5.4094    1.2891   17.8466 C   0  0  0  0  0  0  0  0  0  0  0  0
    6.5758    0.6769   17.5907 N   0  0  0  0  0  0  0  0  0  0  0  0
    7.1726    0.0393   18.6024 C   0  0  0  0  0  0  0  0  0  0  0  0
    8.1207   -0.4403   18.3748 H   0  0  0  0  0  0  0  0  0  0  0  0
    6.6514   -0.0196   19.8984 C   0  0  0  0  0  0  0  0  0  0  0  0
    7.4011   -0.7521   20.9483 C   0  0  0  0  0  0  0  0  0  0  0  0
    7.7708   -2.0068   20.6583 N   0  0  0  0  0  0  0  0  0  0  0  0
    8.3686   -2.7201   21.6165 C   0  0  0  0  0  0  0  0  0  0  0  0
    8.6409   -3.7375   21.3565 H   0  0  0  0  0  0  0  0  0  0  0  0
    8.6668   -2.2275   22.8875 C   0  0  0  0  0  0  0  0  0  0  0  0
    9.1682   -2.8459   23.6193 H   0  0  0  0  0  0  0  0  0  0  0  0
    8.3147   -0.9218   23.1889 C   0  0  0  0  0  0  0  0  0  0  0  0
    8.5341   -0.4815   24.1624 H   0  0  0  0  0  0  0  0  0  0  0  0
    7.6822   -0.1501   22.2063 C   0  0  0  0  0  0  0  0  0  0  0  0
    7.3821    1.2809   22.5218 C   0  0  0  0  0  0  0  0  0  0  0  0
    7.9368    2.3371   21.7855 C   0  0  0  0  0  0  0  0  0  0  0  0
    8.7825    2.0464   20.7830 F   0  0  0  0  0  0  0  0  0  0  0  0
    7.6678    3.6749   22.0523 C   0  0  0  0  0  0  0  0  0  0  0  0
    8.1336    4.4439   21.4464 H   0  0  0  0  0  0  0  0  0  0  0  0
    6.7983    3.9797   23.0989 C   0  0  0  0  0  0  0  0  0  0  0  0
    6.5756    5.0163   23.3176 H   0  0  0  0  0  0  0  0  0  0  0  0
    6.2154    2.9732   23.8672 C   0  0  0  0  0  0  0  0  0  0  0  0
    5.5426    3.1911   24.6879 H   0  0  0  0  0  0  0  0  0  0  0  0
    6.5239    1.6507   23.5656 C   0  0  0  0  0  0  0  0  0  0  0  0
    5.9437    0.6876   24.3029 F   0  0  0  0  0  0  0  0  0  0  0  0
    5.4423    0.6421   20.1589 C   0  0  0  0  0  0  0  0  0  0  0  0
    5.0033    0.6319   21.1621 H   0  0  0  0  0  0  0  0  0  0  0  0
    4.8064    1.3062   19.1108 C   0  0  0  0  0  0  0  0  0  0  0  0
    3.8752    1.8426   19.2625 H   0  0  0  0  0  0  0  0  0  0  0  0
  1  2  1  0
  2  3  2  0
  3  4  1  0
  4  5  1  0
  4  6  2  0
  6  7  1  0
  7  8  2  0
  8  9  1  0
  9 10  1  0
  9 11  2  0
 11 12  1  0
 11 13  1  0
 13 14  1  0
 13 15  2  0
 15 16  1  0
 16 17  2  0
 17 18  1  0
 17 19  1  0
 19 20  1  0
 19 21  2  0
 21 22  1  0
 21 23  1  0
 23 24  1  0
 23 25  2  0
 25 26  1  0
  6 27  1  0
 27 28  1  0
 27 29  2  0
 29 30  1  0
 29  2  1  0
 15  7  1  0
 25 16  1  0
M  END
>  <cnnaffinity>  (1) 
-4.8309

>  <filename>  (1) 
[H]c1nc([H])c(-c2nc([H])c([H])c([H])c2-c2c(F)c([H])c([H])c([H])c2F)c([H])c1[H]

$$$$
