
     RDKit          3D

 36 37  0  0  0  0  0  0  0  0999 V2000
    5.0340    1.8697   16.8915 H   0  0  0  0  0  0  0  0  0  0  0  0
    5.4493    1.3355   17.7436 C   0  0  0  0  0  0  0  0  0  0  0  0
    6.5890    0.6603   17.5227 N   0  0  0  0  0  0  0  0  0  0  0  0
    7.1286   -0.0039   18.5539 C   0  0  0  0  0  0  0  0  0  0  0  0
    8.0398   -0.5688   18.3675 H   0  0  0  0  0  0  0  0  0  0  0  0
    6.5756   -0.0308   19.8577 C   0  0  0  0  0  0  0  0  0  0  0  0
    7.1699   -0.7242   20.9054 N   0  0  0  0  0  0  0  0  0  0  0  0
    6.6268   -0.8647   21.7584 H   0  0  0  0  0  0  0  0  0  0  0  0
    8.4143   -1.3294   20.7344 N   0  0  0  0  0  0  0  0  0  0  0  0
    8.5095   -2.6590   21.3278 C   0  0  0  0  0  0  0  0  0  0  0  0
    7.7162   -3.3042   20.9380 H   0  0  0  0  0  0  0  0  0  0  0  0
    9.4819   -3.0745   21.0428 H   0  0  0  0  0  0  0  0  0  0  0  0
    8.4619   -2.6377   22.4292 H   0  0  0  0  0  0  0  0  0  0  0  0
    9.5638   -0.4816   21.0650 C   0  0  0  0  0  0  0  0  0  0  0  0
   10.4549   -0.9761   20.6538 H   0  0  0  0  0  0  0  0  0  0  0  0
    9.4423    0.4876   20.5573 H   0  0  0  0  0  0  0  0  0  0  0  0
    9.6727   -0.3619   22.4972 N   0  0  0  0  0  0  0  0  0  0  0  0
    8.7713   -0.0299   22.8141 H   0  0  0  0  0  0  0  0  0  0  0  0
   10.7595    0.3576   23.1039 C   0  0  0  0  0  0  0  0  0  0  0  0
   11.7147   -0.1541   22.8807 H   0  0  0  0  0  0  0  0  0  0  0  0
   10.9353    1.8607   22.8028 C   0  0  0  0  0  0  0  0  0  0  0  0
   11.4682    2.0584   21.8656 H   0  0  0  0  0  0  0  0  0  0  0  0
    9.9465    2.3302   22.7125 H   0  0  0  0  0  0  0  0  0  0  0  0
   11.6667    2.4296   24.0478 C   0  0  0  0  0  0  0  0  0  0  0  0
   12.7219    2.6257   23.8393 H   0  0  0  0  0  0  0  0  0  0  0  0
   11.2451    3.3894   24.3584 H   0  0  0  0  0  0  0  0  0  0  0  0
   11.5037    1.3676   25.1642 C   0  0  0  0  0  0  0  0  0  0  0  0
   12.4623    0.8926   25.3933 H   0  0  0  0  0  0  0  0  0  0  0  0
   11.1027    1.7843   26.0868 H   0  0  0  0  0  0  0  0  0  0  0  0
   10.5160    0.3568   24.6049 C   0  0  0  0  0  0  0  0  0  0  0  0
   10.5498   -0.6423   25.0502 H   0  0  0  0  0  0  0  0  0  0  0  0
    9.5039    0.7481   24.7804 H   0  0  0  0  0  0  0  0  0  0  0  0
    5.3770    0.6771   20.0613 C   0  0  0  0  0  0  0  0  0  0  0  0
    4.9164    0.6899   21.0518 H   0  0  0  0  0  0  0  0  0  0  0  0
    4.8048    1.3623   18.9881 C   0  0  0  0  0  0  0  0  0  0  0  0
    3.8798    1.9242   19.0953 H   0  0  0  0  0  0  0  0  0  0  0  0
  1  2  1  0
  2  3  2  0
  3  4  1  0
  4  5  1  0
  4  6  2  0
  6  7  1  0
  7  8  1  0
  7  9  1  0
  9 10  1  0
 10 11  1  0
 10 12  1  0
 10 13  1  0
  9 14  1  0
 14 15  1  0
 14 16  1  0
 14 17  1  0
 17 18  1  0
 17 19  1  0
 19 20  1  0
 19 21  1  0
 21 22  1  0
 21 23  1  0
 21 24  1  0
 24 25  1  0
 24 26  1  0
 24 27  1  0
 27 28  1  0
 27 29  1  0
 27 30  1  0
 30 31  1  0
 30 32  1  0
  6 33  1  0
 33 34  1  0
 33 35  2  0
 35 36  1  0
 35  2  1  0
 30 19  1  0
M  END
>  <cnnaffinity>  (1) 
-4.13225

>  <filename>  (1) 
[H]c1nc([H])c(N([H])N(C([H])([H])[H])C([H])([H])N([H])C2([H])C([H])([H])C([H])([H])C([H])([H])C2([H])[H])c([H])c1[H]

$$$$
