
     RDKit          3D

 37 40  0  0  0  0  0  0  0  0999 V2000
    4.8860    1.9180   16.5885 H   0  0  0  0  0  0  0  0  0  0  0  0
    5.2299    1.4944   17.5282 C   0  0  0  0  0  0  0  0  0  0  0  0
    6.3880    0.8190   17.4660 N   0  0  0  0  0  0  0  0  0  0  0  0
    6.8548    0.3058   18.6091 C   0  0  0  0  0  0  0  0  0  0  0  0
    7.8077   -0.2231   18.5320 H   0  0  0  0  0  0  0  0  0  0  0  0
    6.2200    0.4308   19.8592 C   0  0  0  0  0  0  0  0  0  0  0  0
    6.8832   -0.1189   21.0974 C   0  0  1  0  0  0  0  0  0  0  0  0
    6.2776    0.1436   21.9716 H   0  0  0  0  0  0  0  0  0  0  0  0
    7.0128   -1.6753   21.0809 C   0  0  0  0  0  0  0  0  0  0  0  0
    6.8061   -2.1115   20.0994 H   0  0  0  0  0  0  0  0  0  0  0  0
    6.3237   -2.1504   21.7776 H   0  0  0  0  0  0  0  0  0  0  0  0
    8.4304   -1.9025   21.4704 C   0  0  0  0  0  0  0  0  0  0  0  0
    9.1297   -2.9905   21.7102 N   0  0  0  0  0  0  0  0  0  0  0  0
   10.3668   -2.5038   21.9588 N   0  0  0  0  0  0  0  0  0  0  0  0
   11.0883   -3.1715   22.1853 H   0  0  0  0  0  0  0  0  0  0  0  0
   10.4601   -1.1412   21.8685 C   0  0  0  0  0  0  0  0  0  0  0  0
   11.7150   -0.3905   22.0465 C   0  0  0  0  0  0  0  0  0  0  0  0
   12.9546   -1.0375   22.2227 C   0  0  0  0  0  0  0  0  0  0  0  0
   13.0314   -2.1191   22.1403 H   0  0  0  0  0  0  0  0  0  0  0  0
   14.1035   -0.2952   22.4975 C   0  0  0  0  0  0  0  0  0  0  0  0
   15.0445   -0.7942   22.6574 H   0  0  0  0  0  0  0  0  0  0  0  0
   14.0446    1.0980   22.6084 C   0  0  0  0  0  0  0  0  0  0  0  0
   14.9275    1.6741   22.8513 H   0  0  0  0  0  0  0  0  0  0  0  0
   12.8330    1.7357   22.3389 C   0  0  0  0  0  0  0  0  0  0  0  0
   12.7632    3.2118   22.3469 N   0  0  0  0  0  4  0  0  0  0  0  0
   13.4801    3.8145   23.1277 O   0  0  0  0  0  0  0  0  0  0  0  0
   11.9904    3.7426   21.5653 O   0  0  0  0  0  1  0  0  0  0  0  0
   11.6882    1.0134   22.0192 C   0  0  0  0  0  0  0  0  0  0  0  0
   10.7960    1.5494   21.7148 H   0  0  0  0  0  0  0  0  0  0  0  0
    9.1718   -0.7328   21.5712 C   0  0  0  0  0  0  0  0  0  0  0  0
    8.3187    0.4783   21.3207 C   0  0  0  0  0  0  0  0  0  0  0  0
    8.6520    1.0375   20.4343 H   0  0  0  0  0  0  0  0  0  0  0  0
    8.3178    1.1988   22.1509 H   0  0  0  0  0  0  0  0  0  0  0  0
    4.9903    1.1013   19.8874 C   0  0  0  0  0  0  0  0  0  0  0  0
    4.4492    1.2047   20.8291 H   0  0  0  0  0  0  0  0  0  0  0  0
    4.4887    1.6452   18.7029 C   0  0  0  0  0  0  0  0  0  0  0  0
    3.5559    2.1975   18.6804 H   0  0  0  0  0  0  0  0  0  0  0  0
  1  2  1  0
  2  3  2  0
  3  4  1  0
  4  5  1  0
  4  6  2  0
  6  7  1  0
  7  8  1  1
  7  9  1  0
  9 10  1  0
  9 11  1  0
  9 12  1  0
 12 13  2  0
 13 14  1  0
 14 15  1  0
 14 16  1  0
 16 17  1  0
 17 18  2  0
 18 19  1  0
 18 20  1  0
 20 21  1  0
 20 22  2  0
 22 23  1  0
 22 24  1  0
 24 25  1  0
 25 26  2  0
 25 27  1  0
 24 28  2  0
 28 29  1  0
 16 30  2  0
 30 31  1  0
 31 32  1  0
 31 33  1  0
  6 34  1  0
 34 35  1  0
 34 36  2  0
 36 37  1  0
 36  2  1  0
 31  7  1  0
 30 12  1  0
 28 17  1  0
M  CHG  2  25   1  27  -1
M  END
>  <cnnaffinity>  (1) 
-6.05563

>  <filename>  (1) 
[H]c1nc([H])c([C@@]2([H])C([H])([H])c3nn([H])c(-c4c([H])c([H])c([H])c([N+](=O)[O-])c4[H])c3C2([H])[H])c([H])c1[H]

$$$$
