
     RDKit          3D

 35 38  0  0  0  0  0  0  0  0999 V2000
    9.6737   -1.4700   27.1274 F   0  0  0  0  0  0  0  0  0  0  0  0
    8.6552   -1.8563   26.3433 C   0  0  0  0  0  0  0  0  0  0  0  0
    8.5785   -1.3142   25.0482 C   0  0  0  0  0  0  0  0  0  0  0  0
    7.5308   -1.6620   24.1831 C   0  0  0  0  0  0  0  0  0  0  0  0
    7.5370   -1.2241   22.7708 C   0  0  0  0  0  0  0  0  0  0  0  0
    6.6081   -0.5867   22.0812 N   0  0  0  0  0  0  0  0  0  0  0  0
    7.1867   -0.3740   20.8798 C   0  0  0  0  0  0  0  0  0  0  0  0
    6.5229    0.2813   19.7598 C   0  0  0  0  0  0  0  0  0  0  0  0
    5.2944    0.9440   19.8638 C   0  0  0  0  0  0  0  0  0  0  0  0
    4.7554    1.4920   18.7003 C   0  0  0  0  0  0  0  0  0  0  0  0
    5.4607    1.3588   17.4986 C   0  0  0  0  0  0  0  0  0  0  0  0
    6.6398    0.7315   17.3964 N   0  0  0  0  0  0  0  0  0  0  0  0
    7.1625    0.2250   18.5141 C   0  0  0  0  0  0  0  0  0  0  0  0
    8.1394   -0.2458   18.4263 H   0  0  0  0  0  0  0  0  0  0  0  0
    5.0697    1.7761   16.5742 H   0  0  0  0  0  0  0  0  0  0  0  0
    3.8155    2.0288   18.7046 H   0  0  0  0  0  0  0  0  0  0  0  0
    4.7851    1.0262   20.8257 H   0  0  0  0  0  0  0  0  0  0  0  0
    8.4162   -0.8408   20.7714 N   0  0  0  0  0  0  0  0  0  0  0  0
    8.6509   -1.3832   21.9822 N   0  0  0  0  0  0  0  0  0  0  0  0
    9.8872   -2.1339   22.1021 C   0  0  0  0  0  0  0  0  0  0  0  0
   11.1538   -1.2958   22.2304 C   0  0  0  0  0  0  0  0  0  0  0  0
   12.2038   -2.1411   22.1798 F   0  0  0  0  0  0  0  0  0  0  0  0
   11.3226   -0.3766   21.2829 F   0  0  0  0  0  0  0  0  0  0  0  0
   11.2163   -0.6530   23.4123 F   0  0  0  0  0  0  0  0  0  0  0  0
    9.8487   -2.8250   22.9437 H   0  0  0  0  0  0  0  0  0  0  0  0
   10.0094   -2.6965   21.1766 H   0  0  0  0  0  0  0  0  0  0  0  0
    6.4998   -2.4897   24.7273 C   0  0  0  0  0  0  0  0  0  0  0  0
    5.3152   -2.9690   24.2069 N   0  0  0  0  0  0  0  0  0  0  0  0
    4.7448   -3.7193   25.0776 N   0  0  0  0  0  0  0  0  0  0  0  0
    5.5209   -3.7755   26.1739 N   0  0  0  0  0  0  0  0  0  0  0  0
    6.6440   -3.0300   26.0253 C   0  0  0  0  0  0  0  0  0  0  0  0
    7.7409   -2.7524   26.8597 C   0  0  0  0  0  0  0  0  0  0  0  0
    7.9064   -3.2120   27.8228 H   0  0  0  0  0  0  0  0  0  0  0  0
    5.2101   -4.3447   26.9428 H   0  0  0  0  0  0  0  0  0  0  0  0
    9.3540   -0.6107   24.7582 H   0  0  0  0  0  0  0  0  0  0  0  0
  1  2  1  0
  2  3  2  0
  3  4  1  0
  4  5  1  0
  5  6  2  0
  6  7  1  0
  7  8  1  0
  8  9  2  0
  9 10  1  0
 10 11  2  0
 11 12  1  0
 12 13  2  0
 13 14  1  0
 11 15  1  0
 10 16  1  0
  9 17  1  0
  7 18  2  0
 18 19  1  0
 19 20  1  0
 20 21  1  0
 21 22  1  0
 21 23  1  0
 21 24  1  0
 20 25  1  0
 20 26  1  0
  4 27  2  0
 27 28  1  0
 28 29  2  0
 29 30  1  0
 30 31  1  0
 31 32  2  0
 32 33  1  0
 30 34  1  0
  3 35  1  0
 32  2  1  0
 19  5  1  0
 31 27  1  0
 13  8  1  0
M  END
>  <cnnaffinity>  (1) 
-5.8744

>  <filename>  (1) 
[H]c1nc([H])c(-c2nc(-c3c([H])c(F)c([H])c4c3nnn4[H])n(C([H])([H])C(F)(F)F)n2)c([H])c1[H]

$$$$
