
     RDKit          3D

 35 37  0  0  0  0  0  0  0  0999 V2000
    5.9118   -2.3304   21.3919 O   0  0  0  0  0  0  0  0  0  0  0  0
    6.8147   -1.6124   21.7600 C   0  0  0  0  0  0  0  0  0  0  0  0
    7.5275   -1.8027   23.1423 C   0  0  0  0  0  0  0  0  0  0  0  0
    7.2408   -0.8866   24.2691 N   0  0  0  0  0  0  0  0  0  0  0  0
    7.6952    0.3947   24.3241 C   0  0  0  0  0  0  0  0  0  0  0  0
    8.3521    0.8710   23.4000 O   0  0  0  0  0  0  0  0  0  0  0  0
    7.3311    1.1975   25.5639 C   0  0  0  0  0  0  0  0  0  0  0  0
    7.0985    0.6298   26.8066 C   0  0  0  0  0  0  0  0  0  0  0  0
    6.8078    1.4376   27.8864 N   0  0  0  0  0  0  0  0  0  0  0  0
    6.5560    0.9886   29.1278 N   0  0  0  0  0  0  0  0  0  0  0  0
    6.3348    2.0958   29.8398 C   0  0  0  0  0  0  0  0  0  0  0  0
    6.4344    3.2662   29.0770 C   0  0  0  0  0  0  0  0  0  0  0  0
    6.7357    2.8256   27.7934 C   0  0  0  0  0  0  0  0  0  0  0  0
    6.9770    3.4314   26.5257 C   0  0  0  0  0  0  0  0  0  0  0  0
    7.2822    2.6367   25.4472 C   0  0  0  0  0  0  0  0  0  0  0  0
    7.5008    3.1049   24.4825 H   0  0  0  0  0  0  0  0  0  0  0  0
    6.9068    4.5114   26.4731 H   0  0  0  0  0  0  0  0  0  0  0  0
    6.2921    4.2887   29.3873 H   0  0  0  0  0  0  0  0  0  0  0  0
    6.0930    1.9919   30.8910 H   0  0  0  0  0  0  0  0  0  0  0  0
    7.1378   -0.4159   27.0991 H   0  0  0  0  0  0  0  0  0  0  0  0
    6.5478   -1.1354   24.9568 H   0  0  0  0  0  0  0  0  0  0  0  0
    7.2783   -2.8159   23.4595 H   0  0  0  0  0  0  0  0  0  0  0  0
    8.6056   -1.7520   22.9457 H   0  0  0  0  0  0  0  0  0  0  0  0
    7.3882   -0.6210   20.9787 N   0  0  0  0  0  0  0  0  0  0  0  0
    6.7012   -0.0349   19.8645 C   0  0  0  0  0  0  0  0  0  0  0  0
    5.4714    0.5835   20.0932 C   0  0  0  0  0  0  0  0  0  0  0  0
    4.8615    1.2748   19.0398 C   0  0  0  0  0  0  0  0  0  0  0  0
    5.4822    1.2819   17.7846 C   0  0  0  0  0  0  0  0  0  0  0  0
    6.6433    0.6487   17.5382 N   0  0  0  0  0  0  0  0  0  0  0  0
    7.2383    0.0127   18.5593 C   0  0  0  0  0  0  0  0  0  0  0  0
    8.1909   -0.4719   18.3511 H   0  0  0  0  0  0  0  0  0  0  0  0
    5.0360    1.8326   16.9573 H   0  0  0  0  0  0  0  0  0  0  0  0
    3.9327    1.8097   19.1925 H   0  0  0  0  0  0  0  0  0  0  0  0
    5.0297    0.5291   21.0891 H   0  0  0  0  0  0  0  0  0  0  0  0
    7.8839    0.0572   21.5532 H   0  0  0  0  0  0  0  0  0  0  0  0
  1  2  2  0
  2  3  1  0
  3  4  1  0
  4  5  1  0
  5  6  2  0
  5  7  1  0
  7  8  2  0
  8  9  1  0
  9 10  1  0
 10 11  2  0
 11 12  1  0
 12 13  2  0
 13 14  1  0
 14 15  2  0
 15 16  1  0
 14 17  1  0
 12 18  1  0
 11 19  1  0
  8 20  1  0
  4 21  1  0
  3 22  1  0
  3 23  1  0
  2 24  1  0
 24 25  1  0
 25 26  2  0
 26 27  1  0
 27 28  2  0
 28 29  1  0
 29 30  2  0
 30 31  1  0
 28 32  1  0
 27 33  1  0
 26 34  1  0
 24 35  1  0
 15  7  1  0
 30 25  1  0
 13  9  1  0
M  END
>  <cnnaffinity>  (1) 
-4.95248

>  <filename>  (1) 
[H]c1nc([H])c(N([H])C(=O)C([H])([H])N([H])C(=O)c2c([H])c([H])c3c([H])c([H])nn3c2[H])c([H])c1[H]

$$$$
