
     RDKit          3D

 35 37  0  0  0  0  0  0  0  0999 V2000
    4.9749    1.7908   17.0039 H   0  0  0  0  0  0  0  0  0  0  0  0
    5.4380    1.2790   17.8456 C   0  0  0  0  0  0  0  0  0  0  0  0
    6.6085    0.6748   17.5952 N   0  0  0  0  0  0  0  0  0  0  0  0
    7.2136    0.0581   18.6155 C   0  0  0  0  0  0  0  0  0  0  0  0
    8.1731   -0.4015   18.3859 H   0  0  0  0  0  0  0  0  0  0  0  0
    6.6892   -0.0279   19.9220 C   0  0  0  0  0  0  0  0  0  0  0  0
    7.4821   -0.7221   21.0152 C   0  0  2  0  0  0  0  0  0  0  0  0
    7.0581   -0.4877   22.0058 H   0  0  0  0  0  0  0  0  0  0  0  0
    8.8848   -0.3816   20.9267 N   0  0  0  0  0  0  0  0  0  0  0  0
    9.2431    0.4554   21.3508 H   0  0  0  0  0  0  0  0  0  0  0  0
    9.6723   -1.4652   21.2058 C   0  0  0  0  0  0  0  0  0  0  0  0
   10.8125   -1.4269   21.5689 O   0  0  0  0  0  0  0  0  0  0  0  0
    8.9581   -2.6010   21.0198 O   0  0  0  0  0  0  0  0  0  0  0  0
    7.5790   -2.2935   20.9302 C   0  0  1  0  0  0  0  0  0  0  0  0
    7.1905   -2.5709   19.9465 H   0  0  0  0  0  0  0  0  0  0  0  0
    6.8248   -3.0623   21.8894 N   0  0  0  0  0  0  0  0  0  0  0  0
    7.3193   -3.5677   23.1037 C   0  0  0  0  0  0  0  0  0  0  0  0
    8.2518   -2.8373   23.8620 C   0  0  0  0  0  0  0  0  0  0  0  0
    8.5798   -1.8710   23.4961 H   0  0  0  0  0  0  0  0  0  0  0  0
    8.7378   -3.3417   25.0720 C   0  0  0  0  0  0  0  0  0  0  0  0
    9.4693   -2.7633   25.6389 H   0  0  0  0  0  0  0  0  0  0  0  0
    8.2839   -4.5776   25.5488 C   0  0  0  0  0  0  0  0  0  0  0  0
    8.6580   -4.9765   26.4903 H   0  0  0  0  0  0  0  0  0  0  0  0
    7.3372   -5.3037   24.8176 C   0  0  0  0  0  0  0  0  0  0  0  0
    6.9477   -6.2402   25.2134 H   0  0  0  0  0  0  0  0  0  0  0  0
    6.8594   -4.8059   23.5987 C   0  0  0  0  0  0  0  0  0  0  0  0
    6.1349   -5.3760   23.0274 H   0  0  0  0  0  0  0  0  0  0  0  0
    5.4237   -3.2205   21.5472 C   0  0  0  0  0  0  0  0  0  0  0  0
    5.2188   -4.1202   20.9390 H   0  0  0  0  0  0  0  0  0  0  0  0
    5.1555   -2.3461   20.9529 H   0  0  0  0  0  0  0  0  0  0  0  0
    4.7962   -3.2385   22.4455 H   0  0  0  0  0  0  0  0  0  0  0  0
    5.4570    0.6003   20.1544 C   0  0  0  0  0  0  0  0  0  0  0  0
    4.9953    0.5778   21.1427 H   0  0  0  0  0  0  0  0  0  0  0  0
    4.8246    1.2697   19.1004 C   0  0  0  0  0  0  0  0  0  0  0  0
    3.8821    1.7882   19.2364 H   0  0  0  0  0  0  0  0  0  0  0  0
  1  2  1  0
  2  3  2  0
  3  4  1  0
  4  5  1  0
  4  6  2  0
  6  7  1  0
  7  8  1  1
  7  9  1  0
  9 10  1  0
  9 11  1  0
 11 12  2  0
 11 13  1  0
 13 14  1  0
 14 15  1  6
 14 16  1  0
 16 17  1  0
 17 18  2  0
 18 19  1  0
 18 20  1  0
 20 21  1  0
 20 22  2  0
 22 23  1  0
 22 24  1  0
 24 25  1  0
 24 26  2  0
 26 27  1  0
 16 28  1  0
 28 29  1  0
 28 30  1  0
 28 31  1  0
  6 32  1  0
 32 33  1  0
 32 34  2  0
 34 35  1  0
 34  2  1  0
 14  7  1  0
 26 17  1  0
M  END
>  <cnnaffinity>  (1) 
-4.74287

>  <filename>  (1) 
[H]c1nc([H])c([C@]2([H])N([H])C(=O)O[C@@]2([H])N(c2c([H])c([H])c([H])c([H])c2[H])C([H])([H])[H])c([H])c1[H]

$$$$
