
     RDKit          3D

 25 26  0  0  0  0  0  0  0  0999 V2000
    7.0602    4.1424   22.8050 H   0  0  0  0  0  0  0  0  0  0  0  0
    7.9184    3.5167   22.5362 C   0  0  0  0  0  0  0  0  0  0  0  0
    9.1176    4.0881   22.5806 N   0  0  0  0  0  0  0  0  0  0  0  0
   10.1106    3.2736   22.2506 C   0  0  0  0  0  0  0  0  0  0  0  0
   11.3272    3.8431   22.2618 N   0  0  0  0  0  0  0  0  0  0  0  0
   11.1140    4.8189   22.1248 H   0  0  0  0  0  0  0  0  0  0  0  0
   11.8430    3.3725   21.5363 H   0  0  0  0  0  0  0  0  0  0  0  0
   10.0785    2.0327   21.8288 N   0  0  0  0  0  0  0  0  0  0  0  0
    8.8519    1.5551   21.7348 C   0  0  0  0  0  0  0  0  0  0  0  0
    8.9062    0.3509   21.0858 N   0  0  0  0  0  0  0  0  0  0  0  0
    9.8562    0.0530   21.2357 H   0  0  0  0  0  0  0  0  0  0  0  0
    7.6318   -0.7490   21.2323 S   0  0  0  0  0  4  0  0  0  0  0  0
    6.9599   -0.4387   22.5127 O   0  0  0  0  0  0  0  0  0  0  0  0
    6.6987    0.0378   19.9298 C   0  0  0  0  0  0  0  0  0  0  0  0
    7.2732    0.1082   18.6603 C   0  0  0  0  0  0  0  0  0  0  0  0
    8.2450   -0.3337   18.4368 H   0  0  0  0  0  0  0  0  0  0  0  0
    6.6652    0.6994   17.6275 N   0  0  0  0  0  0  0  0  0  0  0  0
    5.4750    1.2767   17.8546 C   0  0  0  0  0  0  0  0  0  0  0  0
    5.0029    1.7592   17.0020 H   0  0  0  0  0  0  0  0  0  0  0  0
    4.8390    1.2658   19.0991 C   0  0  0  0  0  0  0  0  0  0  0  0
    3.8964    1.7811   19.2320 H   0  0  0  0  0  0  0  0  0  0  0  0
    5.4555    0.6223   20.1724 C   0  0  0  0  0  0  0  0  0  0  0  0
    5.0120    0.6101   21.1706 H   0  0  0  0  0  0  0  0  0  0  0  0
    7.7121    2.2095   22.1745 C   0  0  0  0  0  0  0  0  0  0  0  0
    6.7676    1.7133   22.2873 H   0  0  0  0  0  0  0  0  0  0  0  0
  1  2  1  0
  2  3  2  0
  3  4  1  0
  4  5  1  0
  5  6  1  0
  5  7  1  0
  4  8  2  0
  8  9  1  0
  9 10  1  0
 10 11  1  0
 12 10  1  1
 12 13  2  0
 12 14  1  0
 14 15  2  0
 15 16  1  0
 15 17  1  0
 17 18  2  0
 18 19  1  0
 18 20  1  0
 20 21  1  0
 20 22  2  0
 22 23  1  0
  9 24  2  0
 24 25  1  0
 24  2  1  0
 22 14  1  0
M  END
>  <cnnaffinity>  (1) 
-4.61018

>  <filename>  (1) 
[H]c1nc(N([H])[H])nc(N([H])[S@@](=O)c2c([H])nc([H])c([H])c2[H])c1[H]

$$$$
