
     RDKit          3D

 36 38  0  0  0  0  0  0  0  0999 V2000
    9.3647    0.6636   20.7760 C   0  0  0  0  0  0  0  0  0  0  0  0
    8.5642   -0.4690   21.3737 C   0  0  0  0  0  0  0  0  0  0  0  0
    9.0620   -1.2526   22.4189 C   0  0  0  0  0  0  0  0  0  0  0  0
    8.3990   -2.2375   22.9943 N   0  0  0  0  0  0  0  0  0  0  0  0
    7.1991   -2.4892   22.4637 C   0  0  0  0  0  0  0  0  0  0  0  0
    6.6371   -3.5893   23.0080 N   0  0  0  0  0  0  0  0  0  0  0  0
    5.1813   -3.8124   22.9350 C   0  0  0  0  0  0  0  0  0  0  0  0
    4.6220   -4.9771   23.7477 C   0  0  0  0  0  0  0  0  0  0  0  0
    3.7333   -4.6699   24.7091 N   0  0  0  0  0  0  0  0  0  0  0  0
    3.2442   -5.6493   25.4740 C   0  0  0  0  0  0  0  0  0  0  0  0
    3.5923   -6.9912   25.3081 C   0  0  0  0  0  0  0  0  0  0  0  0
    4.4720   -7.3383   24.2820 C   0  0  0  0  0  0  0  0  0  0  0  0
    4.9909   -6.3145   23.4896 C   0  0  0  0  0  0  0  0  0  0  0  0
    6.0437   -6.7291   22.1684 Cl  0  0  0  0  0  0  0  0  0  0  0  0
    4.7573   -8.3679   24.0859 H   0  0  0  0  0  0  0  0  0  0  0  0
    3.1821   -7.7394   25.9724 H   0  0  0  0  0  0  0  0  0  0  0  0
    2.5357   -5.3421   26.2377 H   0  0  0  0  0  0  0  0  0  0  0  0
    4.9458   -3.9934   21.8794 H   0  0  0  0  0  0  0  0  0  0  0  0
    4.6106   -2.9407   23.2660 H   0  0  0  0  0  0  0  0  0  0  0  0
    7.1545   -3.6524   23.8728 H   0  0  0  0  0  0  0  0  0  0  0  0
    6.5633   -1.8099   21.5328 N   0  0  0  0  0  0  0  0  0  0  0  0
    7.2471   -0.7986   20.9994 C   0  0  0  0  0  0  0  0  0  0  0  0
    6.5414   -0.0457   19.9556 C   0  0  0  0  0  0  0  0  0  0  0  0
    5.3289    0.6236   20.1572 C   0  0  0  0  0  0  0  0  0  0  0  0
    4.7860    1.3274   19.0794 C   0  0  0  0  0  0  0  0  0  0  0  0
    5.4487    1.2970   17.8421 C   0  0  0  0  0  0  0  0  0  0  0  0
    6.5813    0.6126   17.6292 N   0  0  0  0  0  0  0  0  0  0  0  0
    7.0960   -0.0424   18.6749 C   0  0  0  0  0  0  0  0  0  0  0  0
    8.0170   -0.5874   18.4861 H   0  0  0  0  0  0  0  0  0  0  0  0
    5.0417    1.8228   16.9801 H   0  0  0  0  0  0  0  0  0  0  0  0
    3.8598    1.8885   19.1731 H   0  0  0  0  0  0  0  0  0  0  0  0
    4.8253    0.5941   21.1283 H   0  0  0  0  0  0  0  0  0  0  0  0
   10.0650   -1.0592   22.8117 H   0  0  0  0  0  0  0  0  0  0  0  0
   10.2804    0.8433   21.3471 H   0  0  0  0  0  0  0  0  0  0  0  0
    9.6348    0.4525   19.7405 H   0  0  0  0  0  0  0  0  0  0  0  0
    8.7787    1.5865   20.7428 H   0  0  0  0  0  0  0  0  0  0  0  0
  1  2  1  0
  2  3  2  0
  3  4  1  0
  4  5  2  0
  5  6  1  0
  6  7  1  0
  7  8  1  0
  8  9  2  0
  9 10  1  0
 10 11  2  0
 11 12  1  0
 12 13  2  0
 13 14  1  0
 12 15  1  0
 11 16  1  0
 10 17  1  0
  7 18  1  0
  7 19  1  0
  6 20  1  0
  5 21  1  0
 21 22  2  0
 22 23  1  0
 23 24  2  0
 24 25  1  0
 25 26  2  0
 26 27  1  0
 27 28  2  0
 28 29  1  0
 26 30  1  0
 25 31  1  0
 24 32  1  0
  3 33  1  0
  1 34  1  0
  1 35  1  0
  1 36  1  0
 22  2  1  0
 28 23  1  0
 13  8  1  0
M  END
>  <cnnaffinity>  (1) 
-5.75466

>  <filename>  (1) 
[H]c1nc(C([H])([H])N([H])c2nc([H])c(C([H])([H])[H])c(-c3c([H])nc([H])c([H])c3[H])n2)c(Cl)c([H])c1[H]

$$$$
