
     RDKit          3D

 45 49  0  0  0  0  0  0  0  0999 V2000
    9.4229    6.1194   26.6902 C   0  0  0  0  0  0  0  0  0  0  0  0
    9.1850    4.9850   25.7281 C   0  0  0  0  0  0  0  0  0  0  0  0
    9.9109    4.9017   24.5217 C   0  0  0  0  0  0  0  0  0  0  0  0
    9.8081    3.8994   23.6606 N   0  0  0  0  0  0  0  0  0  0  0  0
    8.8985    2.9221   23.8798 C   0  0  0  0  0  0  0  0  0  0  0  0
    8.7547    1.8583   22.8342 C   0  0  0  0  0  0  0  0  0  0  0  0
    7.7586    0.9994   22.6577 N   0  0  0  0  0  0  0  0  0  0  0  0
    8.1262    0.3242   21.5459 C   0  0  0  0  0  0  0  0  0  0  0  0
    7.2703   -0.7253   20.8975 C   0  0  0  0  0  0  0  0  0  0  0  0
    6.4817   -0.1283   19.7354 C   0  0  0  0  0  0  0  0  0  0  0  0
    5.3031    0.5907   19.9754 C   0  0  0  0  0  0  0  0  0  0  0  0
    4.7319    1.3215   18.9317 C   0  0  0  0  0  0  0  0  0  0  0  0
    5.3535    1.3026   17.6800 C   0  0  0  0  0  0  0  0  0  0  0  0
    6.4585    0.5908   17.4142 N   0  0  0  0  0  0  0  0  0  0  0  0
    6.9969   -0.1013   18.4261 C   0  0  0  0  0  0  0  0  0  0  0  0
    7.9039   -0.6566   18.1850 H   0  0  0  0  0  0  0  0  0  0  0  0
    4.9473    1.8874   16.8564 H   0  0  0  0  0  0  0  0  0  0  0  0
    3.8410    1.9220   19.0788 H   0  0  0  0  0  0  0  0  0  0  0  0
    4.8460    0.5902   20.9680 H   0  0  0  0  0  0  0  0  0  0  0  0
    6.6110   -1.1204   21.6776 H   0  0  0  0  0  0  0  0  0  0  0  0
    7.9227   -1.5381   20.5580 H   0  0  0  0  0  0  0  0  0  0  0  0
    9.2803    0.6910   21.0222 N   0  0  0  0  0  0  0  0  0  0  0  0
    9.6938    1.6667   21.8534 N   0  0  0  0  0  0  0  0  0  0  0  0
   11.0389    2.1390   21.8454 C   0  0  0  0  0  0  0  0  0  0  0  0
   11.5640    3.0100   20.8995 C   0  0  0  0  0  0  0  0  0  0  0  0
   12.7306    3.7609   21.1793 C   0  0  0  0  0  0  0  0  0  0  0  0
   13.4938    3.4979   22.3178 C   0  0  0  0  0  0  0  0  0  0  0  0
   13.0682    2.4472   23.1569 C   0  0  0  0  0  0  0  0  0  0  0  0
   11.8545    1.7900   22.9184 C   0  0  0  0  0  0  0  0  0  0  0  0
   11.7344    0.8588   23.9241 N   0  0  0  0  0  0  0  0  0  0  0  0
   12.8554    0.9676   24.6821 C   0  0  0  0  0  0  0  0  0  0  0  0
   13.6674    1.8810   24.2513 N   0  0  0  0  0  0  0  0  0  0  0  0
   13.0234    0.3548   25.5578 H   0  0  0  0  0  0  0  0  0  0  0  0
   11.0148    0.1615   24.0149 H   0  0  0  0  0  0  0  0  0  0  0  0
   14.4389    3.9942   22.5253 H   0  0  0  0  0  0  0  0  0  0  0  0
   13.0330    4.5478   20.4898 H   0  0  0  0  0  0  0  0  0  0  0  0
   11.0715    3.1161   19.9474 H   0  0  0  0  0  0  0  0  0  0  0  0
    8.1244    2.9242   25.0596 C   0  0  0  0  0  0  0  0  0  0  0  0
    7.2378    1.9556   25.2918 F   0  0  0  0  0  0  0  0  0  0  0  0
    8.2745    3.9492   25.9954 C   0  0  0  0  0  0  0  0  0  0  0  0
    7.6760    3.9141   26.9055 H   0  0  0  0  0  0  0  0  0  0  0  0
   10.5973    5.6984   24.2418 H   0  0  0  0  0  0  0  0  0  0  0  0
    9.7920    7.0071   26.1650 H   0  0  0  0  0  0  0  0  0  0  0  0
    8.5060    6.3965   27.2200 H   0  0  0  0  0  0  0  0  0  0  0  0
   10.1754    5.8410   27.4371 H   0  0  0  0  0  0  0  0  0  0  0  0
  1  2  1  0
  2  3  2  0
  3  4  1  0
  4  5  2  0
  5  6  1  0
  6  7  2  0
  7  8  1  0
  8  9  1  0
  9 10  1  0
 10 11  2  0
 11 12  1  0
 12 13  2  0
 13 14  1  0
 14 15  2  0
 15 16  1  0
 13 17  1  0
 12 18  1  0
 11 19  1  0
  9 20  1  0
  9 21  1  0
  8 22  2  0
 22 23  1  0
 23 24  1  0
 24 25  2  0
 25 26  1  0
 26 27  2  0
 27 28  1  0
 28 29  2  0
 29 30  1  0
 30 31  1  0
 31 32  2  0
 31 33  1  0
 30 34  1  0
 27 35  1  0
 26 36  1  0
 25 37  1  0
  5 38  1  0
 38 39  1  0
 38 40  2  0
 40 41  1  0
  3 42  1  0
  1 43  1  0
  1 44  1  0
  1 45  1  0
 40  2  1  0
 23  6  1  0
 29 24  1  0
 15 10  1  0
 32 28  1  0
M  END
>  <cnnaffinity>  (1) 
-6.45757

>  <filename>  (1) 
[H]c1nc([H])c(C([H])([H])c2nc(-c3nc([H])c(C([H])([H])[H])c([H])c3F)n(-c3c([H])c([H])c([H])c4nc([H])n([H])c34)n2)c([H])c1[H]

$$$$
