
     RDKit          3D

 42 44  0  0  0  0  0  0  0  0999 V2000
    5.5724   -0.8401   25.3060 C   0  0  0  0  0  0  0  0  0  0  0  0
    6.3236   -2.1099   24.9150 C   0  0  0  0  0  0  0  0  0  0  0  0
    7.7020   -1.8913   24.2314 C   0  0  0  0  0  0  0  0  0  0  0  0
    7.6580   -1.4882   22.7599 C   0  0  0  0  0  0  0  0  0  0  0  0
    6.7515   -0.7638   22.1302 N   0  0  0  0  0  0  0  0  0  0  0  0
    7.1931   -0.7221   20.8493 C   0  0  0  0  0  0  0  0  0  0  0  0
    6.5216    0.0200   19.7888 C   0  0  0  0  0  0  0  0  0  0  0  0
    5.3235    0.7183   20.0017 C   0  0  0  0  0  0  0  0  0  0  0  0
    4.7626    1.3902   18.9184 C   0  0  0  0  0  0  0  0  0  0  0  0
    5.4282    1.3562   17.6870 C   0  0  0  0  0  0  0  0  0  0  0  0
    6.5841    0.7087   17.4801 N   0  0  0  0  0  0  0  0  0  0  0  0
    7.1184    0.0588   18.5178 C   0  0  0  0  0  0  0  0  0  0  0  0
    8.0653   -0.4483   18.3305 H   0  0  0  0  0  0  0  0  0  0  0  0
    5.0110    1.8691   16.8255 H   0  0  0  0  0  0  0  0  0  0  0  0
    3.8391    1.9507   19.0166 H   0  0  0  0  0  0  0  0  0  0  0  0
    4.8573    0.7473   20.9895 H   0  0  0  0  0  0  0  0  0  0  0  0
    8.3096   -1.3884   20.6519 N   0  0  0  0  0  0  0  0  0  0  0  0
    8.6226   -1.8610   21.8765 N   0  0  0  0  0  0  0  0  0  0  0  0
    9.9109   -2.5078   22.0583 C   0  0  0  0  0  0  0  0  0  0  0  0
   10.9818   -1.7041   22.8000 C   0  0  0  0  0  0  0  0  0  0  0  0
   11.4699   -0.4439   22.1323 C   0  0  0  0  0  0  0  0  0  0  0  0
   10.5698    0.5540   22.1241 F   0  0  0  0  0  0  0  0  0  0  0  0
   11.8214   -0.6937   20.8592 F   0  0  0  0  0  0  0  0  0  0  0  0
   12.5635    0.0240   22.7679 F   0  0  0  0  0  0  0  0  0  0  0  0
   10.6546   -1.4333   23.8049 H   0  0  0  0  0  0  0  0  0  0  0  0
   11.8650   -2.3389   22.8803 H   0  0  0  0  0  0  0  0  0  0  0  0
    9.7661   -3.4532   22.5926 H   0  0  0  0  0  0  0  0  0  0  0  0
   10.2458   -2.7320   21.0436 H   0  0  0  0  0  0  0  0  0  0  0  0
    8.5855   -0.9833   25.0049 N   0  0  0  0  0  0  0  0  0  0  0  0
    9.3512   -1.3376   26.0989 C   0  0  0  0  0  0  0  0  0  0  0  0
    9.9885   -0.1988   26.5102 C   0  0  0  0  0  0  0  0  0  0  0  0
    9.6427    0.8520   25.7076 N   0  0  0  0  0  0  0  0  0  0  0  0
    8.7948    0.3638   24.8379 C   0  0  0  0  0  0  0  0  0  0  0  0
    8.2927    0.9370   24.0668 H   0  0  0  0  0  0  0  0  0  0  0  0
   10.6650   -0.0687   27.3467 H   0  0  0  0  0  0  0  0  0  0  0  0
    9.3823   -2.3397   26.4960 H   0  0  0  0  0  0  0  0  0  0  0  0
    8.1982   -2.8675   24.2660 H   0  0  0  0  0  0  0  0  0  0  0  0
    6.4981   -2.7184   25.8145 H   0  0  0  0  0  0  0  0  0  0  0  0
    5.7162   -2.7374   24.2483 H   0  0  0  0  0  0  0  0  0  0  0  0
    5.5103   -0.1351   24.4693 H   0  0  0  0  0  0  0  0  0  0  0  0
    4.5509   -1.0838   25.6152 H   0  0  0  0  0  0  0  0  0  0  0  0
    6.0729   -0.3390   26.1426 H   0  0  0  0  0  0  0  0  0  0  0  0
  1  2  1  0
  2  3  1  0
  3  4  1  0
  4  5  2  0
  5  6  1  0
  6  7  1  0
  7  8  2  0
  8  9  1  0
  9 10  2  0
 10 11  1  0
 11 12  2  0
 12 13  1  0
 10 14  1  0
  9 15  1  0
  8 16  1  0
  6 17  2  0
 17 18  1  0
 18 19  1  0
 19 20  1  0
 20 21  1  0
 21 22  1  0
 21 23  1  0
 21 24  1  0
 20 25  1  0
 20 26  1  0
 19 27  1  0
 19 28  1  0
  3 29  1  0
 29 30  1  0
 30 31  2  0
 31 32  1  0
 32 33  2  0
 33 34  1  0
 31 35  1  0
 30 36  1  0
  3 37  1  0
  2 38  1  0
  2 39  1  0
  1 40  1  0
  1 41  1  0
  1 42  1  0
 18  4  1  0
 33 29  1  0
 12  7  1  0
M  END
>  <cnnaffinity>  (1) 
-5.84973

>  <filename>  (1) 
[H]c1nc([H])c(-c2nc(C([H])(n3c([H])nc([H])c3[H])C([H])([H])C([H])([H])[H])n(C([H])([H])C([H])([H])C(F)(F)F)n2)c([H])c1[H]

$$$$
