
     RDKit          3D

 34 37  0  0  0  0  0  0  0  0999 V2000
    4.9178    1.7790   16.9990 H   0  0  0  0  0  0  0  0  0  0  0  0
    5.4023    1.2942   17.8412 C   0  0  0  0  0  0  0  0  0  0  0  0
    6.5670    0.6796   17.5782 N   0  0  0  0  0  0  0  0  0  0  0  0
    7.1678    0.0595   18.5955 C   0  0  0  0  0  0  0  0  0  0  0  0
    8.1140   -0.4337   18.3792 H   0  0  0  0  0  0  0  0  0  0  0  0
    6.6506    0.0245   19.8977 C   0  0  0  0  0  0  0  0  0  0  0  0
    7.4042   -0.7093   20.9162 C   0  0  0  0  0  0  0  0  0  0  0  0
    7.8182   -1.9449   20.8151 N   0  0  0  0  0  0  0  0  0  0  0  0
    8.4538   -2.2722   21.9852 N   0  0  0  0  0  0  0  0  0  0  0  0
    8.4240   -1.2135   22.7444 C   0  0  0  0  0  0  0  0  0  0  0  0
    8.8564   -1.1283   23.7321 H   0  0  0  0  0  0  0  0  0  0  0  0
    7.7912   -0.1788   22.1178 N   0  0  0  0  0  0  0  0  0  0  0  0
    7.5650    1.1531   22.6606 C   0  0  0  0  0  0  0  0  0  0  0  0
    7.4943    1.8646   21.8333 H   0  0  0  0  0  0  0  0  0  0  0  0
    8.4534    1.4495   23.2291 H   0  0  0  0  0  0  0  0  0  0  0  0
    6.3514    1.2492   23.5324 C   0  0  0  0  0  0  0  0  0  0  0  0
    6.0439    0.4436   24.5895 C   0  0  0  0  0  0  0  0  0  0  0  0
    6.5984   -0.4108   24.9694 H   0  0  0  0  0  0  0  0  0  0  0  0
    4.8610    0.8696   25.1571 N   0  0  0  0  0  0  0  0  0  0  0  0
    4.4027    0.4615   25.9506 H   0  0  0  0  0  0  0  0  0  0  0  0
    4.3940    1.9631   24.4725 C   0  0  0  0  0  0  0  0  0  0  0  0
    3.2428    2.7408   24.6735 C   0  0  0  0  0  0  0  0  0  0  0  0
    2.5620    2.4977   25.4888 H   0  0  0  0  0  0  0  0  0  0  0  0
    3.0358    3.8090   23.8064 C   0  0  0  0  0  0  0  0  0  0  0  0
    2.1564    4.4334   23.9368 H   0  0  0  0  0  0  0  0  0  0  0  0
    3.9506    4.1042   22.7567 C   0  0  0  0  0  0  0  0  0  0  0  0
    3.7623    4.9461   22.0933 H   0  0  0  0  0  0  0  0  0  0  0  0
    5.0848    3.3260   22.5646 C   0  0  0  0  0  0  0  0  0  0  0  0
    5.7932    3.5389   21.7633 H   0  0  0  0  0  0  0  0  0  0  0  0
    5.3168    2.2377   23.4337 C   0  0  0  0  0  0  0  0  0  0  0  0
    5.4318    0.6642   20.1600 C   0  0  0  0  0  0  0  0  0  0  0  0
    5.0033    0.6418   21.1679 H   0  0  0  0  0  0  0  0  0  0  0  0
    4.7986    1.3164   19.1054 C   0  0  0  0  0  0  0  0  0  0  0  0
    3.8651    1.8480   19.2582 H   0  0  0  0  0  0  0  0  0  0  0  0
  1  2  1  0
  2  3  2  0
  3  4  1  0
  4  5  1  0
  4  6  2  0
  6  7  1  0
  7  8  2  0
  8  9  1  0
  9 10  2  0
 10 11  1  0
 10 12  1  0
 12 13  1  0
 13 14  1  0
 13 15  1  0
 13 16  1  0
 16 17  2  0
 17 18  1  0
 17 19  1  0
 19 20  1  0
 19 21  1  0
 21 22  2  0
 22 23  1  0
 22 24  1  0
 24 25  1  0
 24 26  2  0
 26 27  1  0
 26 28  1  0
 28 29  1  0
 28 30  2  0
  6 31  1  0
 31 32  1  0
 31 33  2  0
 33 34  1  0
 33  2  1  0
 12  7  1  0
 30 16  1  0
 30 21  1  0
M  END
>  <cnnaffinity>  (1) 
-4.97087

>  <filename>  (1) 
[H]c1nc([H])c(-c2nnc([H])n2C([H])([H])c2c([H])n([H])c3c([H])c([H])c([H])c([H])c23)c([H])c1[H]

$$$$
