
     RDKit          3D

 50 54  0  0  0  0  0  0  0  0999 V2000
    7.0407    1.6991   25.3897 C   0  0  0  0  0  0  0  0  0  0  0  0
    7.2804    3.0381   24.6717 C   0  0  0  0  0  0  0  0  0  0  0  0
    6.0406    3.4856   23.9210 C   0  0  0  0  0  0  0  0  0  0  0  0
    6.1979    4.4689   23.4664 H   0  0  0  0  0  0  0  0  0  0  0  0
    5.2109    3.5574   24.6304 H   0  0  0  0  0  0  0  0  0  0  0  0
    5.7848    2.7648   23.1383 H   0  0  0  0  0  0  0  0  0  0  0  0
    7.5669    4.0569   25.6395 O   0  0  0  0  0  0  0  0  0  0  0  0
    8.8822    3.8350   26.1116 C   0  0  0  0  0  0  0  0  0  0  0  0
    9.6619    3.2830   24.9076 C   0  0  0  0  0  0  0  0  0  0  0  0
    8.5778    3.0936   23.8247 C   0  0  0  0  0  0  0  0  0  0  0  0
    8.7730    1.9799   22.8853 N   0  0  0  0  0  0  0  0  0  0  0  0
    7.7137    1.2589   22.4458 N   0  0  0  0  0  0  0  0  0  0  0  0
    8.2621    0.3467   21.6657 C   0  0  0  0  0  0  0  0  0  0  0  0
    7.4297   -0.6620   20.9095 C   0  0  0  0  0  0  0  0  0  0  0  0
    6.6289   -0.0657   19.7493 C   0  0  0  0  0  0  0  0  0  0  0  0
    5.4164    0.5972   19.9858 C   0  0  0  0  0  0  0  0  0  0  0  0
    4.8003    1.2882   18.9392 C   0  0  0  0  0  0  0  0  0  0  0  0
    5.4054    1.2761   17.6816 C   0  0  0  0  0  0  0  0  0  0  0  0
    6.5315    0.5968   17.4123 N   0  0  0  0  0  0  0  0  0  0  0  0
    7.1120   -0.0562   18.4270 C   0  0  0  0  0  0  0  0  0  0  0  0
    8.0300   -0.5937   18.1810 H   0  0  0  0  0  0  0  0  0  0  0  0
    4.9625    1.8271   16.8525 H   0  0  0  0  0  0  0  0  0  0  0  0
    3.8842    1.8486   19.0904 H   0  0  0  0  0  0  0  0  0  0  0  0
    4.9739    0.5896   20.9826 H   0  0  0  0  0  0  0  0  0  0  0  0
    8.1085   -1.4446   20.5566 H   0  0  0  0  0  0  0  0  0  0  0  0
    6.7423   -1.1313   21.6250 H   0  0  0  0  0  0  0  0  0  0  0  0
    9.6105    0.4236   21.5755 N   0  0  0  0  0  0  0  0  0  0  0  0
    9.9079    1.4872   22.3122 C   0  0  0  0  0  0  0  0  0  0  0  0
   11.2242    2.1257   22.4329 C   0  0  0  0  0  0  0  0  0  0  0  0
   11.3617    3.5209   22.3612 C   0  0  0  0  0  0  0  0  0  0  0  0
   12.6005    4.1705   22.5496 C   0  0  0  0  0  0  0  0  0  0  0  0
   13.7509    3.4440   22.7901 C   0  0  0  0  0  0  0  0  0  0  0  0
   13.6261    2.0372   22.8038 C   0  0  0  0  0  0  0  0  0  0  0  0
   12.4060    1.3563   22.6084 C   0  0  0  0  0  0  0  0  0  0  0  0
   12.7873   -0.0279   22.6594 C   0  0  0  0  0  0  0  0  0  0  0  0
   14.0797   -0.1740   22.8788 N   0  0  0  0  0  0  0  0  0  0  0  0
   14.5703    1.0777   22.9550 N   0  0  0  0  0  0  0  0  0  0  0  0
   15.5232    1.2390   23.2328 H   0  0  0  0  0  0  0  0  0  0  0  0
   12.1602   -0.9024   22.5590 H   0  0  0  0  0  0  0  0  0  0  0  0
   14.7108    3.9157   22.9537 H   0  0  0  0  0  0  0  0  0  0  0  0
   12.6509    5.2554   22.5416 H   0  0  0  0  0  0  0  0  0  0  0  0
   10.4978    4.1561   22.2249 H   0  0  0  0  0  0  0  0  0  0  0  0
    8.5021    4.0201   23.2447 H   0  0  0  0  0  0  0  0  0  0  0  0
   10.4588    3.9637   24.6019 H   0  0  0  0  0  0  0  0  0  0  0  0
   10.1306    2.3301   25.1558 H   0  0  0  0  0  0  0  0  0  0  0  0
    9.2662    4.7826   26.4997 H   0  0  0  0  0  0  0  0  0  0  0  0
    8.8703    3.1032   26.9312 H   0  0  0  0  0  0  0  0  0  0  0  0
    7.9702    1.2505   25.7617 H   0  0  0  0  0  0  0  0  0  0  0  0
    6.3871    1.8956   26.2451 H   0  0  0  0  0  0  0  0  0  0  0  0
    6.5613    0.9805   24.7243 H   0  0  0  0  0  0  0  0  0  0  0  0
  1  2  1  0
  2  3  1  0
  3  4  1  0
  3  5  1  0
  3  6  1  0
  2  7  1  0
  7  8  1  0
  8  9  1  0
  9 10  1  0
 10 11  1  0
 11 12  1  0
 12 13  2  0
 13 14  1  0
 14 15  1  0
 15 16  2  0
 16 17  1  0
 17 18  2  0
 18 19  1  0
 19 20  2  0
 20 21  1  0
 18 22  1  0
 17 23  1  0
 16 24  1  0
 14 25  1  0
 14 26  1  0
 13 27  1  0
 27 28  2  0
 28 29  1  0
 29 30  2  0
 30 31  1  0
 31 32  2  0
 32 33  1  0
 33 34  2  0
 34 35  1  0
 35 36  2  0
 36 37  1  0
 37 38  1  0
 35 39  1  0
 32 40  1  0
 31 41  1  0
 30 42  1  0
 10 43  1  0
  9 44  1  0
  9 45  1  0
  8 46  1  0
  8 47  1  0
  1 48  1  0
  1 49  1  0
  1 50  1  0
 10  2  1  0
 28 11  1  0
 34 29  1  0
 20 15  1  0
 37 33  1  0
M  END
>  <cnnaffinity>  (1) 
-6.48451

>  <filename>  (1) 
[H]c1nc([H])c(C([H])([H])c2nc(-c3c([H])c([H])c([H])c4c3c([H])nn4[H])n(C3([H])C([H])([H])C([H])([H])OC3(C([H])([H])[H])C([H])([H])[H])n2)c([H])c1[H]

$$$$
