
     RDKit          3D

 39 41  0  0  0  0  0  0  0  0999 V2000
    6.6030   -1.6256   21.8513 C   0  0  0  0  0  0  0  0  0  0  0  0
    7.4806   -0.7141   20.9931 C   0  0  0  0  0  0  0  0  0  0  0  0
    8.2649    0.3028   21.8750 C   0  0  0  0  0  0  0  0  0  0  0  0
    7.4322    1.4268   22.4776 C   0  0  0  0  0  0  0  0  0  0  0  0
    7.3239    2.4996   21.9381 O   0  0  0  0  0  0  0  0  0  0  0  0
    6.8259    1.1502   23.6921 N   0  0  0  0  0  0  0  0  0  0  0  0
    5.7724    1.8778   24.2015 C   0  0  0  0  0  0  0  0  0  0  0  0
    5.1268    2.7653   23.5355 N   0  0  0  0  0  0  0  0  0  0  0  0
    4.1115    3.2943   24.3006 C   0  0  0  0  0  0  0  0  0  0  0  0
    3.2472    4.3074   23.8631 C   0  0  0  0  0  0  0  0  0  0  0  0
    3.4534    4.8719   22.4873 C   0  0  0  0  0  0  0  0  0  0  0  0
    4.6544    5.4529   22.3405 F   0  0  0  0  0  0  0  0  0  0  0  0
    2.5296    5.8208   22.2129 F   0  0  0  0  0  0  0  0  0  0  0  0
    3.3441    3.9445   21.5182 F   0  0  0  0  0  0  0  0  0  0  0  0
    2.2390    4.7488   24.7209 C   0  0  0  0  0  0  0  0  0  0  0  0
    2.0912    4.1908   25.9965 C   0  0  0  0  0  0  0  0  0  0  0  0
    2.9411    3.1883   26.4601 C   0  0  0  0  0  0  0  0  0  0  0  0
    3.9562    2.7547   25.5996 C   0  0  0  0  0  0  0  0  0  0  0  0
    5.1962    1.5399   25.8460 S   0  0  0  0  0  0  0  0  0  0  0  0
    2.8090    2.7647   27.4551 H   0  0  0  0  0  0  0  0  0  0  0  0
    1.2960    4.5473   26.6402 H   0  0  0  0  0  0  0  0  0  0  0  0
    1.5627    5.5328   24.3942 H   0  0  0  0  0  0  0  0  0  0  0  0
    7.1348    0.3395   24.1927 H   0  0  0  0  0  0  0  0  0  0  0  0
    8.9949    0.8243   21.2521 H   0  0  0  0  0  0  0  0  0  0  0  0
    8.8096   -0.2321   22.6586 H   0  0  0  0  0  0  0  0  0  0  0  0
    6.6754   -0.0043   19.9080 C   0  0  0  0  0  0  0  0  0  0  0  0
    5.4557    0.6498   20.1503 C   0  0  0  0  0  0  0  0  0  0  0  0
    4.8079    1.3088   19.1004 C   0  0  0  0  0  0  0  0  0  0  0  0
    5.3929    1.2950   17.8296 C   0  0  0  0  0  0  0  0  0  0  0  0
    6.5510    0.6718   17.5637 N   0  0  0  0  0  0  0  0  0  0  0  0
    7.1629    0.0593   18.5871 C   0  0  0  0  0  0  0  0  0  0  0  0
    8.1094   -0.4215   18.3365 H   0  0  0  0  0  0  0  0  0  0  0  0
    4.9238    1.8065   16.9900 H   0  0  0  0  0  0  0  0  0  0  0  0
    3.8920    1.8683   19.2763 H   0  0  0  0  0  0  0  0  0  0  0  0
    5.0112    0.6809   21.1489 H   0  0  0  0  0  0  0  0  0  0  0  0
    8.2303   -1.3343   20.4796 H   0  0  0  0  0  0  0  0  0  0  0  0
    5.9578   -0.9987   22.4579 H   0  0  0  0  0  0  0  0  0  0  0  0
    5.9781   -2.2897   21.2455 H   0  0  0  0  0  0  0  0  0  0  0  0
    7.1961   -2.2460   22.5311 H   0  0  0  0  0  0  0  0  0  0  0  0
  1  2  1  0
  2  3  1  0
  3  4  1  0
  4  5  2  0
  4  6  1  0
  6  7  1  0
  7  8  2  0
  8  9  1  0
  9 10  2  0
 10 11  1  0
 11 12  1  0
 11 13  1  0
 11 14  1  0
 10 15  1  0
 15 16  2  0
 16 17  1  0
 17 18  2  0
 18 19  1  0
 17 20  1  0
 16 21  1  0
 15 22  1  0
  6 23  1  0
  3 24  1  0
  3 25  1  0
  2 26  1  0
 26 27  2  0
 27 28  1  0
 28 29  2  0
 29 30  1  0
 30 31  2  0
 31 32  1  0
 29 33  1  0
 28 34  1  0
 27 35  1  0
  2 36  1  0
  1 37  1  0
  1 38  1  0
  1 39  1  0
 19  7  1  0
 31 26  1  0
 18  9  1  0
M  END
>  <cnnaffinity>  (1) 
-5.22329

>  <filename>  (1) 
[H]c1nc([H])c(C([H])(C([H])([H])[H])C([H])([H])C(=O)N([H])c2nc3c(C(F)(F)F)c([H])c([H])c([H])c3s2)c([H])c1[H]

$$$$
