
     RDKit          3D

 32 34  0  0  0  0  0  0  0  0999 V2000
    4.9227    1.7756   16.9017 H   0  0  0  0  0  0  0  0  0  0  0  0
    5.3747    1.3702   17.8031 C   0  0  0  0  0  0  0  0  0  0  0  0
    6.5640    0.7728   17.6349 N   0  0  0  0  0  0  0  0  0  0  0  0
    7.1205    0.2229   18.7201 C   0  0  0  0  0  0  0  0  0  0  0  0
    8.0755   -0.2758   18.5571 H   0  0  0  0  0  0  0  0  0  0  0  0
    6.5589    0.2525   20.0160 C   0  0  0  0  0  0  0  0  0  0  0  0
    7.2150   -0.4834   21.1362 C   0  0  0  0  0  0  0  0  0  0  0  0
    7.5711    0.1211   22.4043 C   0  0  0  0  0  0  0  0  0  0  0  0
    7.3342    1.1542   22.6441 H   0  0  0  0  0  0  0  0  0  0  0  0
    8.2407   -0.5191   23.3235 N   0  0  0  0  0  0  0  0  0  0  0  0
    8.6304   -1.8022   23.0702 N   0  0  0  0  0  0  0  0  0  0  0  0
    9.3400   -2.4883   24.1541 C   0  0  0  0  0  0  0  0  0  0  0  0
    9.7323   -1.7217   24.8267 H   0  0  0  0  0  0  0  0  0  0  0  0
   10.1826   -3.0372   23.7295 H   0  0  0  0  0  0  0  0  0  0  0  0
    8.4455   -3.4423   24.9197 C   0  0  0  0  0  0  0  0  0  0  0  0
    8.5719   -4.8314   24.8135 C   0  0  0  0  0  0  0  0  0  0  0  0
    9.2709   -5.2816   24.1185 H   0  0  0  0  0  0  0  0  0  0  0  0
    7.7221   -5.6487   25.5588 C   0  0  0  0  0  0  0  0  0  0  0  0
    7.8440   -6.7279   25.5300 H   0  0  0  0  0  0  0  0  0  0  0  0
    6.7366   -5.1791   26.3325 N   0  0  0  0  0  0  0  0  0  0  0  0
    6.5817   -3.8498   26.3845 C   0  0  0  0  0  0  0  0  0  0  0  0
    5.7384   -3.4929   26.9718 H   0  0  0  0  0  0  0  0  0  0  0  0
    7.4113   -2.9439   25.7201 C   0  0  0  0  0  0  0  0  0  0  0  0
    7.2265   -1.8776   25.8097 H   0  0  0  0  0  0  0  0  0  0  0  0
    8.2645   -2.5695   21.9374 C   0  0  0  0  0  0  0  0  0  0  0  0
    8.5641   -3.7508   21.8156 O   0  0  0  0  0  0  0  0  0  0  0  0
    7.5266   -1.7987   20.9604 C   0  0  0  0  0  0  0  0  0  0  0  0
    7.2049   -2.3453   20.0909 H   0  0  0  0  0  0  0  0  0  0  0  0
    5.3376    0.9221   20.1701 C   0  0  0  0  0  0  0  0  0  0  0  0
    4.8712    0.9867   21.1543 H   0  0  0  0  0  0  0  0  0  0  0  0
    4.7244    1.4642   19.0362 C   0  0  0  0  0  0  0  0  0  0  0  0
    3.7531    1.9408   19.0870 H   0  0  0  0  0  0  0  0  0  0  0  0
  1  2  1  0
  2  3  2  0
  3  4  1  0
  4  5  1  0
  4  6  2  0
  6  7  1  0
  7  8  1  0
  8  9  1  0
  8 10  2  0
 10 11  1  0
 11 12  1  0
 12 13  1  0
 12 14  1  0
 12 15  1  0
 15 16  2  0
 16 17  1  0
 16 18  1  0
 18 19  1  0
 18 20  2  0
 20 21  1  0
 21 22  1  0
 21 23  2  0
 23 24  1  0
 11 25  1  0
 25 26  2  0
 25 27  1  0
 27 28  1  0
  6 29  1  0
 29 30  1  0
 29 31  2  0
 31 32  1  0
 31  2  1  0
 27  7  2  0
 23 15  1  0
M  END
>  <cnnaffinity>  (1) 
-5.11167

>  <filename>  (1) 
[H]c1nc([H])c(-c2c([H])nn(C([H])([H])c3c([H])c([H])nc([H])c3[H])c(=O)c2[H])c([H])c1[H]

$$$$
