
     RDKit          3D

 36 38  0  0  0  0  0  0  0  0999 V2000
    4.9295    1.8187   16.9855 H   0  0  0  0  0  0  0  0  0  0  0  0
    5.3831    1.2953   17.8244 C   0  0  0  0  0  0  0  0  0  0  0  0
    6.5375    0.6635   17.5671 N   0  0  0  0  0  0  0  0  0  0  0  0
    7.1407    0.0265   18.5742 C   0  0  0  0  0  0  0  0  0  0  0  0
    8.1026   -0.4334   18.3408 H   0  0  0  0  0  0  0  0  0  0  0  0
    6.6153   -0.0314   19.8787 C   0  0  0  0  0  0  0  0  0  0  0  0
    7.5522   -0.7932   21.2046 S   0  0  0  0  0  0  0  0  0  0  0  0
    8.4781    0.6430   21.6856 C   0  0  0  0  0  0  0  0  0  0  0  0
    9.6575    0.9494   21.2011 N   0  0  0  0  0  0  0  0  0  0  0  0
    9.9207    2.2118   21.6119 N   0  0  0  0  0  0  0  0  0  0  0  0
    8.9727    2.6878   22.3158 N   0  0  0  0  0  0  0  0  0  0  0  0
    8.0299    1.7031   22.3933 N   0  0  0  0  0  0  0  0  0  0  0  0
    6.8249    1.7487   23.1606 C   0  0  0  0  0  0  0  0  0  0  0  0
    6.4552    0.7428   23.7243 O   0  0  0  0  0  0  0  0  0  0  0  0
    6.1551    2.9410   23.1630 N   0  0  0  0  0  0  0  0  0  0  0  0
    5.3337    3.3182   24.3298 C   0  0  0  0  0  0  0  0  0  0  0  0
    5.8805    4.0661   24.9294 H   0  0  0  0  0  0  0  0  0  0  0  0
    5.1711    2.4143   24.9289 H   0  0  0  0  0  0  0  0  0  0  0  0
    3.9822    3.9128   23.9024 C   0  0  0  0  0  0  0  0  0  0  0  0
    3.3573    3.1169   23.4423 H   0  0  0  0  0  0  0  0  0  0  0  0
    3.4713    4.2825   24.8032 H   0  0  0  0  0  0  0  0  0  0  0  0
    4.1733    5.0387   22.9864 N   0  0  0  0  0  0  0  0  0  0  0  0
    2.9184    5.6828   22.6226 C   0  0  0  0  0  0  0  0  0  0  0  0
    3.1164    6.5300   21.9564 H   0  0  0  0  0  0  0  0  0  0  0  0
    2.4201    6.0735   23.5164 H   0  0  0  0  0  0  0  0  0  0  0  0
    2.2105    5.0063   22.1040 H   0  0  0  0  0  0  0  0  0  0  0  0
    4.9061    4.6000   21.7959 C   0  0  0  0  0  0  0  0  0  0  0  0
    5.0668    5.4842   21.1670 H   0  0  0  0  0  0  0  0  0  0  0  0
    4.3205    3.8473   21.2222 H   0  0  0  0  0  0  0  0  0  0  0  0
    6.2807    3.9999   22.1392 C   0  0  0  0  0  0  0  0  0  0  0  0
    6.7262    3.5711   21.2362 H   0  0  0  0  0  0  0  0  0  0  0  0
    6.9520    4.7923   22.5004 H   0  0  0  0  0  0  0  0  0  0  0  0
    5.4037    0.6196   20.1314 C   0  0  0  0  0  0  0  0  0  0  0  0
    4.9766    0.6104   21.1353 H   0  0  0  0  0  0  0  0  0  0  0  0
    4.7827    1.2999   19.0839 C   0  0  0  0  0  0  0  0  0  0  0  0
    3.8619    1.8531   19.2299 H   0  0  0  0  0  0  0  0  0  0  0  0
  1  2  1  0
  2  3  2  0
  3  4  1  0
  4  5  1  0
  4  6  2  0
  6  7  1  0
  7  8  1  0
  8  9  2  0
  9 10  1  0
 10 11  2  0
 11 12  1  0
 12 13  1  0
 13 14  2  0
 13 15  1  0
 15 16  1  0
 16 17  1  0
 16 18  1  0
 16 19  1  0
 19 20  1  0
 19 21  1  0
 19 22  1  0
 22 23  1  0
 23 24  1  0
 23 25  1  0
 23 26  1  0
 22 27  1  0
 27 28  1  0
 27 29  1  0
 27 30  1  0
 30 31  1  0
 30 32  1  0
  6 33  1  0
 33 34  1  0
 33 35  2  0
 35 36  1  0
 35  2  1  0
 12  8  1  0
 30 15  1  0
M  END
>  <cnnaffinity>  (1) 
-4.94332

>  <filename>  (1) 
[H]c1nc([H])c(Sc2nnnn2C(=O)N2C([H])([H])C([H])([H])N(C([H])([H])[H])C([H])([H])C2([H])[H])c([H])c1[H]

$$$$
