
     RDKit          3D

 45 48  0  0  0  0  0  0  0  0999 V2000
    6.3987   -0.8627   24.1492 O   0  0  0  0  0  0  0  0  0  0  0  0
    7.0885   -1.8701   24.0322 C   0  0  0  0  0  0  0  0  0  0  0  0
    8.0286   -2.2611   25.1911 C   0  0  2  0  0  0  0  0  0  0  0  0
    9.5191   -1.8733   24.9380 C   0  0  0  0  0  0  0  0  0  0  0  0
   10.2649   -3.1922   24.6277 C   0  0  0  0  0  0  0  0  0  0  0  0
    9.3789   -4.2471   25.2544 C   0  0  0  0  0  0  0  0  0  0  0  0
    9.6306   -5.5979   25.4928 C   0  0  0  0  0  0  0  0  0  0  0  0
    8.5849   -6.4169   25.9451 C   0  0  0  0  0  0  0  0  0  0  0  0
    7.2963   -5.9054   26.1476 C   0  0  0  0  0  0  0  0  0  0  0  0
    7.0510   -4.5448   25.9240 C   0  0  0  0  0  0  0  0  0  0  0  0
    8.1096   -3.7273   25.5229 C   0  0  0  0  0  0  0  0  0  0  0  0
    6.0617   -4.1164   26.0513 H   0  0  0  0  0  0  0  0  0  0  0  0
    6.4888   -6.5579   26.4808 H   0  0  0  0  0  0  0  0  0  0  0  0
    8.7973   -7.4591   26.1343 H   0  0  0  0  0  0  0  0  0  0  0  0
   10.6265   -6.0114   25.3554 H   0  0  0  0  0  0  0  0  0  0  0  0
   10.3644   -3.3471   23.5459 H   0  0  0  0  0  0  0  0  0  0  0  0
   11.2914   -3.2458   24.9884 H   0  0  0  0  0  0  0  0  0  0  0  0
    9.9015   -1.4170   25.8534 H   0  0  0  0  0  0  0  0  0  0  0  0
    9.6244   -1.1220   24.1517 H   0  0  0  0  0  0  0  0  0  0  0  0
    7.6066   -1.6850   26.0210 H   0  0  0  0  0  0  0  0  0  0  0  0
    7.1073   -2.5692   22.8594 N   0  0  0  0  0  0  0  0  0  0  0  0
    7.5930   -3.9351   22.6303 C   0  0  0  0  0  0  0  0  0  0  0  0
    7.6503   -4.0107   21.1167 C   0  0  0  0  0  0  0  0  0  0  0  0
    6.4562   -3.1652   20.6830 C   0  0  0  0  0  0  0  0  0  0  0  0
    6.4944   -1.9818   21.6500 C   0  0  0  0  0  0  0  0  0  0  0  0
    7.2624   -0.7272   21.1611 C   0  0  0  0  0  0  0  0  0  0  0  0
    6.6596   -0.0575   19.9356 C   0  0  0  0  0  0  0  0  0  0  0  0
    5.4687    0.6765   20.0703 C   0  0  0  0  0  0  0  0  0  0  0  0
    4.9123    1.2964   18.9506 C   0  0  0  0  0  0  0  0  0  0  0  0
    5.5789    1.1868   17.7265 C   0  0  0  0  0  0  0  0  0  0  0  0
    6.7094    0.4854   17.5619 N   0  0  0  0  0  0  0  0  0  0  0  0
    7.2239   -0.1176   18.6458 C   0  0  0  0  0  0  0  0  0  0  0  0
    8.1468   -0.6750   18.4724 H   0  0  0  0  0  0  0  0  0  0  0  0
    5.1902    1.6841   16.8394 H   0  0  0  0  0  0  0  0  0  0  0  0
    3.9901    1.8655   19.0135 H   0  0  0  0  0  0  0  0  0  0  0  0
    5.0074    0.7692   21.0567 H   0  0  0  0  0  0  0  0  0  0  0  0
    7.2183   -0.0185   21.9962 H   0  0  0  0  0  0  0  0  0  0  0  0
    8.3225   -0.9692   21.0045 H   0  0  0  0  0  0  0  0  0  0  0  0
    5.4770   -1.6573   21.8649 H   0  0  0  0  0  0  0  0  0  0  0  0
    5.5238   -3.7261   20.8212 H   0  0  0  0  0  0  0  0  0  0  0  0
    6.4877   -2.8254   19.6436 H   0  0  0  0  0  0  0  0  0  0  0  0
    7.6497   -5.0327   20.7271 H   0  0  0  0  0  0  0  0  0  0  0  0
    8.5803   -3.5216   20.8049 H   0  0  0  0  0  0  0  0  0  0  0  0
    6.9078   -4.6757   23.0639 H   0  0  0  0  0  0  0  0  0  0  0  0
    8.5832   -4.0982   23.0448 H   0  0  0  0  0  0  0  0  0  0  0  0
  1  2  2  0
  2  3  1  0
  3  4  1  0
  4  5  1  0
  5  6  1  0
  6  7  2  0
  7  8  1  0
  8  9  2  0
  9 10  1  0
 10 11  2  0
 10 12  1  0
  9 13  1  0
  8 14  1  0
  7 15  1  0
  5 16  1  0
  5 17  1  0
  4 18  1  0
  4 19  1  0
  3 20  1  1
  2 21  1  0
 21 22  1  0
 22 23  1  0
 23 24  1  0
 24 25  1  0
 25 26  1  0
 26 27  1  0
 27 28  2  0
 28 29  1  0
 29 30  2  0
 30 31  1  0
 31 32  2  0
 32 33  1  0
 30 34  1  0
 29 35  1  0
 28 36  1  0
 26 37  1  0
 26 38  1  0
 25 39  1  0
 24 40  1  0
 24 41  1  0
 23 42  1  0
 23 43  1  0
 22 44  1  0
 22 45  1  0
 11  3  1  0
 25 21  1  0
 32 27  1  0
 11  6  1  0
M  END
>  <cnnaffinity>  (1) 
-5.53963

>  <filename>  (1) 
[H]c1nc([H])c(C([H])([H])C2([H])N(C(=O)[C@@]3([H])c4c([H])c([H])c([H])c([H])c4C([H])([H])C3([H])[H])C([H])([H])C([H])([H])C2([H])[H])c([H])c1[H]

$$$$
