
     RDKit          3D

 37 39  0  0  0  0  0  0  0  0999 V2000
    3.9520   -6.8006   26.2371 C   0  0  0  0  0  0  0  0  0  0  0  0
    5.1163   -6.1670   25.7340 O   0  0  0  0  0  0  0  0  0  0  0  0
    5.1173   -4.8307   25.4659 C   0  0  0  0  0  0  0  0  0  0  0  0
    4.0215   -3.9744   25.6513 C   0  0  0  0  0  0  0  0  0  0  0  0
    4.1630   -2.6111   25.3620 C   0  0  0  0  0  0  0  0  0  0  0  0
    5.3730   -2.0967   24.9023 C   0  0  0  0  0  0  0  0  0  0  0  0
    6.4765   -2.9482   24.6878 C   0  0  0  0  0  0  0  0  0  0  0  0
    7.7706   -2.4098   24.1707 C   0  0  0  0  0  0  0  0  0  0  0  0
    8.9451   -2.7883   24.6790 N   0  0  0  0  0  0  0  0  0  0  0  0
    9.8621   -2.0617   24.0304 N   0  0  0  0  0  0  0  0  0  0  0  0
    9.3355   -1.2431   23.0938 C   0  0  0  0  0  0  0  0  0  0  0  0
    7.9743   -1.4501   23.1349 C   0  0  0  0  0  0  0  0  0  0  0  0
    6.9502   -0.7443   22.2967 C   0  0  0  0  0  0  0  0  0  0  0  0
    7.3769   -0.6666   20.9167 N   0  0  0  0  0  0  0  0  0  0  0  0
    6.6805   -0.0084   19.9214 C   0  0  0  0  0  0  0  0  0  0  0  0
    5.4513    0.6422   20.1657 C   0  0  0  0  0  0  0  0  0  0  0  0
    4.8190    1.3018   19.1061 C   0  0  0  0  0  0  0  0  0  0  0  0
    5.3977    1.2949   17.8341 C   0  0  0  0  0  0  0  0  0  0  0  0
    6.5641    0.6795   17.5683 N   0  0  0  0  0  0  0  0  0  0  0  0
    7.1770    0.0599   18.5843 C   0  0  0  0  0  0  0  0  0  0  0  0
    8.1254   -0.4229   18.3506 H   0  0  0  0  0  0  0  0  0  0  0  0
    4.9123    1.7861   16.9949 H   0  0  0  0  0  0  0  0  0  0  0  0
    3.8887    1.8313   19.2657 H   0  0  0  0  0  0  0  0  0  0  0  0
    5.0168    0.6265   21.1660 H   0  0  0  0  0  0  0  0  0  0  0  0
    8.1978   -1.1958   20.6796 H   0  0  0  0  0  0  0  0  0  0  0  0
    6.7761    0.2748   22.6794 H   0  0  0  0  0  0  0  0  0  0  0  0
    5.9911   -1.2685   22.3530 H   0  0  0  0  0  0  0  0  0  0  0  0
    9.9422   -0.5700   22.4928 H   0  0  0  0  0  0  0  0  0  0  0  0
   10.8314   -2.2015   24.2639 H   0  0  0  0  0  0  0  0  0  0  0  0
    6.3328   -4.3142   24.9809 C   0  0  0  0  0  0  0  0  0  0  0  0
    7.1754   -4.9860   24.8580 H   0  0  0  0  0  0  0  0  0  0  0  0
    5.4562   -1.0306   24.6929 H   0  0  0  0  0  0  0  0  0  0  0  0
    3.3173   -1.9417   25.4973 H   0  0  0  0  0  0  0  0  0  0  0  0
    3.0806   -4.3627   26.0286 H   0  0  0  0  0  0  0  0  0  0  0  0
    4.2154   -7.8497   26.3651 H   0  0  0  0  0  0  0  0  0  0  0  0
    3.6394   -6.4053   27.2123 H   0  0  0  0  0  0  0  0  0  0  0  0
    3.1067   -6.7397   25.5400 H   0  0  0  0  0  0  0  0  0  0  0  0
  1  2  1  0
  2  3  1  0
  3  4  2  0
  4  5  1  0
  5  6  2  0
  6  7  1  0
  7  8  1  0
  8  9  2  0
  9 10  1  0
 10 11  1  0
 11 12  2  0
 12 13  1  0
 13 14  1  0
 14 15  1  0
 15 16  2  0
 16 17  1  0
 17 18  2  0
 18 19  1  0
 19 20  2  0
 20 21  1  0
 18 22  1  0
 17 23  1  0
 16 24  1  0
 14 25  1  0
 13 26  1  0
 13 27  1  0
 11 28  1  0
 10 29  1  0
  7 30  2  0
 30 31  1  0
  6 32  1  0
  5 33  1  0
  4 34  1  0
  1 35  1  0
  1 36  1  0
  1 37  1  0
 30  3  1  0
 12  8  1  0
 20 15  1  0
M  END
>  <cnnaffinity>  (1) 
-5.09676

>  <filename>  (1) 
[H]c1nc([H])c(N([H])C([H])([H])c2c(-c3c([H])c([H])c([H])c(OC([H])([H])[H])c3[H])nn([H])c2[H])c([H])c1[H]

$$$$
