
     RDKit          3D

 39 41  0  0  0  0  0  0  0  0999 V2000
    8.7470   -0.4037   21.1904 C   0  0  0  0  0  0  0  0  0  0  0  0
    7.3459   -0.7333   20.8950 N   0  0  0  0  0  0  0  0  0  0  0  0
    6.7347   -1.6506   21.7603 C   0  0  0  0  0  0  0  0  0  0  0  0
    7.2488   -1.9986   22.8102 O   0  0  0  0  0  0  0  0  0  0  0  0
    5.5452   -2.1602   21.3226 N   0  0  0  0  0  0  0  0  0  0  0  0
    4.8914   -3.2133   22.0640 C   0  0  0  0  0  0  0  0  0  0  0  0
    5.4939   -4.5886   21.9749 C   0  0  0  0  0  0  0  0  0  0  0  0
    6.4652   -4.9355   21.0594 C   0  0  0  0  0  0  0  0  0  0  0  0
    7.0748   -6.2133   21.0810 C   0  0  0  0  0  0  0  0  0  0  0  0
    6.6626   -7.1646   21.9828 C   0  0  0  0  0  0  0  0  0  0  0  0
    5.5970   -6.8736   22.8924 C   0  0  0  0  0  0  0  0  0  0  0  0
    5.1173   -7.8638   23.7954 C   0  0  0  0  0  0  0  0  0  0  0  0
    4.1643   -7.5766   24.7412 C   0  0  0  0  0  0  0  0  0  0  0  0
    3.6580   -6.2546   24.8439 C   0  0  0  0  0  0  0  0  0  0  0  0
    4.0567   -5.2808   23.9548 C   0  0  0  0  0  0  0  0  0  0  0  0
    5.0353   -5.5590   22.9359 C   0  0  0  0  0  0  0  0  0  0  0  0
    3.6295   -4.2835   24.0388 H   0  0  0  0  0  0  0  0  0  0  0  0
    2.9519   -6.0119   25.6344 H   0  0  0  0  0  0  0  0  0  0  0  0
    3.7997   -8.3503   25.4109 H   0  0  0  0  0  0  0  0  0  0  0  0
    5.6225   -8.8198   23.7644 H   0  0  0  0  0  0  0  0  0  0  0  0
    7.1047   -8.1599   22.0284 H   0  0  0  0  0  0  0  0  0  0  0  0
    7.8607   -6.3823   20.3555 H   0  0  0  0  0  0  0  0  0  0  0  0
    6.8113   -4.2186   20.3201 H   0  0  0  0  0  0  0  0  0  0  0  0
    4.8903   -2.9425   23.1267 H   0  0  0  0  0  0  0  0  0  0  0  0
    3.8481   -3.2816   21.7571 H   0  0  0  0  0  0  0  0  0  0  0  0
    5.3281   -1.9899   20.3577 H   0  0  0  0  0  0  0  0  0  0  0  0
    6.6507   -0.0353   19.8565 C   0  0  0  0  0  0  0  0  0  0  0  0
    5.4316    0.6137   20.1082 C   0  0  0  0  0  0  0  0  0  0  0  0
    4.8130    1.3053   19.0600 C   0  0  0  0  0  0  0  0  0  0  0  0
    5.4132    1.3164   17.7963 C   0  0  0  0  0  0  0  0  0  0  0  0
    6.5686    0.6851   17.5329 N   0  0  0  0  0  0  0  0  0  0  0  0
    7.1668    0.0441   18.5450 C   0  0  0  0  0  0  0  0  0  0  0  0
    8.1074   -0.4546   18.3192 H   0  0  0  0  0  0  0  0  0  0  0  0
    4.9542    1.8506   16.9657 H   0  0  0  0  0  0  0  0  0  0  0  0
    3.8855    1.8437   19.2164 H   0  0  0  0  0  0  0  0  0  0  0  0
    4.9893    0.5776   21.1044 H   0  0  0  0  0  0  0  0  0  0  0  0
    9.4238   -1.2033   20.8583 H   0  0  0  0  0  0  0  0  0  0  0  0
    8.8803   -0.2752   22.2704 H   0  0  0  0  0  0  0  0  0  0  0  0
    9.0114    0.5280   20.6839 H   0  0  0  0  0  0  0  0  0  0  0  0
  1  2  1  0
  2  3  1  0
  3  4  2  0
  3  5  1  0
  5  6  1  0
  6  7  1  0
  7  8  2  0
  8  9  1  0
  9 10  2  0
 10 11  1  0
 11 12  2  0
 12 13  1  0
 13 14  2  0
 14 15  1  0
 15 16  2  0
 15 17  1  0
 14 18  1  0
 13 19  1  0
 12 20  1  0
 10 21  1  0
  9 22  1  0
  8 23  1  0
  6 24  1  0
  6 25  1  0
  5 26  1  0
  2 27  1  0
 27 28  2  0
 28 29  1  0
 29 30  2  0
 30 31  1  0
 31 32  2  0
 32 33  1  0
 30 34  1  0
 29 35  1  0
 28 36  1  0
  1 37  1  0
  1 38  1  0
  1 39  1  0
 16  7  1  0
 32 27  1  0
 16 11  1  0
M  END
>  <cnnaffinity>  (1) 
-5.14585

>  <filename>  (1) 
[H]c1nc([H])c(N(C(=O)N([H])C([H])([H])c2c([H])c([H])c([H])c3c([H])c([H])c([H])c([H])c23)C([H])([H])[H])c([H])c1[H]

$$$$
