
     RDKit          3D

 25 27  0  0  0  0  0  0  0  0999 V2000
    4.9354    1.8092   16.9559 H   0  0  0  0  0  0  0  0  0  0  0  0
    5.3881    1.3045   17.8007 C   0  0  0  0  0  0  0  0  0  0  0  0
    6.5501    0.6756   17.5587 N   0  0  0  0  0  0  0  0  0  0  0  0
    7.1425    0.0762   18.5992 C   0  0  0  0  0  0  0  0  0  0  0  0
    8.0891   -0.4159   18.3714 H   0  0  0  0  0  0  0  0  0  0  0  0
    6.6260    0.0681   19.9142 C   0  0  0  0  0  0  0  0  0  0  0  0
    7.3142   -0.6810   20.9916 C   0  0  0  0  0  0  0  0  0  0  0  0
    7.6277   -2.0096   20.9752 C   0  0  0  0  0  0  0  0  0  0  0  0
    7.3149   -2.6867   20.2009 H   0  0  0  0  0  0  0  0  0  0  0  0
    8.2789   -2.2662   22.2010 C   0  0  0  0  0  0  0  0  0  0  0  0
    8.7131   -3.1793   22.5898 H   0  0  0  0  0  0  0  0  0  0  0  0
    8.3443   -1.1901   22.9494 N   0  0  0  0  0  0  0  0  0  0  0  0
    7.7476   -0.2053   22.2230 N   0  0  0  0  0  0  0  0  0  0  0  0
    7.5668    1.0321   22.8199 C   0  0  0  0  0  0  0  0  0  0  0  0
    7.3035    2.0829   22.0149 O   0  0  0  0  0  0  0  0  0  0  0  0
    7.1703    3.1713   22.8113 C   0  0  0  0  0  0  0  0  0  0  0  0
    6.9417    4.0844   22.2840 H   0  0  0  0  0  0  0  0  0  0  0  0
    7.3541    2.8307   24.1142 C   0  0  0  0  0  0  0  0  0  0  0  0
    7.3245    3.5162   24.9549 H   0  0  0  0  0  0  0  0  0  0  0  0
    7.6109    1.4266   24.1274 C   0  0  0  0  0  0  0  0  0  0  0  0
    7.8127    0.7601   24.9564 H   0  0  0  0  0  0  0  0  0  0  0  0
    5.3828    0.6890   20.1204 C   0  0  0  0  0  0  0  0  0  0  0  0
    4.9306    0.6656   21.1135 H   0  0  0  0  0  0  0  0  0  0  0  0
    4.7607    1.3280   19.0511 C   0  0  0  0  0  0  0  0  0  0  0  0
    3.8166    1.8499   19.1810 H   0  0  0  0  0  0  0  0  0  0  0  0
  1  2  1  0
  2  3  2  0
  3  4  1  0
  4  5  1  0
  4  6  2  0
  6  7  1  0
  7  8  2  0
  8  9  1  0
  8 10  1  0
 10 11  1  0
 10 12  2  0
 12 13  1  0
 13 14  1  0
 14 15  1  0
 15 16  1  0
 16 17  1  0
 16 18  2  0
 18 19  1  0
 18 20  1  0
 20 21  1  0
  6 22  1  0
 22 23  1  0
 22 24  2  0
 24 25  1  0
 24  2  1  0
 13  7  1  0
 20 14  2  0
M  END
>  <cnnaffinity>  (1) 
-4.27003

>  <filename>  (1) 
[H]c1nc([H])c(-c2c([H])c([H])nn2-c2oc([H])c([H])c2[H])c([H])c1[H]

$$$$
