
     RDKit          3D

 35 37  0  0  0  0  0  0  0  0999 V2000
    4.9754    1.7785   16.9877 H   0  0  0  0  0  0  0  0  0  0  0  0
    5.4333    1.2659   17.8330 C   0  0  0  0  0  0  0  0  0  0  0  0
    6.5915    0.6277   17.6013 N   0  0  0  0  0  0  0  0  0  0  0  0
    7.1772   -0.0001   18.6323 C   0  0  0  0  0  0  0  0  0  0  0  0
    8.1259   -0.4838   18.4086 H   0  0  0  0  0  0  0  0  0  0  0  0
    6.6526   -0.0292   19.9512 C   0  0  0  0  0  0  0  0  0  0  0  0
    7.2705   -0.6775   21.0670 N   0  0  0  0  0  0  0  0  0  0  0  0
    7.9576   -1.3965   20.9438 H   0  0  0  0  0  0  0  0  0  0  0  0
    7.4895   -0.1365   22.2900 C   0  0  0  0  0  0  0  0  0  0  0  0
    7.1556    1.0545   22.5805 N   0  0  0  0  0  0  0  0  0  0  0  0
    7.1480    1.4080   23.8750 C   0  0  0  0  0  0  0  0  0  0  0  0
    7.0264    0.7081   24.9864 N   0  0  0  0  0  0  0  0  0  0  0  0
    6.8860    1.6789   25.9782 C   0  0  0  0  0  0  0  0  0  0  0  0
    6.6342    1.5541   27.3458 C   0  0  0  0  0  0  0  0  0  0  0  0
    6.4487    0.5537   27.7316 H   0  0  0  0  0  0  0  0  0  0  0  0
    6.5708    2.7111   28.1529 C   0  0  0  0  0  0  0  0  0  0  0  0
    6.3058    2.6474   29.6370 C   0  0  0  0  0  0  0  0  0  0  0  0
    5.9511    3.6044   30.2986 O   0  0  0  0  0  0  0  0  0  0  0  0
    6.4530    1.4288   30.2526 N   0  0  0  0  0  0  0  0  0  0  0  0
    7.1473    0.7996   29.8910 H   0  0  0  0  0  0  0  0  0  0  0  0
    6.4317    1.5549   31.2545 H   0  0  0  0  0  0  0  0  0  0  0  0
    6.7298    3.9954   27.5563 C   0  0  0  0  0  0  0  0  0  0  0  0
    6.6676    4.8706   28.2017 H   0  0  0  0  0  0  0  0  0  0  0  0
    6.9435    4.1490   26.1896 C   0  0  0  0  0  0  0  0  0  0  0  0
    7.0536    5.1350   25.7420 H   0  0  0  0  0  0  0  0  0  0  0  0
    7.0096    2.9842   25.4204 C   0  0  0  0  0  0  0  0  0  0  0  0
    7.1791    2.7534   24.0864 N   0  0  0  0  0  0  0  0  0  0  0  0
    7.2571    3.3223   23.2683 H   0  0  0  0  0  0  0  0  0  0  0  0
    8.1630   -1.0185   23.0696 N   0  0  0  0  0  0  0  0  0  0  0  0
    7.7864   -1.9162   22.8296 H   0  0  0  0  0  0  0  0  0  0  0  0
    7.9872   -0.7698   24.0399 H   0  0  0  0  0  0  0  0  0  0  0  0
    5.4399    0.6382   20.1641 C   0  0  0  0  0  0  0  0  0  0  0  0
    5.0391    0.6703   21.1755 H   0  0  0  0  0  0  0  0  0  0  0  0
    4.8216    1.2817   19.0892 C   0  0  0  0  0  0  0  0  0  0  0  0
    3.8965    1.8226   19.2359 H   0  0  0  0  0  0  0  0  0  0  0  0
  1  2  1  0
  2  3  2  0
  3  4  1  0
  4  5  1  0
  4  6  2  0
  6  7  1  0
  7  8  1  0
  7  9  1  0
  9 10  2  3
 10 11  1  0
 11 12  2  0
 12 13  1  0
 13 14  2  0
 14 15  1  0
 14 16  1  0
 16 17  1  0
 17 18  2  0
 17 19  1  0
 19 20  1  0
 19 21  1  0
 16 22  2  0
 22 23  1  0
 22 24  1  0
 24 25  1  0
 24 26  2  0
 26 27  1  0
 27 28  1  0
  9 29  1  0
 29 30  1  0
 29 31  1  0
  6 32  1  0
 32 33  1  0
 32 34  2  0
 34 35  1  0
 34  2  1  0
 27 11  1  0
 26 13  1  0
M  END
>  <cnnaffinity>  (1) 
-4.91942

>  <filename>  (1) 
[H]c1nc([H])c(N([H])C(=Nc2nc3c([H])c(C(=O)N([H])[H])c([H])c([H])c3n2[H])N([H])[H])c([H])c1[H]

$$$$
