
     RDKit          3D

 33 34  0  0  0  0  0  0  0  0999 V2000
    5.0019    1.9232   17.0035 H   0  0  0  0  0  0  0  0  0  0  0  0
    5.4525    1.3581   17.8145 C   0  0  0  0  0  0  0  0  0  0  0  0
    6.5870    0.7069   17.5165 N   0  0  0  0  0  0  0  0  0  0  0  0
    7.1616    0.0138   18.4963 C   0  0  0  0  0  0  0  0  0  0  0  0
    8.0809   -0.5119   18.2338 H   0  0  0  0  0  0  0  0  0  0  0  0
    6.6549   -0.0830   19.8022 C   0  0  0  0  0  0  0  0  0  0  0  0
    7.3751   -0.9465   20.7757 C   0  0  0  0  0  0  0  0  0  0  0  0
    6.6165   -1.8857   21.8621 S   0  0  0  0  0  0  0  0  0  0  0  0
    9.1616   -0.9076   20.6337 S   0  0  0  0  0  0  0  0  0  0  0  0
    9.5360    0.7854   21.2455 C   0  0  0  0  0  0  0  0  0  0  0  0
    8.9037    1.4853   20.6887 H   0  0  0  0  0  0  0  0  0  0  0  0
   10.5773    1.0047   20.9744 H   0  0  0  0  0  0  0  0  0  0  0  0
    9.3251    0.9241   22.7598 C   0  0  0  0  0  0  0  0  0  0  0  0
    8.2929    0.6019   22.9728 H   0  0  0  0  0  0  0  0  0  0  0  0
   10.2758    0.0174   23.5608 C   0  0  0  0  0  0  0  0  0  0  0  0
   10.1576   -1.0213   23.2319 H   0  0  0  0  0  0  0  0  0  0  0  0
   11.3180    0.2931   23.3355 H   0  0  0  0  0  0  0  0  0  0  0  0
   10.0024    0.0861   25.0661 C   0  0  0  0  0  0  0  0  0  0  0  0
   10.7845   -0.4783   25.5936 H   0  0  0  0  0  0  0  0  0  0  0  0
    9.0500   -0.4260   25.2632 H   0  0  0  0  0  0  0  0  0  0  0  0
    9.9418    1.5217   25.6136 C   0  0  0  0  0  0  0  0  0  0  0  0
    9.4953    1.4917   26.6134 H   0  0  0  0  0  0  0  0  0  0  0  0
   10.9664    1.8904   25.7198 H   0  0  0  0  0  0  0  0  0  0  0  0
    9.1427    2.5067   24.7392 C   0  0  0  0  0  0  0  0  0  0  0  0
    9.3337    3.5400   25.0624 H   0  0  0  0  0  0  0  0  0  0  0  0
    8.0690    2.3269   24.8868 H   0  0  0  0  0  0  0  0  0  0  0  0
    9.4436    2.3800   23.2356 C   0  0  0  0  0  0  0  0  0  0  0  0
   10.4427    2.7747   22.9969 H   0  0  0  0  0  0  0  0  0  0  0  0
    8.7337    3.0036   22.6787 H   0  0  0  0  0  0  0  0  0  0  0  0
    5.4417    0.5730   20.0925 C   0  0  0  0  0  0  0  0  0  0  0  0
    4.9822    0.5016   21.0801 H   0  0  0  0  0  0  0  0  0  0  0  0
    4.8412    1.3138   19.0731 C   0  0  0  0  0  0  0  0  0  0  0  0
    3.9198    1.8596   19.2375 H   0  0  0  0  0  0  0  0  0  0  0  0
  1  2  1  0
  2  3  2  0
  3  4  1  0
  4  5  1  0
  4  6  2  0
  6  7  1  0
  7  8  2  0
  7  9  1  0
  9 10  1  0
 10 11  1  0
 10 12  1  0
 10 13  1  0
 13 14  1  0
 13 15  1  0
 15 16  1  0
 15 17  1  0
 15 18  1  0
 18 19  1  0
 18 20  1  0
 18 21  1  0
 21 22  1  0
 21 23  1  0
 21 24  1  0
 24 25  1  0
 24 26  1  0
 24 27  1  0
 27 28  1  0
 27 29  1  0
  6 30  1  0
 30 31  1  0
 30 32  2  0
 32 33  1  0
 32  2  1  0
 27 13  1  0
M  END
>  <cnnaffinity>  (1) 
-5.00828

>  <filename>  (1) 
[H]c1nc([H])c(C(=S)SC([H])([H])C2([H])C([H])([H])C([H])([H])C([H])([H])C([H])([H])C2([H])[H])c([H])c1[H]

$$$$
