
     RDKit          3D

 23 25  0  0  0  0  0  0  0  0999 V2000
    7.4897    2.8954   25.3795 H   0  0  0  0  0  0  0  0  0  0  0  0
    7.4939    2.5854   24.3411 C   0  0  0  0  0  0  0  0  0  0  0  0
    7.5429    1.2534   24.0411 N   0  0  0  0  0  0  0  0  0  0  0  0
    7.5428    1.0667   22.7550 C   0  0  0  0  0  0  0  0  0  0  0  0
    7.6401   -0.2642   22.2109 C   0  0  0  0  0  0  0  0  0  0  0  0
    8.1818   -1.3774   22.7958 C   0  0  0  0  0  0  0  0  0  0  0  0
    8.5588   -1.4997   23.8013 H   0  0  0  0  0  0  0  0  0  0  0  0
    8.2012   -2.3821   21.8931 N   0  0  0  0  0  0  0  0  0  0  0  0
    7.6906   -1.9600   20.7815 N   0  0  0  0  0  0  0  0  0  0  0  0
    7.3358   -0.6724   20.9443 N   0  0  0  0  0  0  0  0  0  0  0  0
    6.6455    0.0157   19.9125 C   0  0  0  0  0  0  0  0  0  0  0  0
    7.1785    0.0512   18.6123 C   0  0  0  0  0  0  0  0  0  0  0  0
    8.1232   -0.4405   18.3878 H   0  0  0  0  0  0  0  0  0  0  0  0
    6.5754    0.6701   17.5957 N   0  0  0  0  0  0  0  0  0  0  0  0
    5.4065    1.2884   17.8396 C   0  0  0  0  0  0  0  0  0  0  0  0
    4.9344    1.7835   16.9938 H   0  0  0  0  0  0  0  0  0  0  0  0
    4.8002    1.2912   19.0999 C   0  0  0  0  0  0  0  0  0  0  0  0
    3.8789    1.8373   19.2557 H   0  0  0  0  0  0  0  0  0  0  0  0
    5.4132    0.6212   20.1610 C   0  0  0  0  0  0  0  0  0  0  0  0
    4.9869    0.6157   21.1677 H   0  0  0  0  0  0  0  0  0  0  0  0
    7.5291    2.5303   21.8153 S   0  0  0  0  0  0  0  0  0  0  0  0
    7.4785    3.4240   23.2730 C   0  0  0  0  0  0  0  0  0  0  0  0
    7.4388    4.5000   23.2681 H   0  0  0  0  0  0  0  0  0  0  0  0
  1  2  1  0
  2  3  1  0
  3  4  2  0
  4  5  1  0
  5  6  2  0
  6  7  1  0
  6  8  1  0
  8  9  2  0
  9 10  1  0
 10 11  1  0
 11 12  2  0
 12 13  1  0
 12 14  1  0
 14 15  2  0
 15 16  1  0
 15 17  1  0
 17 18  1  0
 17 19  2  0
 19 20  1  0
  4 21  1  0
 21 22  1  0
 22 23  1  0
 22  2  2  0
 10  5  1  0
 19 11  1  0
M  END
>  <cnnaffinity>  (1) 
-4.69641

>  <filename>  (1) 
[H]c1nc(-c2c([H])nnn2-c2c([H])nc([H])c([H])c2[H])sc1[H]

$$$$
