
     RDKit          3D

 41 45  0  0  0  0  0  0  0  0999 V2000
   12.3417    0.1006   22.5134 F   0  0  0  0  0  0  0  0  0  0  0  0
   12.2989    1.4342   22.4559 C   0  0  0  0  0  0  0  0  0  0  0  0
   13.4740    2.1249   22.6141 C   0  0  0  0  0  0  0  0  0  0  0  0
   13.4768    3.5385   22.4894 C   0  0  0  0  0  0  0  0  0  0  0  0
   14.6777    4.1982   22.5513 N   0  0  0  0  0  0  0  0  0  0  0  0
   14.6158    5.5040   22.4093 C   0  0  0  0  0  0  0  0  0  0  0  0
   13.3855    6.2144   22.2609 C   0  0  0  0  0  0  0  0  0  0  0  0
   12.2070    5.6188   22.2077 N   0  0  0  0  0  0  0  0  0  0  0  0
   12.2424    4.2427   22.2999 C   0  0  0  0  0  0  0  0  0  0  0  0
   11.0458    3.4829   22.2664 C   0  0  0  0  0  0  0  0  0  0  0  0
   11.0491    2.0844   22.2772 C   0  0  0  0  0  0  0  0  0  0  0  0
    9.7957    1.2843   22.2114 C   0  0  0  0  0  0  0  0  0  0  0  0
    9.4808    0.3008   21.3854 N   0  0  0  0  0  0  0  0  0  0  0  0
    8.1604    0.0943   21.6569 C   0  0  0  0  0  0  0  0  0  0  0  0
    7.2891   -0.8439   20.8616 C   0  0  0  0  0  0  0  0  0  0  0  0
    6.5396   -0.1330   19.7320 C   0  0  0  0  0  0  0  0  0  0  0  0
    5.3601    0.5785   20.0009 C   0  0  0  0  0  0  0  0  0  0  0  0
    4.7682    1.3230   18.9759 C   0  0  0  0  0  0  0  0  0  0  0  0
    5.3773    1.3315   17.7183 C   0  0  0  0  0  0  0  0  0  0  0  0
    6.4951    0.6466   17.4333 N   0  0  0  0  0  0  0  0  0  0  0  0
    7.0519   -0.0603   18.4249 C   0  0  0  0  0  0  0  0  0  0  0  0
    7.9615   -0.6035   18.1630 H   0  0  0  0  0  0  0  0  0  0  0  0
    4.9542    1.9101   16.8986 H   0  0  0  0  0  0  0  0  0  0  0  0
    3.8662    1.9051   19.1360 H   0  0  0  0  0  0  0  0  0  0  0  0
    4.9244    0.5562   21.0025 H   0  0  0  0  0  0  0  0  0  0  0  0
    7.9259   -1.6509   20.4848 H   0  0  0  0  0  0  0  0  0  0  0  0
    6.5726   -1.2952   21.5572 H   0  0  0  0  0  0  0  0  0  0  0  0
    7.6636    0.8531   22.6105 N   0  0  0  0  0  0  0  0  0  0  0  0
    8.7272    1.5925   22.9953 N   0  0  0  0  0  0  0  0  0  0  0  0
    8.6106    2.6087   24.0044 C   0  0  0  0  0  0  0  0  0  0  0  0
    9.7735    2.8068   24.9319 C   0  0  0  0  0  0  0  0  0  0  0  0
    8.4927    2.2509   25.4648 C   0  0  0  0  0  0  0  0  0  0  0  0
    8.4357    1.1957   25.7194 H   0  0  0  0  0  0  0  0  0  0  0  0
    7.9009    2.9096   26.0927 H   0  0  0  0  0  0  0  0  0  0  0  0
   10.6111    2.1232   24.8148 H   0  0  0  0  0  0  0  0  0  0  0  0
   10.0393    3.8451   25.1118 H   0  0  0  0  0  0  0  0  0  0  0  0
    8.0670    3.4847   23.6526 H   0  0  0  0  0  0  0  0  0  0  0  0
   10.1323    4.0632   22.2636 H   0  0  0  0  0  0  0  0  0  0  0  0
   13.4441    7.2994   22.2308 H   0  0  0  0  0  0  0  0  0  0  0  0
   15.5389    6.0785   22.4057 H   0  0  0  0  0  0  0  0  0  0  0  0
   14.4238    1.6282   22.7514 H   0  0  0  0  0  0  0  0  0  0  0  0
  1  2  1  0
  2  3  2  0
  3  4  1  0
  4  5  2  0
  5  6  1  0
  6  7  2  0
  7  8  1  0
  8  9  2  0
  9 10  1  0
 10 11  2  0
 11 12  1  0
 12 13  2  0
 13 14  1  0
 14 15  1  0
 15 16  1  0
 16 17  2  0
 17 18  1  0
 18 19  2  0
 19 20  1  0
 20 21  2  0
 21 22  1  0
 19 23  1  0
 18 24  1  0
 17 25  1  0
 15 26  1  0
 15 27  1  0
 14 28  2  0
 28 29  1  0
 29 30  1  0
 30 31  1  0
 31 32  1  0
 32 33  1  0
 32 34  1  0
 31 35  1  0
 31 36  1  0
 30 37  1  0
 10 38  1  0
  7 39  1  0
  6 40  1  0
  3 41  1  0
 11  2  1  0
 29 12  1  0
 32 30  1  0
  9  4  1  0
 21 16  1  0
M  END
>  <cnnaffinity>  (1) 
-6.44812

>  <filename>  (1) 
[H]c1nc2c([H])c(F)c(-c3nc(C([H])([H])c4c([H])nc([H])c([H])c4[H])nn3C3([H])C([H])([H])C3([H])[H])c([H])c2nc1[H]

$$$$
