
     RDKit          3D

 40 42  0  0  0  0  0  0  0  0999 V2000
    4.9255    1.8067   16.9725 H   0  0  0  0  0  0  0  0  0  0  0  0
    5.3908    1.3054   17.8203 C   0  0  0  0  0  0  0  0  0  0  0  0
    6.5508    0.6847   17.5624 N   0  0  0  0  0  0  0  0  0  0  0  0
    7.1435    0.0519   18.5846 C   0  0  0  0  0  0  0  0  0  0  0  0
    8.0972   -0.4182   18.3436 H   0  0  0  0  0  0  0  0  0  0  0  0
    6.6252   -0.0322   19.8881 C   0  0  0  0  0  0  0  0  0  0  0  0
    7.4042   -0.7076   21.0006 C   0  0  0  0  0  0  0  0  0  0  0  0
    7.9528   -1.5793   20.6193 H   0  0  0  0  0  0  0  0  0  0  0  0
    6.7235   -1.1076   21.7651 H   0  0  0  0  0  0  0  0  0  0  0  0
    8.3839    0.2455   21.6319 C   0  0  0  0  0  0  0  0  0  0  0  0
    9.6266    0.6414   21.1061 C   0  0  0  0  0  0  0  0  0  0  0  0
   10.0675    0.2669   20.2037 H   0  0  0  0  0  0  0  0  0  0  0  0
   10.2213    1.5804   21.8279 N   0  0  0  0  0  0  0  0  0  0  0  0
    9.3462    1.7980   22.8293 N   0  0  0  0  0  0  0  0  0  0  0  0
    9.5981    2.4454   23.5636 H   0  0  0  0  0  0  0  0  0  0  0  0
    8.2280    1.0235   22.7623 C   0  0  0  0  0  0  0  0  0  0  0  0
    7.1418    1.0307   23.7885 C   0  0  0  0  0  0  0  0  0  0  0  0
    6.9746    2.0529   24.1549 H   0  0  0  0  0  0  0  0  0  0  0  0
    6.2056    0.7419   23.2967 H   0  0  0  0  0  0  0  0  0  0  0  0
    7.3722    0.0814   24.9885 C   0  0  0  0  0  0  0  0  0  0  0  0
    6.4924    0.1808   25.6435 H   0  0  0  0  0  0  0  0  0  0  0  0
    8.6074    0.4829   25.8219 C   0  0  0  0  0  0  0  0  0  0  0  0
    8.5330    1.5404   26.1087 H   0  0  0  0  0  0  0  0  0  0  0  0
    9.5147    0.3966   25.2098 H   0  0  0  0  0  0  0  0  0  0  0  0
    8.7832   -0.4224   27.0489 C   0  0  0  0  0  0  0  0  0  0  0  0
    9.6917   -0.1470   27.5971 H   0  0  0  0  0  0  0  0  0  0  0  0
    7.9445   -0.2629   27.7409 H   0  0  0  0  0  0  0  0  0  0  0  0
    8.8388   -1.9002   26.6268 C   0  0  0  0  0  0  0  0  0  0  0  0
    8.9527   -2.5523   27.4953 H   0  0  0  0  0  0  0  0  0  0  0  0
    9.7132   -2.0593   25.9881 H   0  0  0  0  0  0  0  0  0  0  0  0
    7.6250   -2.3232   25.7925 C   0  0  0  0  0  0  0  0  0  0  0  0
    7.7393   -3.3693   25.4813 H   0  0  0  0  0  0  0  0  0  0  0  0
    6.7219   -2.2824   26.4171 H   0  0  0  0  0  0  0  0  0  0  0  0
    7.4502   -1.4043   24.5719 C   0  0  0  0  0  0  0  0  0  0  0  0
    6.5509   -1.7027   24.0169 H   0  0  0  0  0  0  0  0  0  0  0  0
    8.2931   -1.5347   23.8726 H   0  0  0  0  0  0  0  0  0  0  0  0
    5.4225    0.6394   20.1324 C   0  0  0  0  0  0  0  0  0  0  0  0
    4.9862    0.6415   21.1363 H   0  0  0  0  0  0  0  0  0  0  0  0
    4.7949    1.3166   19.0847 C   0  0  0  0  0  0  0  0  0  0  0  0
    3.8682    1.8514   19.2350 H   0  0  0  0  0  0  0  0  0  0  0  0
  1  2  1  0
  2  3  2  0
  3  4  1  0
  4  5  1  0
  4  6  2  0
  6  7  1  0
  7  8  1  0
  7  9  1  0
  7 10  1  0
 10 11  1  0
 11 12  1  0
 11 13  2  0
 13 14  1  0
 14 15  1  0
 14 16  1  0
 16 17  1  0
 17 18  1  0
 17 19  1  0
 17 20  1  0
 20 21  1  0
 20 22  1  0
 22 23  1  0
 22 24  1  0
 22 25  1  0
 25 26  1  0
 25 27  1  0
 25 28  1  0
 28 29  1  0
 28 30  1  0
 28 31  1  0
 31 32  1  0
 31 33  1  0
 31 34  1  0
 34 35  1  0
 34 36  1  0
  6 37  1  0
 37 38  1  0
 37 39  2  0
 39 40  1  0
 39  2  1  0
 16 10  2  0
 34 20  1  0
M  END
>  <cnnaffinity>  (1) 
-5.15991

>  <filename>  (1) 
[H]c1nc([H])c(C([H])([H])c2c([H])nn([H])c2C([H])([H])C2([H])C([H])([H])C([H])([H])C([H])([H])C([H])([H])C2([H])[H])c([H])c1[H]

$$$$
