
     RDKit          3D

 29 31  0  0  0  0  0  0  0  0999 V2000
    5.8154    3.4758   26.2255 H   0  0  0  0  0  0  0  0  0  0  0  0
    5.7671    2.4532   25.8501 C   0  0  0  0  0  0  0  0  0  0  0  0
    6.2825    2.2632   24.6318 N   0  0  0  0  0  0  0  0  0  0  0  0
    6.2490    1.0221   24.1508 C   0  0  0  0  0  0  0  0  0  0  0  0
    6.8569    0.9863   22.9043 N   0  0  0  0  0  0  0  0  0  0  0  0
    7.3530    1.8779   22.8764 H   0  0  0  0  0  0  0  0  0  0  0  0
    7.4669   -0.1709   22.4095 N   0  0  0  0  0  0  0  0  0  0  0  0
    7.4380   -0.5511   21.0492 C   0  0  0  0  0  0  0  0  0  0  0  0
    6.6633    0.1157   19.9892 C   0  0  0  0  0  0  0  0  0  0  0  0
    7.1724    0.1061   18.6779 C   0  0  0  0  0  0  0  0  0  0  0  0
    8.1253   -0.3885   18.4973 H   0  0  0  0  0  0  0  0  0  0  0  0
    6.5782    0.6805   17.6261 N   0  0  0  0  0  0  0  0  0  0  0  0
    5.4048    1.2896   17.8592 C   0  0  0  0  0  0  0  0  0  0  0  0
    4.9473    1.7647   16.9974 H   0  0  0  0  0  0  0  0  0  0  0  0
    4.7913    1.3487   19.1168 C   0  0  0  0  0  0  0  0  0  0  0  0
    3.8467    1.8703   19.2372 H   0  0  0  0  0  0  0  0  0  0  0  0
    5.4343    0.7647   20.2087 C   0  0  0  0  0  0  0  0  0  0  0  0
    5.0322    0.8143   21.2193 H   0  0  0  0  0  0  0  0  0  0  0  0
    8.2759   -1.5907   20.9622 C   0  0  0  0  0  0  0  0  0  0  0  0
    8.6074   -2.1863   20.1375 H   0  0  0  0  0  0  0  0  0  0  0  0
    8.7874   -1.9296   22.1838 O   0  0  0  0  0  0  0  0  0  0  0  0
    8.3044   -1.0644   23.1152 C   0  0  0  0  0  0  0  0  0  0  0  0
    8.5791   -1.1023   24.2851 O   0  0  0  0  0  0  0  0  0  0  0  0
    5.7179   -0.0911   24.8209 C   0  0  0  0  0  0  0  0  0  0  0  0
    5.8000   -1.0728   24.3677 H   0  0  0  0  0  0  0  0  0  0  0  0
    5.1714    0.1318   26.0824 C   0  0  0  0  0  0  0  0  0  0  0  0
    4.7467   -0.6973   26.6520 H   0  0  0  0  0  0  0  0  0  0  0  0
    5.1999    1.4299   26.6117 C   0  0  0  0  0  0  0  0  0  0  0  0
    4.8087    1.6510   27.5966 H   0  0  0  0  0  0  0  0  0  0  0  0
  1  2  1  0
  2  3  2  0
  3  4  1  0
  4  5  1  0
  5  6  1  0
  5  7  1  0
  7  8  1  0
  8  9  1  0
  9 10  2  0
 10 11  1  0
 10 12  1  0
 12 13  2  0
 13 14  1  0
 13 15  1  0
 15 16  1  0
 15 17  2  0
 17 18  1  0
  8 19  2  0
 19 20  1  0
 19 21  1  0
 21 22  1  0
 22 23  2  0
  4 24  2  0
 24 25  1  0
 24 26  1  0
 26 27  1  0
 26 28  2  0
 28 29  1  0
 28  2  1  0
 22  7  1  0
 17  9  1  0
M  END
>  <cnnaffinity>  (1) 
-4.652

>  <filename>  (1) 
[H]c1nc(N([H])n2c(-c3c([H])nc([H])c([H])c3[H])c([H])oc2=O)c([H])c([H])c1[H]

$$$$
