
     RDKit          3D

 29 31  0  0  0  0  0  0  0  0999 V2000
    4.9309    1.7906   17.0304 H   0  0  0  0  0  0  0  0  0  0  0  0
    5.4071    1.2743   17.8610 C   0  0  0  0  0  0  0  0  0  0  0  0
    6.5634    0.6505   17.5825 N   0  0  0  0  0  0  0  0  0  0  0  0
    7.2036    0.0446   18.5870 C   0  0  0  0  0  0  0  0  0  0  0  0
    8.1510   -0.4291   18.3456 H   0  0  0  0  0  0  0  0  0  0  0  0
    6.7072   -0.0049   19.9123 C   0  0  0  0  0  0  0  0  0  0  0  0
    7.4018   -0.6789   20.9858 N   0  0  0  0  0  0  0  0  0  0  0  0
    8.7797   -0.6615   21.1705 C   0  0  0  0  0  0  0  0  0  0  0  0
    9.5794   -0.0663   20.5001 O   0  0  0  0  0  0  0  0  0  0  0  0
    9.0391   -1.5918   22.3624 C   0  0  0  0  0  0  0  0  0  0  0  0
   10.0874   -1.9088   22.8555 O   0  0  0  0  0  0  0  0  0  0  0  0
    7.7901   -2.0376   22.7581 N   0  0  0  0  0  0  0  0  0  0  0  0
    7.5810   -3.0771   23.7175 C   0  0  0  0  0  0  0  0  0  0  0  0
    8.2736   -4.2879   23.5605 C   0  0  0  0  0  0  0  0  0  0  0  0
    8.9840   -4.3612   22.7428 H   0  0  0  0  0  0  0  0  0  0  0  0
    8.0824   -5.3571   24.4386 C   0  0  0  0  0  0  0  0  0  0  0  0
    8.6259   -6.2898   24.3213 H   0  0  0  0  0  0  0  0  0  0  0  0
    7.1918   -5.2004   25.5043 C   0  0  0  0  0  0  0  0  0  0  0  0
    6.9259   -6.4957   26.6348 Cl  0  0  0  0  0  0  0  0  0  0  0  0
    6.5065   -4.0016   25.6986 C   0  0  0  0  0  0  0  0  0  0  0  0
    5.8249   -3.9008   26.5363 H   0  0  0  0  0  0  0  0  0  0  0  0
    6.7020   -2.9354   24.8107 C   0  0  0  0  0  0  0  0  0  0  0  0
    5.8494   -1.4577   25.1203 Cl  0  0  0  0  0  0  0  0  0  0  0  0
    6.8365   -1.6688   21.8106 C   0  0  0  0  0  0  0  0  0  0  0  0
    5.7638   -2.1854   21.6789 O   0  0  0  0  0  0  0  0  0  0  0  0
    5.4836    0.6202   20.1767 C   0  0  0  0  0  0  0  0  0  0  0  0
    5.0651    0.5662   21.1799 H   0  0  0  0  0  0  0  0  0  0  0  0
    4.8256    1.2868   19.1326 C   0  0  0  0  0  0  0  0  0  0  0  0
    3.8905    1.8213   19.2899 H   0  0  0  0  0  0  0  0  0  0  0  0
  1  2  1  0
  2  3  2  0
  3  4  1  0
  4  5  1  0
  4  6  2  0
  6  7  1  0
  7  8  1  0
  8  9  2  0
  8 10  1  0
 10 11  2  0
 10 12  1  0
 12 13  1  0
 13 14  2  0
 14 15  1  0
 14 16  1  0
 16 17  1  0
 16 18  2  0
 18 19  1  0
 18 20  1  0
 20 21  1  0
 20 22  2  0
 22 23  1  0
 12 24  1  0
 24 25  2  0
  6 26  1  0
 26 27  1  0
 26 28  2  0
 28 29  1  0
 28  2  1  0
 24  7  1  0
 22 13  1  0
M  END
>  <cnnaffinity>  (1) 
-5.0743

>  <filename>  (1) 
[H]c1nc([H])c(N2C(=O)C(=O)N(c3c([H])c([H])c(Cl)c([H])c3Cl)C2=O)c([H])c1[H]

$$$$
