
     RDKit          3D

 41 44  0  0  0  0  0  0  0  0999 V2000
   12.2715   -2.3224   22.3623 F   0  0  0  0  0  0  0  0  0  0  0  0
   11.1579   -1.5708   22.3135 C   0  0  0  0  0  0  0  0  0  0  0  0
   11.0169   -0.9466   23.5003 F   0  0  0  0  0  0  0  0  0  0  0  0
   11.3586   -0.6340   21.3799 F   0  0  0  0  0  0  0  0  0  0  0  0
    9.9703   -2.4829   22.0516 C   0  0  0  0  0  0  0  0  0  0  0  0
    8.6985   -1.7883   21.9836 N   0  0  0  0  0  0  0  0  0  0  0  0
    8.4244   -1.2619   20.7766 N   0  0  0  0  0  0  0  0  0  0  0  0
    7.2761   -0.6521   20.9614 C   0  0  0  0  0  0  0  0  0  0  0  0
    6.5948    0.0429   19.8893 C   0  0  0  0  0  0  0  0  0  0  0  0
    5.3837    0.7058   20.1074 C   0  0  0  0  0  0  0  0  0  0  0  0
    4.7939    1.3431   19.0218 C   0  0  0  0  0  0  0  0  0  0  0  0
    5.4403    1.3037   17.7788 C   0  0  0  0  0  0  0  0  0  0  0  0
    6.6029    0.6671   17.5677 N   0  0  0  0  0  0  0  0  0  0  0  0
    7.1657    0.0496   18.6082 C   0  0  0  0  0  0  0  0  0  0  0  0
    8.1105   -0.4631   18.4307 H   0  0  0  0  0  0  0  0  0  0  0  0
    5.0160    1.8008   16.9112 H   0  0  0  0  0  0  0  0  0  0  0  0
    3.8555    1.8708   19.1213 H   0  0  0  0  0  0  0  0  0  0  0  0
    4.9441    0.7141   21.1062 H   0  0  0  0  0  0  0  0  0  0  0  0
    6.7969   -0.7326   22.2221 N   0  0  0  0  0  0  0  0  0  0  0  0
    7.7049   -1.4557   22.8564 C   0  0  0  0  0  0  0  0  0  0  0  0
    7.7382   -1.8622   24.3146 C   0  0  0  0  0  0  0  0  0  0  0  0
    6.9031   -0.9334   25.2120 C   0  0  0  0  0  0  0  0  0  0  0  0
    6.8836   -1.4569   26.6488 C   0  0  0  0  0  0  0  0  0  0  0  0
    6.4544   -2.9132   26.6685 C   0  0  0  0  0  0  0  0  0  0  0  0
    5.7931   -3.5070   27.7581 C   0  0  0  0  0  0  0  0  0  0  0  0
    5.5336   -4.8812   27.7891 C   0  0  0  0  0  0  0  0  0  0  0  0
    5.8839   -5.6740   26.6879 C   0  0  0  0  0  0  0  0  0  0  0  0
    6.4693   -5.0935   25.5634 C   0  0  0  0  0  0  0  0  0  0  0  0
    6.7587   -3.7227   25.5553 C   0  0  0  0  0  0  0  0  0  0  0  0
    7.3231   -3.2402   24.3998 O   0  0  0  0  0  0  0  0  0  0  0  0
    6.7110   -5.6676   24.6742 H   0  0  0  0  0  0  0  0  0  0  0  0
    5.6961   -6.7459   26.7035 H   0  0  0  0  0  0  0  0  0  0  0  0
    5.0679   -5.3335   28.6618 H   0  0  0  0  0  0  0  0  0  0  0  0
    5.4778   -2.8815   28.5934 H   0  0  0  0  0  0  0  0  0  0  0  0
    7.8891   -1.3658   27.0927 H   0  0  0  0  0  0  0  0  0  0  0  0
    6.2125   -0.8506   27.2688 H   0  0  0  0  0  0  0  0  0  0  0  0
    7.3414    0.0673   25.1527 H   0  0  0  0  0  0  0  0  0  0  0  0
    5.8781   -0.8782   24.8278 H   0  0  0  0  0  0  0  0  0  0  0  0
    8.7882   -1.8216   24.6483 H   0  0  0  0  0  0  0  0  0  0  0  0
    9.9427   -3.2693   22.8125 H   0  0  0  0  0  0  0  0  0  0  0  0
   10.1117   -2.8956   21.0557 H   0  0  0  0  0  0  0  0  0  0  0  0
  1  2  1  0
  2  3  1  0
  2  4  1  0
  2  5  1  0
  5  6  1  0
  6  7  1  0
  7  8  2  0
  8  9  1  0
  9 10  2  0
 10 11  1  0
 11 12  2  0
 12 13  1  0
 13 14  2  0
 14 15  1  0
 12 16  1  0
 11 17  1  0
 10 18  1  0
  8 19  1  0
 19 20  2  0
 20 21  1  0
 21 22  1  0
 22 23  1  0
 23 24  1  0
 24 25  2  0
 25 26  1  0
 26 27  2  0
 27 28  1  0
 28 29  2  0
 29 30  1  0
 28 31  1  0
 27 32  1  0
 26 33  1  0
 25 34  1  0
 23 35  1  0
 23 36  1  0
 22 37  1  0
 22 38  1  0
 21 39  1  0
  5 40  1  0
  5 41  1  0
 20  6  1  0
 30 21  1  0
 14  9  1  0
 29 24  1  0
M  END
>  <cnnaffinity>  (1) 
-6.0854

>  <filename>  (1) 
[H]c1nc([H])c(-c2nc(C3([H])Oc4c([H])c([H])c([H])c([H])c4C([H])([H])C3([H])[H])n(C([H])([H])C(F)(F)F)n2)c([H])c1[H]

$$$$
