
     RDKit          3D

 37 39  0  0  0  0  0  0  0  0999 V2000
    8.3360   -5.7270   23.1663 C   0  0  0  0  0  0  0  0  0  0  0  0
    7.7497   -4.4576   22.9932 O   0  0  0  0  0  0  0  0  0  0  0  0
    8.5258   -3.5909   22.1917 C   0  0  0  0  0  0  0  0  0  0  0  0
    7.8859   -2.2493   21.9691 C   0  0  0  0  0  0  0  0  0  0  0  0
    7.5952   -1.8458   20.7459 N   0  0  0  0  0  0  0  0  0  0  0  0
    7.0521   -0.6217   20.9405 N   0  0  0  0  0  0  0  0  0  0  0  0
    6.4575    0.0737   19.8554 C   0  0  0  0  0  0  0  0  0  0  0  0
    5.2568    0.7790   19.9959 C   0  0  0  0  0  0  0  0  0  0  0  0
    4.7318    1.4228   18.8704 C   0  0  0  0  0  0  0  0  0  0  0  0
    5.4287    1.3483   17.6594 C   0  0  0  0  0  0  0  0  0  0  0  0
    6.5720    0.6558   17.5148 N   0  0  0  0  0  0  0  0  0  0  0  0
    7.0600    0.0199   18.5836 C   0  0  0  0  0  0  0  0  0  0  0  0
    7.9606   -0.5709   18.4329 H   0  0  0  0  0  0  0  0  0  0  0  0
    5.0621    1.8598   16.7716 H   0  0  0  0  0  0  0  0  0  0  0  0
    3.8194    2.0061   18.9336 H   0  0  0  0  0  0  0  0  0  0  0  0
    4.7400    0.8173   20.9578 H   0  0  0  0  0  0  0  0  0  0  0  0
    7.1369   -0.3109   22.2773 C   0  0  0  0  0  0  0  0  0  0  0  0
    6.8618    1.0212   22.9203 C   0  0  0  0  0  0  0  0  0  0  0  0
    8.1411    1.6442   23.4627 C   0  0  0  0  0  0  0  0  0  0  0  0
    8.4770    1.5401   24.8211 C   0  0  0  0  0  0  0  0  0  0  0  0
    9.7749    1.7942   25.2770 C   0  0  0  0  0  0  0  0  0  0  0  0
   10.7252    2.2049   24.3444 C   0  0  0  0  0  0  0  0  0  0  0  0
   11.9923    2.3961   24.7361 F   0  0  0  0  0  0  0  0  0  0  0  0
   10.4108    2.4495   23.0106 C   0  0  0  0  0  0  0  0  0  0  0  0
    9.1102    2.1704   22.5901 C   0  0  0  0  0  0  0  0  0  0  0  0
    8.7134    2.4383   20.9218 Cl  0  0  0  0  0  0  0  0  0  0  0  0
   11.1618    2.8520   22.3374 H   0  0  0  0  0  0  0  0  0  0  0  0
   10.0563    1.6688   26.3166 H   0  0  0  0  0  0  0  0  0  0  0  0
    7.7017    1.2338   25.5235 H   0  0  0  0  0  0  0  0  0  0  0  0
    6.3932    1.6923   22.2013 H   0  0  0  0  0  0  0  0  0  0  0  0
    6.1561    0.8543   23.7376 H   0  0  0  0  0  0  0  0  0  0  0  0
    7.6375   -1.3328   22.9397 N   0  0  0  0  0  0  0  0  0  0  0  0
    9.5323   -3.4395   22.6245 H   0  0  0  0  0  0  0  0  0  0  0  0
    8.6544   -4.0140   21.1847 H   0  0  0  0  0  0  0  0  0  0  0  0
    7.5543   -6.3775   23.5594 H   0  0  0  0  0  0  0  0  0  0  0  0
    9.1627   -5.6902   23.8903 H   0  0  0  0  0  0  0  0  0  0  0  0
    8.7058   -6.1446   22.2149 H   0  0  0  0  0  0  0  0  0  0  0  0
  1  2  1  0
  2  3  1  0
  3  4  1  0
  4  5  2  0
  5  6  1  0
  6  7  1  0
  7  8  2  0
  8  9  1  0
  9 10  2  0
 10 11  1  0
 11 12  2  0
 12 13  1  0
 10 14  1  0
  9 15  1  0
  8 16  1  0
  6 17  1  0
 17 18  1  0
 18 19  1  0
 19 20  2  0
 20 21  1  0
 21 22  2  0
 22 23  1  0
 22 24  1  0
 24 25  2  0
 25 26  1  0
 24 27  1  0
 21 28  1  0
 20 29  1  0
 18 30  1  0
 18 31  1  0
 17 32  2  0
  3 33  1  0
  3 34  1  0
  1 35  1  0
  1 36  1  0
  1 37  1  0
 32  4  1  0
 12  7  1  0
 25 19  1  0
M  END
>  <cnnaffinity>  (1) 
-5.93588

>  <filename>  (1) 
[H]c1nc([H])c(-n2nc(C([H])([H])OC([H])([H])[H])nc2C([H])([H])c2c([H])c([H])c(F)c([H])c2Cl)c([H])c1[H]

$$$$
