
     RDKit          3D

 46 48  0  0  0  0  0  0  0  0999 V2000
    4.9676    1.7115   16.9138 H   0  0  0  0  0  0  0  0  0  0  0  0
    5.4684    1.2699   17.7740 C   0  0  0  0  0  0  0  0  0  0  0  0
    6.5851    0.5747   17.5189 N   0  0  0  0  0  0  0  0  0  0  0  0
    7.2177    0.0237   18.5623 C   0  0  0  0  0  0  0  0  0  0  0  0
    8.1102   -0.5402   18.2934 H   0  0  0  0  0  0  0  0  0  0  0  0
    6.8089    0.1323   19.9063 C   0  0  0  0  0  0  0  0  0  0  0  0
    7.4825   -0.6582   21.0525 C   0  0  0  0  0  0  0  0  0  0  0  0
    7.5286    0.1823   22.4022 C   0  0  0  0  0  0  0  0  0  0  0  0
    6.7407   -0.0076   23.3154 O   0  0  0  0  0  0  0  0  0  0  0  0
    8.5459    1.1076   22.5246 N   0  0  0  0  0  0  0  0  0  0  0  0
    9.0293    1.9570   21.4241 C   0  0  0  0  0  0  0  0  0  0  0  0
    8.5872    2.9596   21.5061 H   0  0  0  0  0  0  0  0  0  0  0  0
    8.6834    1.5733   20.4660 H   0  0  0  0  0  0  0  0  0  0  0  0
   10.5678    2.0785   21.4526 C   0  0  0  0  0  0  0  0  0  0  0  0
   11.0146    1.1019   21.2234 H   0  0  0  0  0  0  0  0  0  0  0  0
   10.9097    2.7706   20.6727 H   0  0  0  0  0  0  0  0  0  0  0  0
   11.0963    2.5389   22.7427 N   0  0  0  0  0  0  0  0  0  0  0  0
   10.8313    3.9614   22.9352 C   0  0  0  0  0  0  0  0  0  0  0  0
    9.7623    4.2466   22.8979 H   0  0  0  0  0  0  0  0  0  0  0  0
   11.2417    4.2837   23.8986 H   0  0  0  0  0  0  0  0  0  0  0  0
   11.3519    4.5153   22.1454 H   0  0  0  0  0  0  0  0  0  0  0  0
   10.6028    1.6695   23.8200 C   0  0  0  0  0  0  0  0  0  0  0  0
   11.0643    0.6798   23.6882 H   0  0  0  0  0  0  0  0  0  0  0  0
   10.9535    2.0555   24.7852 H   0  0  0  0  0  0  0  0  0  0  0  0
    9.0636    1.4916   23.8567 C   0  0  0  0  0  0  0  0  0  0  0  0
    8.7921    0.7076   24.5742 H   0  0  0  0  0  0  0  0  0  0  0  0
    8.5947    2.4286   24.1953 H   0  0  0  0  0  0  0  0  0  0  0  0
    8.9285   -1.1365   20.7167 C   0  0  0  0  0  0  0  0  0  0  0  0
    8.8783   -1.7498   19.8131 H   0  0  0  0  0  0  0  0  0  0  0  0
    9.5696   -0.2894   20.4531 H   0  0  0  0  0  0  0  0  0  0  0  0
    9.5752   -1.9600   21.8600 C   0  0  0  0  0  0  0  0  0  0  0  0
   10.2202   -2.7151   21.3959 H   0  0  0  0  0  0  0  0  0  0  0  0
   10.2403   -1.3264   22.4622 H   0  0  0  0  0  0  0  0  0  0  0  0
    8.5469   -2.6446   22.7942 C   0  0  0  0  0  0  0  0  0  0  0  0
    9.0105   -3.5093   23.2884 H   0  0  0  0  0  0  0  0  0  0  0  0
    8.2432   -1.9519   23.5919 H   0  0  0  0  0  0  0  0  0  0  0  0
    7.2913   -3.0930   22.0295 C   0  0  0  0  0  0  0  0  0  0  0  0
    6.5699   -3.5468   22.7229 H   0  0  0  0  0  0  0  0  0  0  0  0
    7.5832   -3.8797   21.3181 H   0  0  0  0  0  0  0  0  0  0  0  0
    6.6056   -1.9465   21.2469 C   0  0  0  0  0  0  0  0  0  0  0  0
    5.6735   -1.6323   21.7292 H   0  0  0  0  0  0  0  0  0  0  0  0
    6.3276   -2.3152   20.2484 H   0  0  0  0  0  0  0  0  0  0  0  0
    5.6254    0.8524   20.1466 C   0  0  0  0  0  0  0  0  0  0  0  0
    5.2372    0.9416   21.1634 H   0  0  0  0  0  0  0  0  0  0  0  0
    4.9494    1.4308   19.0624 C   0  0  0  0  0  0  0  0  0  0  0  0
    4.0338    1.9905   19.2038 H   0  0  0  0  0  0  0  0  0  0  0  0
  1  2  1  0
  2  3  2  0
  3  4  1  0
  4  5  1  0
  4  6  2  0
  6  7  1  0
  7  8  1  0
  8  9  2  0
  8 10  1  0
 10 11  1  0
 11 12  1  0
 11 13  1  0
 11 14  1  0
 14 15  1  0
 14 16  1  0
 14 17  1  0
 17 18  1  0
 18 19  1  0
 18 20  1  0
 18 21  1  0
 17 22  1  0
 22 23  1  0
 22 24  1  0
 22 25  1  0
 25 26  1  0
 25 27  1  0
  7 28  1  0
 28 29  1  0
 28 30  1  0
 28 31  1  0
 31 32  1  0
 31 33  1  0
 31 34  1  0
 34 35  1  0
 34 36  1  0
 34 37  1  0
 37 38  1  0
 37 39  1  0
 37 40  1  0
 40 41  1  0
 40 42  1  0
  6 43  1  0
 43 44  1  0
 43 45  2  0
 45 46  1  0
 45  2  1  0
 40  7  1  0
 25 10  1  0
M  END
>  <cnnaffinity>  (1) 
-5.14214

>  <filename>  (1) 
[H]c1nc([H])c(C2(C(=O)N3C([H])([H])C([H])([H])N(C([H])([H])[H])C([H])([H])C3([H])[H])C([H])([H])C([H])([H])C([H])([H])C([H])([H])C2([H])[H])c([H])c1[H]

$$$$
