
     RDKit          3D

 39 41  0  0  0  0  0  0  0  0999 V2000
    4.9121    1.7827   16.9963 H   0  0  0  0  0  0  0  0  0  0  0  0
    5.4013    1.2976   17.8355 C   0  0  0  0  0  0  0  0  0  0  0  0
    6.5619    0.6776   17.5660 N   0  0  0  0  0  0  0  0  0  0  0  0
    7.1684    0.0696   18.5918 C   0  0  0  0  0  0  0  0  0  0  0  0
    8.1159   -0.4296   18.3745 H   0  0  0  0  0  0  0  0  0  0  0  0
    6.6591    0.0249   19.8964 C   0  0  0  0  0  0  0  0  0  0  0  0
    7.3527   -0.7357   20.9531 C   0  0  0  0  0  0  0  0  0  0  0  0
    6.7259   -1.8731   21.4659 C   0  0  0  0  0  0  0  0  0  0  0  0
    5.7486   -2.1646   21.0952 H   0  0  0  0  0  0  0  0  0  0  0  0
    7.3852   -2.6288   22.4271 C   0  0  0  0  0  0  0  0  0  0  0  0
    6.9183   -3.5200   22.8277 H   0  0  0  0  0  0  0  0  0  0  0  0
    8.6002   -2.3225   22.8984 N   0  0  0  0  0  0  0  0  0  0  0  0
    9.1794   -1.2215   22.4063 C   0  0  0  0  0  0  0  0  0  0  0  0
   10.1558   -0.9714   22.8130 H   0  0  0  0  0  0  0  0  0  0  0  0
    8.6256   -0.3697   21.4389 C   0  0  0  0  0  0  0  0  0  0  0  0
    9.3463    0.9028   21.0409 C   0  0  0  0  0  0  0  0  0  0  0  0
   10.4287    0.7126   21.0170 H   0  0  0  0  0  0  0  0  0  0  0  0
    9.0589    1.1553   20.0191 H   0  0  0  0  0  0  0  0  0  0  0  0
    9.0902    2.1352   21.9429 C   0  0  0  0  0  0  0  0  0  0  0  0
    9.6725    2.9648   21.5108 H   0  0  0  0  0  0  0  0  0  0  0  0
    9.5984    1.9434   23.3838 C   0  0  0  0  0  0  0  0  0  0  0  0
   10.6567    1.6502   23.3750 H   0  0  0  0  0  0  0  0  0  0  0  0
    9.0471    1.1217   23.8611 H   0  0  0  0  0  0  0  0  0  0  0  0
    9.4013    3.2044   24.2299 C   0  0  0  0  0  0  0  0  0  0  0  0
   10.0342    4.0064   23.8265 H   0  0  0  0  0  0  0  0  0  0  0  0
    9.7370    3.0231   25.2568 H   0  0  0  0  0  0  0  0  0  0  0  0
    7.9376    3.6641   24.2210 C   0  0  0  0  0  0  0  0  0  0  0  0
    7.8266    4.5928   24.7920 H   0  0  0  0  0  0  0  0  0  0  0  0
    7.3240    2.9088   24.7320 H   0  0  0  0  0  0  0  0  0  0  0  0
    7.4079    3.8468   22.7923 C   0  0  0  0  0  0  0  0  0  0  0  0
    6.3464    4.1206   22.8094 H   0  0  0  0  0  0  0  0  0  0  0  0
    7.9368    4.6853   22.3169 H   0  0  0  0  0  0  0  0  0  0  0  0
    7.6162    2.5838   21.9486 C   0  0  0  0  0  0  0  0  0  0  0  0
    7.2581    2.7430   20.9277 H   0  0  0  0  0  0  0  0  0  0  0  0
    6.9913    1.7739   22.3474 H   0  0  0  0  0  0  0  0  0  0  0  0
    5.4307    0.6504   20.1525 C   0  0  0  0  0  0  0  0  0  0  0  0
    5.0058    0.6275   21.1610 H   0  0  0  0  0  0  0  0  0  0  0  0
    4.8033    1.3162   19.1026 C   0  0  0  0  0  0  0  0  0  0  0  0
    3.8696    1.8460   19.2589 H   0  0  0  0  0  0  0  0  0  0  0  0
  1  2  1  0
  2  3  2  0
  3  4  1  0
  4  5  1  0
  4  6  2  0
  6  7  1  0
  7  8  2  0
  8  9  1  0
  8 10  1  0
 10 11  1  0
 10 12  2  0
 12 13  1  0
 13 14  1  0
 13 15  2  0
 15 16  1  0
 16 17  1  0
 16 18  1  0
 16 19  1  0
 19 20  1  0
 19 21  1  0
 21 22  1  0
 21 23  1  0
 21 24  1  0
 24 25  1  0
 24 26  1  0
 24 27  1  0
 27 28  1  0
 27 29  1  0
 27 30  1  0
 30 31  1  0
 30 32  1  0
 30 33  1  0
 33 34  1  0
 33 35  1  0
  6 36  1  0
 36 37  1  0
 36 38  2  0
 38 39  1  0
 38  2  1  0
 15  7  1  0
 33 19  1  0
M  END
>  <cnnaffinity>  (1) 
-5.31948

>  <filename>  (1) 
[H]c1nc([H])c(-c2c([H])c([H])nc([H])c2C([H])([H])C2([H])C([H])([H])C([H])([H])C([H])([H])C([H])([H])C2([H])[H])c([H])c1[H]

$$$$
