
     RDKit          3D

 30 32  0  0  0  0  0  0  0  0999 V2000
    8.5251   -1.9770   19.8947 H   0  0  0  0  0  0  0  0  0  0  0  0
    8.2422   -1.6445   20.8723 C   0  0  0  0  0  0  0  0  0  0  0  0
    8.7714   -2.3168   21.8898 N   0  0  0  0  0  0  0  0  0  0  0  0
    8.5331   -1.8751   23.1245 N   0  0  0  0  0  0  0  0  0  0  0  0
    7.7996   -0.7597   23.3044 C   0  0  0  0  0  0  0  0  0  0  0  0
    7.7120   -0.2620   24.7171 C   0  0  0  0  0  0  0  0  0  0  0  0
    6.9741    0.8366   24.9102 N   0  0  0  0  0  0  0  0  0  0  0  0
    6.8404    1.3405   26.1338 C   0  0  0  0  0  0  0  0  0  0  0  0
    5.9585    2.6006   26.2711 C   0  0  0  0  0  0  0  0  0  0  0  0
    5.4359    3.0321   25.1198 F   0  0  0  0  0  0  0  0  0  0  0  0
    6.6702    3.6204   26.7978 F   0  0  0  0  0  0  0  0  0  0  0  0
    4.9302    2.3692   27.1157 F   0  0  0  0  0  0  0  0  0  0  0  0
    7.4595    0.7715   27.2590 C   0  0  0  0  0  0  0  0  0  0  0  0
    7.3226    1.2156   28.2397 H   0  0  0  0  0  0  0  0  0  0  0  0
    8.2494   -0.3686   27.0658 C   0  0  0  0  0  0  0  0  0  0  0  0
    8.7553   -0.8317   27.9122 H   0  0  0  0  0  0  0  0  0  0  0  0
    8.3825   -0.8997   25.7834 C   0  0  0  0  0  0  0  0  0  0  0  0
    8.9819   -1.7810   25.5911 H   0  0  0  0  0  0  0  0  0  0  0  0
    7.1636   -0.0970   22.3091 N   0  0  0  0  0  0  0  0  0  0  0  0
    7.3651   -0.5472   21.0761 C   0  0  0  0  0  0  0  0  0  0  0  0
    6.6307    0.1036   19.9682 C   0  0  0  0  0  0  0  0  0  0  0  0
    7.1639    0.0961   18.6693 C   0  0  0  0  0  0  0  0  0  0  0  0
    8.1207   -0.3870   18.4597 H   0  0  0  0  0  0  0  0  0  0  0  0
    6.5733    0.6660   17.6199 N   0  0  0  0  0  0  0  0  0  0  0  0
    5.4039    1.2862   17.8342 C   0  0  0  0  0  0  0  0  0  0  0  0
    4.9706    1.7839   16.9723 H   0  0  0  0  0  0  0  0  0  0  0  0
    4.7640    1.3272   19.0762 C   0  0  0  0  0  0  0  0  0  0  0  0
    3.8173    1.8490   19.1805 H   0  0  0  0  0  0  0  0  0  0  0  0
    5.3858    0.7281   20.1681 C   0  0  0  0  0  0  0  0  0  0  0  0
    4.9385    0.7434   21.1643 H   0  0  0  0  0  0  0  0  0  0  0  0
  1  2  1  0
  2  3  2  0
  3  4  1  0
  4  5  2  0
  5  6  1  0
  6  7  2  0
  7  8  1  0
  8  9  1  0
  9 10  1  0
  9 11  1  0
  9 12  1  0
  8 13  2  0
 13 14  1  0
 13 15  1  0
 15 16  1  0
 15 17  2  0
 17 18  1  0
  5 19  1  0
 19 20  2  0
 20 21  1  0
 21 22  2  0
 22 23  1  0
 22 24  1  0
 24 25  2  0
 25 26  1  0
 25 27  1  0
 27 28  1  0
 27 29  2  0
 29 30  1  0
 20  2  1  0
 29 21  1  0
 17  6  1  0
M  END
>  <cnnaffinity>  (1) 
-5.35147

>  <filename>  (1) 
[H]c1nnc(-c2nc(C(F)(F)F)c([H])c([H])c2[H])nc1-c1c([H])nc([H])c([H])c1[H]

$$$$
