
     RDKit          3D

 38 40  0  0  0  0  0  0  0  0999 V2000
    8.0181    2.3375   20.9571 H   0  0  0  0  0  0  0  0  0  0  0  0
    8.2889    2.1117   21.9926 C   0  0  0  0  0  0  0  0  0  0  0  0
    8.6546    0.8706   22.3222 C   0  0  0  0  0  0  0  0  0  0  0  0
    8.8362    0.6056   23.3658 H   0  0  0  0  0  0  0  0  0  0  0  0
    8.7159   -0.2611   21.3122 C   0  0  2  0  0  0  0  0  0  0  0  0
    9.2235    0.1238   20.4177 H   0  0  0  0  0  0  0  0  0  0  0  0
    7.3899   -0.7446   20.8720 N   0  0  0  0  0  0  0  0  0  0  0  0
    6.6794    0.0062   19.9077 C   0  0  0  0  0  0  0  0  0  0  0  0
    7.1781    0.0820   18.5841 C   0  0  0  0  0  0  0  0  0  0  0  0
    8.1166   -0.4228   18.3667 H   0  0  0  0  0  0  0  0  0  0  0  0
    6.5616    0.6847   17.5611 N   0  0  0  0  0  0  0  0  0  0  0  0
    5.3969    1.2994   17.8316 C   0  0  0  0  0  0  0  0  0  0  0  0
    4.9087    1.7857   16.9899 H   0  0  0  0  0  0  0  0  0  0  0  0
    4.8109    1.3120   19.1058 C   0  0  0  0  0  0  0  0  0  0  0  0
    3.8725    1.8416   19.2598 H   0  0  0  0  0  0  0  0  0  0  0  0
    5.4515    0.6482   20.1639 C   0  0  0  0  0  0  0  0  0  0  0  0
    5.0220    0.6176   21.1708 H   0  0  0  0  0  0  0  0  0  0  0  0
    6.6518   -1.5491   21.8446 C   0  0  0  0  0  0  0  0  0  0  0  0
    6.2745   -0.9758   22.7107 H   0  0  0  0  0  0  0  0  0  0  0  0
    5.7852   -1.9849   21.3340 H   0  0  0  0  0  0  0  0  0  0  0  0
    7.5666   -2.6669   22.3409 C   0  0  0  0  0  0  0  0  0  0  0  0
    7.0834   -3.2258   23.1429 H   0  0  0  0  0  0  0  0  0  0  0  0
    7.7808   -3.3545   21.5108 H   0  0  0  0  0  0  0  0  0  0  0  0
    8.7892   -2.1605   22.8559 O   0  0  0  0  0  0  0  0  0  0  0  0
    9.5046   -1.4649   21.8431 C   0  0  0  0  0  0  0  0  0  0  0  0
   10.4468   -1.1277   22.2815 H   0  0  0  0  0  0  0  0  0  0  0  0
    9.7276   -2.1444   21.0086 H   0  0  0  0  0  0  0  0  0  0  0  0
    8.1554    3.2412   22.9336 C   0  0  0  0  0  0  0  0  0  0  0  0
    8.7906    3.2485   24.1911 C   0  0  0  0  0  0  0  0  0  0  0  0
    9.4303    2.4160   24.4794 H   0  0  0  0  0  0  0  0  0  0  0  0
    8.6319    4.3280   25.0623 C   0  0  0  0  0  0  0  0  0  0  0  0
    9.1337    4.3175   26.0272 H   0  0  0  0  0  0  0  0  0  0  0  0
    7.8312    5.4153   24.6934 C   0  0  0  0  0  0  0  0  0  0  0  0
    7.7076    6.2552   25.3710 H   0  0  0  0  0  0  0  0  0  0  0  0
    7.1922    5.4205   23.4466 C   0  0  0  0  0  0  0  0  0  0  0  0
    6.5739    6.2642   23.1488 H   0  0  0  0  0  0  0  0  0  0  0  0
    7.3579    4.3420   22.5742 C   0  0  0  0  0  0  0  0  0  0  0  0
    6.8586    4.3444   21.6055 H   0  0  0  0  0  0  0  0  0  0  0  0
  1  2  1  0
  2  3  2  3
  3  4  1  0
  3  5  1  0
  5  6  1  6
  5  7  1  0
  7  8  1  0
  8  9  2  0
  9 10  1  0
  9 11  1  0
 11 12  2  0
 12 13  1  0
 12 14  1  0
 14 15  1  0
 14 16  2  0
 16 17  1  0
  7 18  1  0
 18 19  1  0
 18 20  1  0
 18 21  1  0
 21 22  1  0
 21 23  1  0
 21 24  1  0
 24 25  1  0
 25 26  1  0
 25 27  1  0
  2 28  1  0
 28 29  2  0
 29 30  1  0
 29 31  1  0
 31 32  1  0
 31 33  2  0
 33 34  1  0
 33 35  1  0
 35 36  1  0
 35 37  2  0
 37 38  1  0
 25  5  1  0
 37 28  1  0
 16  8  1  0
M  END
>  <cnnaffinity>  (1) 
-4.8857

>  <filename>  (1) 
[H]C(=C([H])[C@]1([H])N(c2c([H])nc([H])c([H])c2[H])C([H])([H])C([H])([H])OC1([H])[H])c1c([H])c([H])c([H])c([H])c1[H]

$$$$
