
     RDKit          3D

 38 39  0  0  0  0  0  0  0  0999 V2000
   11.4941    1.6577   23.1836 C   0  0  0  0  0  0  0  0  0  0  0  0
   10.6195    2.2331   24.2715 C   0  0  0  0  0  0  0  0  0  0  0  0
   10.3148    3.6019   24.2907 C   0  0  0  0  0  0  0  0  0  0  0  0
    9.5360    4.2124   25.1924 N   0  0  0  0  0  0  0  0  0  0  0  0
    8.9818    3.4346   26.1260 C   0  0  0  0  0  0  0  0  0  0  0  0
    9.1885    2.0613   26.1933 C   0  0  0  0  0  0  0  0  0  0  0  0
   10.0448    1.4322   25.2802 C   0  0  0  0  0  0  0  0  0  0  0  0
   10.2523   -0.0696   25.3797 C   0  0  0  0  0  0  0  0  0  0  0  0
    9.0087   -0.8756   24.9469 C   0  0  0  0  0  0  0  0  0  0  0  0
    8.6993   -0.6862   23.4648 C   0  0  0  0  0  0  0  0  0  0  0  0
    7.5573   -1.5002   23.0824 N   0  0  0  0  0  0  0  0  0  0  0  0
    6.9336   -1.5629   21.8862 C   0  0  0  0  0  0  0  0  0  0  0  0
    5.7076   -2.6506   21.6331 S   0  0  0  0  0  0  0  0  0  0  0  0
    7.4051   -0.6786   20.9565 N   0  0  0  0  0  0  0  0  0  0  0  0
    6.6699   -0.0286   19.9218 C   0  0  0  0  0  0  0  0  0  0  0  0
    5.4444    0.6096   20.1561 C   0  0  0  0  0  0  0  0  0  0  0  0
    4.8326    1.2752   19.0858 C   0  0  0  0  0  0  0  0  0  0  0  0
    5.4428    1.2693   17.8284 C   0  0  0  0  0  0  0  0  0  0  0  0
    6.6133    0.6507   17.5933 N   0  0  0  0  0  0  0  0  0  0  0  0
    7.2005    0.0278   18.6211 C   0  0  0  0  0  0  0  0  0  0  0  0
    8.1529   -0.4635   18.4278 H   0  0  0  0  0  0  0  0  0  0  0  0
    4.9853    1.7786   16.9806 H   0  0  0  0  0  0  0  0  0  0  0  0
    3.8944    1.8010   19.2138 H   0  0  0  0  0  0  0  0  0  0  0  0
    5.0118    0.5954   21.1565 H   0  0  0  0  0  0  0  0  0  0  0  0
    8.3438   -0.3499   21.1347 H   0  0  0  0  0  0  0  0  0  0  0  0
    7.0764   -2.0531   23.7795 H   0  0  0  0  0  0  0  0  0  0  0  0
    9.5871   -0.9863   22.8790 H   0  0  0  0  0  0  0  0  0  0  0  0
    8.5077    0.3840   23.2713 H   0  0  0  0  0  0  0  0  0  0  0  0
    8.1363   -0.5568   25.5363 H   0  0  0  0  0  0  0  0  0  0  0  0
    9.1640   -1.9450   25.1476 H   0  0  0  0  0  0  0  0  0  0  0  0
   10.5076   -0.3212   26.4177 H   0  0  0  0  0  0  0  0  0  0  0  0
   11.1123   -0.3768   24.7698 H   0  0  0  0  0  0  0  0  0  0  0  0
    8.6929    1.4827   26.9651 H   0  0  0  0  0  0  0  0  0  0  0  0
    8.3598    3.9367   26.8626 H   0  0  0  0  0  0  0  0  0  0  0  0
   10.7351    4.2456   23.5209 H   0  0  0  0  0  0  0  0  0  0  0  0
   12.4246    1.2310   23.5726 H   0  0  0  0  0  0  0  0  0  0  0  0
   11.7754    2.4097   22.4415 H   0  0  0  0  0  0  0  0  0  0  0  0
   10.9704    0.8573   22.6493 H   0  0  0  0  0  0  0  0  0  0  0  0
  1  2  1  0
  2  3  2  0
  3  4  1  0
  4  5  2  0
  5  6  1  0
  6  7  2  0
  7  8  1  0
  8  9  1  0
  9 10  1  0
 10 11  1  0
 11 12  1  0
 12 13  2  0
 12 14  1  0
 14 15  1  0
 15 16  2  0
 16 17  1  0
 17 18  2  0
 18 19  1  0
 19 20  2  0
 20 21  1  0
 18 22  1  0
 17 23  1  0
 16 24  1  0
 14 25  1  0
 11 26  1  0
 10 27  1  0
 10 28  1  0
  9 29  1  0
  9 30  1  0
  8 31  1  0
  8 32  1  0
  6 33  1  0
  5 34  1  0
  3 35  1  0
  1 36  1  0
  1 37  1  0
  1 38  1  0
  7  2  1  0
 20 15  1  0
M  END
>  <cnnaffinity>  (1) 
-5.303

>  <filename>  (1) 
[H]c1nc([H])c(N([H])C(=S)N([H])C([H])([H])C([H])([H])C([H])([H])c2c([H])c([H])nc([H])c2C([H])([H])[H])c([H])c1[H]

$$$$
