
     RDKit          3D

 27 29  0  0  0  0  0  0  0  0999 V2000
    4.9559    1.8259   16.9727 H   0  0  0  0  0  0  0  0  0  0  0  0
    5.4064    1.3016   17.8102 C   0  0  0  0  0  0  0  0  0  0  0  0
    6.5588    0.6588   17.5559 N   0  0  0  0  0  0  0  0  0  0  0  0
    7.1410    0.0179   18.5750 C   0  0  0  0  0  0  0  0  0  0  0  0
    8.0773   -0.4930   18.3494 H   0  0  0  0  0  0  0  0  0  0  0  0
    6.6229    0.0052   19.8724 C   0  0  0  0  0  0  0  0  0  0  0  0
    7.3624   -0.7173   20.9120 C   0  0  0  0  0  0  0  0  0  0  0  0
    7.8655   -1.9234   20.7852 N   0  0  0  0  0  0  0  0  0  0  0  0
    8.3605   -2.2475   22.0242 C   0  0  0  0  0  0  0  0  0  0  0  0
    8.7616   -3.2366   22.2151 H   0  0  0  0  0  0  0  0  0  0  0  0
    8.2046   -1.2158   22.9014 C   0  0  0  0  0  0  0  0  0  0  0  0
    8.4275   -1.0921   23.9518 H   0  0  0  0  0  0  0  0  0  0  0  0
    7.5807   -0.2237   22.1843 N   0  0  0  0  0  0  0  0  0  0  0  0
    7.1448    0.9797   22.7521 N   0  0  0  0  0  0  0  0  0  0  0  0
    7.4840    1.0357   23.7061 H   0  0  0  0  0  0  0  0  0  0  0  0
    7.5179    2.1607   22.0043 C   0  0  0  0  0  0  0  0  0  0  0  0
    8.1572    1.9980   21.1401 H   0  0  0  0  0  0  0  0  0  0  0  0
    7.6637    3.4263   22.7801 C   0  0  0  0  0  0  0  0  0  0  0  0
    8.3748    4.1661   22.4163 H   0  0  0  0  0  0  0  0  0  0  0  0
    7.5898    3.3735   23.8640 H   0  0  0  0  0  0  0  0  0  0  0  0
    6.4421    3.1941   21.9304 C   0  0  0  0  0  0  0  0  0  0  0  0
    5.5204    2.9031   22.4280 H   0  0  0  0  0  0  0  0  0  0  0  0
    6.3210    3.7773   21.0241 H   0  0  0  0  0  0  0  0  0  0  0  0
    5.4131    0.6764   20.1288 C   0  0  0  0  0  0  0  0  0  0  0  0
    4.9905    0.6957   21.1352 H   0  0  0  0  0  0  0  0  0  0  0  0
    4.7904    1.3227   19.0660 C   0  0  0  0  0  0  0  0  0  0  0  0
    3.8566    1.8570   19.1998 H   0  0  0  0  0  0  0  0  0  0  0  0
  1  2  1  0
  2  3  2  0
  3  4  1  0
  4  5  1  0
  4  6  2  0
  6  7  1  0
  7  8  2  0
  8  9  1  0
  9 10  1  0
  9 11  2  0
 11 12  1  0
 11 13  1  0
 13 14  1  0
 14 15  1  0
 14 16  1  0
 16 17  1  0
 16 18  1  0
 18 19  1  0
 18 20  1  0
 18 21  1  0
 21 22  1  0
 21 23  1  0
  6 24  1  0
 24 25  1  0
 24 26  2  0
 26 27  1  0
 26  2  1  0
 13  7  1  0
 21 16  1  0
M  END
>  <cnnaffinity>  (1) 
-4.59741

>  <filename>  (1) 
[H]c1nc([H])c(-c2nc([H])c([H])n2N([H])C2([H])C([H])([H])C2([H])[H])c([H])c1[H]

$$$$
