
     RDKit          3D

 35 36  0  0  0  0  0  0  0  0999 V2000
   11.5962    0.0751   22.9575 O   0  0  0  0  0  0  0  0  0  0  0  0
   10.4829   -0.2272   23.3724 C   0  0  0  0  0  0  0  0  0  0  0  0
    9.9099   -1.5639   22.9886 C   0  0  0  0  0  0  0  0  0  0  0  0
   10.0204   -1.6406   21.4786 C   0  0  0  0  0  0  0  0  0  0  0  0
    9.1528   -0.5700   20.9872 N   0  0  0  0  0  0  0  0  0  0  0  0
    7.5173   -0.8990   21.2835 S   0  0  0  0  0  0  0  0  0  0  0  0
    7.2947   -2.3372   21.1014 O   0  0  0  0  0  0  0  0  0  0  0  0
    7.2632   -0.4092   22.6399 O   0  0  0  0  0  0  0  0  0  0  0  0
    6.6764    0.0454   20.0491 C   0  0  0  0  0  0  0  0  0  0  0  0
    5.4662    0.7131   20.2432 C   0  0  0  0  0  0  0  0  0  0  0  0
    4.9099    1.3021   19.1173 C   0  0  0  0  0  0  0  0  0  0  0  0
    5.5776    1.2307   17.8923 C   0  0  0  0  0  0  0  0  0  0  0  0
    6.7564    0.5984   17.7568 N   0  0  0  0  0  0  0  0  0  0  0  0
    7.2970    0.0087   18.8227 C   0  0  0  0  0  0  0  0  0  0  0  0
    8.2317   -0.5262   18.6843 H   0  0  0  0  0  0  0  0  0  0  0  0
    5.1274    1.6961   17.0180 H   0  0  0  0  0  0  0  0  0  0  0  0
    3.9600    1.8220   19.1659 H   0  0  0  0  0  0  0  0  0  0  0  0
    4.9484    0.7697   21.2048 H   0  0  0  0  0  0  0  0  0  0  0  0
    9.3338    0.2886   21.4887 H   0  0  0  0  0  0  0  0  0  0  0  0
    9.7094   -2.6249   21.1096 H   0  0  0  0  0  0  0  0  0  0  0  0
   11.0620   -1.4839   21.1563 H   0  0  0  0  0  0  0  0  0  0  0  0
    8.8671   -1.6198   23.3135 H   0  0  0  0  0  0  0  0  0  0  0  0
   10.4614   -2.3697   23.4779 H   0  0  0  0  0  0  0  0  0  0  0  0
    9.6847    0.6555   24.0840 N   0  0  0  0  0  0  0  0  0  0  0  0
    9.9870    2.0208   24.2795 C   0  0  0  0  0  0  0  0  0  0  0  0
   11.0217    2.6005   23.5471 C   0  0  0  0  0  0  0  0  0  0  0  0
   11.2839    3.9599   23.6961 C   0  0  0  0  0  0  0  0  0  0  0  0
   10.5270    4.7211   24.5954 C   0  0  0  0  0  0  0  0  0  0  0  0
   10.9712    6.5624   24.8349 Br  0  0  0  0  0  0  0  0  0  0  0  0
    9.5276    4.1837   25.3191 N   0  0  0  0  0  0  0  0  0  0  0  0
    9.2640    2.8665   25.1598 C   0  0  0  0  0  0  0  0  0  0  0  0
    8.4700    2.4263   25.7517 H   0  0  0  0  0  0  0  0  0  0  0  0
   12.0514    4.4317   23.0907 H   0  0  0  0  0  0  0  0  0  0  0  0
   11.6023    2.0251   22.8344 H   0  0  0  0  0  0  0  0  0  0  0  0
    8.7825    0.2969   24.3922 H   0  0  0  0  0  0  0  0  0  0  0  0
  1  2  2  0
  2  3  1  0
  3  4  1  0
  4  5  1  0
  5  6  1  0
  6  7  2  0
  6  8  2  0
  6  9  1  0
  9 10  2  0
 10 11  1  0
 11 12  2  0
 12 13  1  0
 13 14  2  0
 14 15  1  0
 12 16  1  0
 11 17  1  0
 10 18  1  0
  5 19  1  0
  4 20  1  0
  4 21  1  0
  3 22  1  0
  3 23  1  0
  2 24  1  0
 24 25  1  0
 25 26  2  0
 26 27  1  0
 27 28  2  0
 28 29  1  0
 28 30  1  0
 30 31  2  0
 31 32  1  0
 27 33  1  0
 26 34  1  0
 24 35  1  0
 14  9  1  0
 31 25  1  0
M  END
>  <cnnaffinity>  (1) 
-5.40921

>  <filename>  (1) 
[H]c1nc([H])c(S(=O)(=O)N([H])C([H])([H])C([H])([H])C(=O)N([H])c2c([H])nc(Br)c([H])c2[H])c([H])c1[H]

$$$$
