
     RDKit          3D

 31 33  0  0  0  0  0  0  0  0999 V2000
    4.9260    1.7928   16.9867 H   0  0  0  0  0  0  0  0  0  0  0  0
    5.3957    1.2955   17.8327 C   0  0  0  0  0  0  0  0  0  0  0  0
    6.5597    0.6776   17.5740 N   0  0  0  0  0  0  0  0  0  0  0  0
    7.1711    0.0605   18.5912 C   0  0  0  0  0  0  0  0  0  0  0  0
    8.1210   -0.4216   18.3563 H   0  0  0  0  0  0  0  0  0  0  0  0
    6.6507    0.0098   19.9032 C   0  0  0  0  0  0  0  0  0  0  0  0
    7.3121   -0.6923   20.9536 C   0  0  0  0  0  0  0  0  0  0  0  0
    7.8305   -1.2857   21.8695 C   0  0  0  0  0  0  0  0  0  0  0  0
    8.5547   -1.9594   22.9105 C   0  0  0  0  0  0  0  0  0  0  0  0
    7.8526   -2.4084   23.9230 N   0  0  0  0  0  0  0  0  0  0  0  0
    8.5011   -3.0940   24.9175 N   0  0  0  0  0  0  0  0  0  0  0  0
    7.6960   -3.6122   25.9785 C   0  0  0  0  0  0  0  0  0  0  0  0
    6.5667   -2.8956   26.4229 C   0  0  0  0  0  0  0  0  0  0  0  0
    6.3116   -1.9507   25.9488 H   0  0  0  0  0  0  0  0  0  0  0  0
    5.7741   -3.3062   27.4206 N   0  0  0  0  0  0  0  0  0  0  0  0
    6.0626   -4.4752   28.0123 C   0  0  0  0  0  0  0  0  0  0  0  0
    5.3879   -4.7763   28.8098 H   0  0  0  0  0  0  0  0  0  0  0  0
    7.1530   -5.2671   27.6397 C   0  0  0  0  0  0  0  0  0  0  0  0
    7.3396   -6.2023   28.1551 H   0  0  0  0  0  0  0  0  0  0  0  0
    7.9919   -4.8333   26.6079 C   0  0  0  0  0  0  0  0  0  0  0  0
    8.8411   -5.4309   26.2732 H   0  0  0  0  0  0  0  0  0  0  0  0
    9.8680   -3.2993   24.8888 C   0  0  0  0  0  0  0  0  0  0  0  0
   10.2639   -3.7986   25.7660 H   0  0  0  0  0  0  0  0  0  0  0  0
   10.6399   -2.9317   23.8638 C   0  0  0  0  0  0  0  0  0  0  0  0
   11.6645   -3.2511   23.7472 H   0  0  0  0  0  0  0  0  0  0  0  0
   10.0654   -2.1330   22.7798 C   0  0  0  0  0  0  0  0  0  0  0  0
   10.7454   -1.6994   21.8643 O   0  0  0  0  0  0  0  0  0  0  0  0
    5.4321    0.6594   20.1520 C   0  0  0  0  0  0  0  0  0  0  0  0
    5.0040    0.6432   21.1524 H   0  0  0  0  0  0  0  0  0  0  0  0
    4.8005    1.3146   19.0974 C   0  0  0  0  0  0  0  0  0  0  0  0
    3.8694    1.8462   19.2415 H   0  0  0  0  0  0  0  0  0  0  0  0
  1  2  1  0
  2  3  2  0
  3  4  1  0
  4  5  1  0
  4  6  2  0
  6  7  1  0
  7  8  3  0
  8  9  1  0
  9 10  2  0
 10 11  1  0
 11 12  1  0
 12 13  2  0
 13 14  1  0
 13 15  1  0
 15 16  2  0
 16 17  1  0
 16 18  1  0
 18 19  1  0
 18 20  2  0
 20 21  1  0
 11 22  1  0
 22 23  1  0
 22 24  2  0
 24 25  1  0
 24 26  1  0
 26 27  2  0
  6 28  1  0
 28 29  1  0
 28 30  2  0
 30 31  1  0
 30  2  1  0
 26  9  1  0
 20 12  1  0
M  END
>  <cnnaffinity>  (1) 
-5.57831

>  <filename>  (1) 
[H]c1nc([H])c(C#Cc2nn(-c3c([H])nc([H])c([H])c3[H])c([H])c([H])c2=O)c([H])c1[H]

$$$$
