
     RDKit          3D

 30 32  0  0  0  0  0  0  0  0999 V2000
    4.9740    1.7722   16.9984 H   0  0  0  0  0  0  0  0  0  0  0  0
    5.4246    1.2746   17.8534 C   0  0  0  0  0  0  0  0  0  0  0  0
    6.5825    0.6416   17.6234 N   0  0  0  0  0  0  0  0  0  0  0  0
    7.1656    0.0275   18.6557 C   0  0  0  0  0  0  0  0  0  0  0  0
    8.1235   -0.4435   18.4291 H   0  0  0  0  0  0  0  0  0  0  0  0
    6.6280   -0.0228   19.9549 C   0  0  0  0  0  0  0  0  0  0  0  0
    7.3529   -0.7355   21.0167 C   0  0  0  0  0  0  0  0  0  0  0  0
    6.5980   -1.3458   21.9008 N   0  0  0  0  0  0  0  0  0  0  0  0
    7.1281   -2.1320   22.8456 C   0  0  0  0  0  0  0  0  0  0  0  0
    8.3637   -2.5758   23.0392 N   0  0  0  0  0  0  0  0  0  0  0  0
    8.2891   -3.3498   24.1759 C   0  0  0  0  0  0  0  0  0  0  0  0
    9.2964   -4.0658   24.8462 C   0  0  0  0  0  0  0  0  0  0  0  0
   10.3140   -4.0528   24.4662 H   0  0  0  0  0  0  0  0  0  0  0  0
    8.9569   -4.7814   25.9916 C   0  0  0  0  0  0  0  0  0  0  0  0
    9.7262   -5.3405   26.5133 H   0  0  0  0  0  0  0  0  0  0  0  0
    7.6337   -4.7931   26.4829 C   0  0  0  0  0  0  0  0  0  0  0  0
    7.4090   -5.3654   27.3791 H   0  0  0  0  0  0  0  0  0  0  0  0
    6.6199   -4.0874   25.8343 C   0  0  0  0  0  0  0  0  0  0  0  0
    5.6057   -4.0982   26.2179 H   0  0  0  0  0  0  0  0  0  0  0  0
    6.9582   -3.3742   24.6830 C   0  0  0  0  0  0  0  0  0  0  0  0
    6.2564   -2.6013   23.7953 N   0  0  0  0  0  0  0  0  0  0  0  0
    5.3055   -2.2827   23.7534 H   0  0  0  0  0  0  0  0  0  0  0  0
    8.8514   -0.6751   21.0424 C   0  0  0  0  0  0  0  0  0  0  0  0
    9.2216   -0.4680   22.0516 H   0  0  0  0  0  0  0  0  0  0  0  0
    9.2139    0.1041   20.3720 H   0  0  0  0  0  0  0  0  0  0  0  0
    9.2958   -1.6336   20.7579 H   0  0  0  0  0  0  0  0  0  0  0  0
    5.4046    0.6479   20.1716 C   0  0  0  0  0  0  0  0  0  0  0  0
    4.9523    0.6559   21.1642 H   0  0  0  0  0  0  0  0  0  0  0  0
    4.8067    1.3086   19.1072 C   0  0  0  0  0  0  0  0  0  0  0  0
    3.8783    1.8500   19.2366 H   0  0  0  0  0  0  0  0  0  0  0  0
  1  2  1  0
  2  3  2  0
  3  4  1  0
  4  5  1  0
  4  6  2  0
  6  7  1  0
  7  8  2  3
  8  9  1  0
  9 10  2  0
 10 11  1  0
 11 12  2  0
 12 13  1  0
 12 14  1  0
 14 15  1  0
 14 16  2  0
 16 17  1  0
 16 18  1  0
 18 19  1  0
 18 20  2  0
 20 21  1  0
 21 22  1  0
  7 23  1  0
 23 24  1  0
 23 25  1  0
 23 26  1  0
  6 27  1  0
 27 28  1  0
 27 29  2  0
 29 30  1  0
 29  2  1  0
 21  9  1  0
 20 11  1  0
M  END
>  <cnnaffinity>  (1) 
-5.08747

>  <filename>  (1) 
[H]c1nc([H])c(C(=Nc2nc3c([H])c([H])c([H])c([H])c3n2[H])C([H])([H])[H])c([H])c1[H]

$$$$
