
     RDKit          3D

 32 35  0  0  0  0  0  0  0  0999 V2000
    4.8126    1.3040   19.1109 C   0  0  0  0  0  0  0  0  0  0  0  0
    5.4037    1.2906   17.8430 C   0  0  0  0  0  0  0  0  0  0  0  0
    6.5705    0.6756   17.5875 N   0  0  0  0  0  0  0  0  0  0  0  0
    7.1843    0.0556   18.5973 C   0  0  0  0  0  0  0  0  0  0  0  0
    6.6620    0.0028   19.9003 C   0  0  0  0  0  0  0  0  0  0  0  0
    7.3597   -0.6788   20.9377 N   0  0  0  0  0  0  0  0  0  0  0  0
    7.1923   -0.5543   22.2751 C   0  0  0  0  0  0  0  0  0  0  0  0
    8.1046   -1.4098   22.8351 C   0  0  0  0  0  0  0  0  0  0  0  0
    8.3775   -1.5905   24.2692 C   0  0  0  0  0  0  0  0  0  0  0  0
    8.3381   -0.4617   25.0787 C   0  0  0  0  0  0  0  0  0  0  0  0
    8.6350   -0.5293   26.4534 C   0  0  0  0  0  0  0  0  0  0  0  0
    8.9552   -1.7338   27.0201 C   0  0  0  0  0  0  0  0  0  0  0  0
    8.9757   -2.9271   26.2558 C   0  0  0  0  0  0  0  0  0  0  0  0
    9.2896   -4.1895   26.8201 C   0  0  0  0  0  0  0  0  0  0  0  0
    9.2560   -5.3122   26.0324 C   0  0  0  0  0  0  0  0  0  0  0  0
    8.9247   -5.3094   24.7134 N   0  0  0  0  0  0  0  0  0  0  0  0
    8.6356   -4.1395   24.1730 C   0  0  0  0  0  0  0  0  0  0  0  0
    8.6607   -2.8781   24.8628 C   0  0  0  0  0  0  0  0  0  0  0  0
    8.3649   -4.1203   23.1211 H   0  0  0  0  0  0  0  0  0  0  0  0
    9.4891   -6.2854   26.4484 H   0  0  0  0  0  0  0  0  0  0  0  0
    9.5448   -4.2668   27.8738 H   0  0  0  0  0  0  0  0  0  0  0  0
    9.1903   -1.7433   28.0690 H   0  0  0  0  0  0  0  0  0  0  0  0
    8.6221    0.3638   27.0732 H   0  0  0  0  0  0  0  0  0  0  0  0
    8.1007    0.5127   24.6603 H   0  0  0  0  0  0  0  0  0  0  0  0
    8.7820   -2.0152   21.8080 N   0  0  0  0  0  0  0  0  0  0  0  0
    8.3436   -1.5643   20.6836 N   0  0  0  0  0  0  0  0  0  0  0  0
    6.4763    0.1047   22.7397 H   0  0  0  0  0  0  0  0  0  0  0  0
    5.4465    0.6447   20.1654 C   0  0  0  0  0  0  0  0  0  0  0  0
    4.9945    0.6295   21.1599 H   0  0  0  0  0  0  0  0  0  0  0  0
    8.1296   -0.4327   18.3757 H   0  0  0  0  0  0  0  0  0  0  0  0
    4.9164    1.7785   16.9994 H   0  0  0  0  0  0  0  0  0  0  0  0
    3.8800    1.8380   19.2671 H   0  0  0  0  0  0  0  0  0  0  0  0
  1  2  2  0
  2  3  1  0
  3  4  2  0
  4  5  1  0
  5  6  1  0
  6  7  1  0
  7  8  2  0
  8  9  1  0
  9 10  2  0
 10 11  1  0
 11 12  2  0
 12 13  1  0
 13 14  2  0
 14 15  1  0
 15 16  2  0
 16 17  1  0
 17 18  2  0
 17 19  1  0
 15 20  1  0
 14 21  1  0
 12 22  1  0
 11 23  1  0
 10 24  1  0
  8 25  1  0
 25 26  2  0
  7 27  1  0
  5 28  2  0
 28 29  1  0
  4 30  1  0
  2 31  1  0
  1 32  1  0
 28  1  1  0
 26  6  1  0
 18  9  1  0
 18 13  1  0
M  END
>  <cnnaffinity>  (1) 
-5.53422

>  <filename>  (1) 
[H]c1nc([H])c(-n2nnc(-c3c([H])c([H])c([H])c4c([H])c([H])nc([H])c34)c2[H])c([H])c1[H]

$$$$
