
     RDKit          3D

 42 44  0  0  0  0  0  0  0  0999 V2000
    6.6499   -1.5121   22.2199 O   0  0  0  0  0  0  0  0  0  0  0  0
    7.5308   -0.8588   21.2459 S   0  0  0  0  0  0  0  0  0  0  0  0
    8.4015   -1.8119   20.5500 O   0  0  0  0  0  0  0  0  0  0  0  0
    6.6193    0.0628   20.0281 C   0  0  0  0  0  0  0  0  0  0  0  0
    5.4033    0.7147   20.2404 C   0  0  0  0  0  0  0  0  0  0  0  0
    4.8368    1.3168   19.1256 C   0  0  0  0  0  0  0  0  0  0  0  0
    5.4976    1.2701   17.8986 C   0  0  0  0  0  0  0  0  0  0  0  0
    6.6735    0.6321   17.7373 N   0  0  0  0  0  0  0  0  0  0  0  0
    7.2217    0.0311   18.7908 C   0  0  0  0  0  0  0  0  0  0  0  0
    8.1624   -0.4939   18.6358 H   0  0  0  0  0  0  0  0  0  0  0  0
    5.0281    1.7434   17.0400 H   0  0  0  0  0  0  0  0  0  0  0  0
    3.8881    1.8381   19.1992 H   0  0  0  0  0  0  0  0  0  0  0  0
    4.9029    0.7744   21.2090 H   0  0  0  0  0  0  0  0  0  0  0  0
    8.5661    0.2997   21.9965 N   0  0  0  0  0  0  0  0  0  0  0  0
    8.9673    1.4513   21.1890 C   0  0  0  0  0  0  0  0  0  0  0  0
   10.2867    1.9627   21.7003 C   0  0  0  0  0  0  0  0  0  0  0  0
   11.4449    1.1735   21.5999 C   0  0  0  0  0  0  0  0  0  0  0  0
   12.6684    1.6633   22.0598 C   0  0  0  0  0  0  0  0  0  0  0  0
   12.7610    2.9756   22.5307 C   0  0  0  0  0  0  0  0  0  0  0  0
   11.6056    3.7533   22.6573 C   0  0  0  0  0  0  0  0  0  0  0  0
   10.3603    3.2263   22.3036 C   0  0  0  0  0  0  0  0  0  0  0  0
    8.7626    4.2359   22.6261 Br  0  0  0  0  0  0  0  0  0  0  0  0
   11.6632    4.7712   23.0280 H   0  0  0  0  0  0  0  0  0  0  0  0
   13.7296    3.3901   22.7901 H   0  0  0  0  0  0  0  0  0  0  0  0
   13.5585    1.0428   22.0111 H   0  0  0  0  0  0  0  0  0  0  0  0
   11.3906    0.1737   21.1762 H   0  0  0  0  0  0  0  0  0  0  0  0
    9.0710    1.1665   20.1391 H   0  0  0  0  0  0  0  0  0  0  0  0
    8.2087    2.2417   21.2366 H   0  0  0  0  0  0  0  0  0  0  0  0
    8.4211    0.4788   23.4415 C   0  0  0  0  0  0  0  0  0  0  0  0
    8.4284   -0.8370   24.2224 C   0  0  0  0  0  0  0  0  0  0  0  0
    7.1903   -0.8302   25.1226 C   0  0  0  0  0  0  0  0  0  0  0  0
    6.6587    0.5945   25.0849 C   0  0  0  0  0  0  0  0  0  0  0  0
    7.0871    1.1304   23.7297 C   0  0  0  0  0  0  0  0  0  0  0  0
    6.3559    0.8334   22.9751 H   0  0  0  0  0  0  0  0  0  0  0  0
    7.1752    2.2176   23.7111 H   0  0  0  0  0  0  0  0  0  0  0  0
    7.1131    1.1838   25.8833 H   0  0  0  0  0  0  0  0  0  0  0  0
    5.5740    0.6301   25.2085 H   0  0  0  0  0  0  0  0  0  0  0  0
    7.4285   -1.1410   26.1433 H   0  0  0  0  0  0  0  0  0  0  0  0
    6.4344   -1.5173   24.7322 H   0  0  0  0  0  0  0  0  0  0  0  0
    9.3368   -0.8949   24.8270 H   0  0  0  0  0  0  0  0  0  0  0  0
    8.4143   -1.7063   23.5601 H   0  0  0  0  0  0  0  0  0  0  0  0
    9.2423    1.1059   23.8181 H   0  0  0  0  0  0  0  0  0  0  0  0
  1  2  2  0
  2  3  2  0
  2  4  1  0
  4  5  2  0
  5  6  1  0
  6  7  2  0
  7  8  1  0
  8  9  2  0
  9 10  1  0
  7 11  1  0
  6 12  1  0
  5 13  1  0
  2 14  1  0
 14 15  1  0
 15 16  1  0
 16 17  2  0
 17 18  1  0
 18 19  2  0
 19 20  1  0
 20 21  2  0
 21 22  1  0
 20 23  1  0
 19 24  1  0
 18 25  1  0
 17 26  1  0
 15 27  1  0
 15 28  1  0
 14 29  1  0
 29 30  1  0
 30 31  1  0
 31 32  1  0
 32 33  1  0
 33 34  1  0
 33 35  1  0
 32 36  1  0
 32 37  1  0
 31 38  1  0
 31 39  1  0
 30 40  1  0
 30 41  1  0
 29 42  1  0
  9  4  1  0
 21 16  1  0
 33 29  1  0
M  END
>  <cnnaffinity>  (1) 
-5.7916

>  <filename>  (1) 
[H]c1nc([H])c(S(=O)(=O)N(C([H])([H])c2c([H])c([H])c([H])c([H])c2Br)C2([H])C([H])([H])C([H])([H])C([H])([H])C2([H])[H])c([H])c1[H]

$$$$
