
     RDKit          3D

 40 44  0  0  0  0  0  0  0  0999 V2000
    4.9525    1.8711   16.9019 H   0  0  0  0  0  0  0  0  0  0  0  0
    5.4055    1.3395   17.7352 C   0  0  0  0  0  0  0  0  0  0  0  0
    6.5578    0.7060   17.4739 N   0  0  0  0  0  0  0  0  0  0  0  0
    7.1477    0.0637   18.4914 C   0  0  0  0  0  0  0  0  0  0  0  0
    8.0796   -0.4437   18.2409 H   0  0  0  0  0  0  0  0  0  0  0  0
    6.6498    0.0066   19.8072 C   0  0  0  0  0  0  0  0  0  0  0  0
    7.3730   -0.7741   20.8949 C   0  0  1  0  0  0  0  0  0  0  0  0
    6.9977   -1.8082   20.8530 H   0  0  0  0  0  0  0  0  0  0  0  0
    8.9344   -0.8706   20.7720 C   0  0  0  0  0  0  0  0  0  0  0  0
    9.2758   -1.6160   20.0478 H   0  0  0  0  0  0  0  0  0  0  0  0
    9.3368    0.1084   20.4853 H   0  0  0  0  0  0  0  0  0  0  0  0
    9.3209   -1.2012   22.1871 C   0  0  0  0  0  0  0  0  0  0  0  0
   10.3240   -1.8174   22.7839 N   0  0  0  0  0  0  0  0  0  0  0  0
    9.9213   -1.8761   24.0787 N   0  0  0  0  0  0  0  0  0  0  0  0
   10.4075   -2.4816   24.7293 H   0  0  0  0  0  0  0  0  0  0  0  0
    8.6817   -1.3436   24.2994 C   0  0  0  0  0  0  0  0  0  0  0  0
    7.8993   -1.3985   25.5438 C   0  0  0  0  0  0  0  0  0  0  0  0
    7.1914   -0.2827   25.9727 C   0  0  0  0  0  0  0  0  0  0  0  0
    7.3308    0.6716   25.4668 H   0  0  0  0  0  0  0  0  0  0  0  0
    6.2801   -0.3565   27.0545 C   0  0  0  0  0  0  0  0  0  0  0  0
    5.7697    0.5447   27.3899 H   0  0  0  0  0  0  0  0  0  0  0  0
    5.9999   -1.5674   27.6519 C   0  0  0  0  0  0  0  0  0  0  0  0
    5.2612   -1.6498   28.4491 H   0  0  0  0  0  0  0  0  0  0  0  0
    6.7002   -2.7380   27.2380 C   0  0  0  0  0  0  0  0  0  0  0  0
    6.4321   -4.0380   27.7657 C   0  0  0  0  0  0  0  0  0  0  0  0
    5.5980   -4.1704   28.4554 H   0  0  0  0  0  0  0  0  0  0  0  0
    7.2517   -5.0828   27.4327 C   0  0  0  0  0  0  0  0  0  0  0  0
    7.0886   -6.0844   27.8175 H   0  0  0  0  0  0  0  0  0  0  0  0
    8.3686   -4.8349   26.5863 C   0  0  0  0  0  0  0  0  0  0  0  0
    9.0660   -5.6384   26.3651 H   0  0  0  0  0  0  0  0  0  0  0  0
    8.6205   -3.6748   26.0299 N   0  0  0  0  0  0  0  0  0  0  0  0
    7.7603   -2.6336   26.2738 C   0  0  0  0  0  0  0  0  0  0  0  0
    8.3014   -0.8508   23.0735 C   0  0  0  0  0  0  0  0  0  0  0  0
    7.1329   -0.2739   22.3532 C   0  0  0  0  0  0  0  0  0  0  0  0
    6.1647   -0.5833   22.7635 H   0  0  0  0  0  0  0  0  0  0  0  0
    7.1742    0.8241   22.3665 H   0  0  0  0  0  0  0  0  0  0  0  0
    5.4206    0.6532   20.0389 C   0  0  0  0  0  0  0  0  0  0  0  0
    4.9564    0.6327   21.0278 H   0  0  0  0  0  0  0  0  0  0  0  0
    4.7943    1.3330   18.9921 C   0  0  0  0  0  0  0  0  0  0  0  0
    3.8589    1.8660   19.1406 H   0  0  0  0  0  0  0  0  0  0  0  0
  1  2  1  0
  2  3  2  0
  3  4  1  0
  4  5  1  0
  4  6  2  0
  6  7  1  0
  7  8  1  1
  7  9  1  0
  9 10  1  0
  9 11  1  0
  9 12  1  0
 12 13  2  0
 13 14  1  0
 14 15  1  0
 14 16  1  0
 16 17  1  0
 17 18  2  0
 18 19  1  0
 18 20  1  0
 20 21  1  0
 20 22  2  0
 22 23  1  0
 22 24  1  0
 24 25  2  0
 25 26  1  0
 25 27  1  0
 27 28  1  0
 27 29  2  0
 29 30  1  0
 29 31  1  0
 31 32  2  0
 16 33  2  0
 33 34  1  0
 34 35  1  0
 34 36  1  0
  6 37  1  0
 37 38  1  0
 37 39  2  0
 39 40  1  0
 39  2  1  0
 34  7  1  0
 33 12  1  0
 32 17  1  0
 32 24  1  0
M  END
>  <cnnaffinity>  (1) 
-5.65824

>  <filename>  (1) 
[H]c1nc([H])c([C@@]2([H])C([H])([H])c3nn([H])c(-c4c([H])c([H])c([H])c5c([H])c([H])c([H])nc45)c3C2([H])[H])c([H])c1[H]

$$$$
