
     RDKit          3D

 42 44  0  0  0  0  0  0  0  0999 V2000
    9.7322    0.8744   26.2818 F   0  0  0  0  0  0  0  0  0  0  0  0
    8.6270    1.6205   26.2484 C   0  0  0  0  0  0  0  0  0  0  0  0
    8.8929    2.8001   26.8432 F   0  0  0  0  0  0  0  0  0  0  0  0
    7.7076    0.9980   27.0147 F   0  0  0  0  0  0  0  0  0  0  0  0
    8.0869    1.9217   24.8474 C   0  0  0  0  0  0  0  0  0  0  0  0
    6.9512    2.7339   24.7430 C   0  0  0  0  0  0  0  0  0  0  0  0
    6.4688    3.0527   23.4736 C   0  0  0  0  0  0  0  0  0  0  0  0
    7.1349    2.5411   22.3588 C   0  0  0  0  0  0  0  0  0  0  0  0
    8.2612    1.7240   22.5585 C   0  0  0  0  0  0  0  0  0  0  0  0
    9.0209    1.1247   21.3827 C   0  0  0  0  0  0  0  0  0  0  0  0
    8.8082   -0.3867   21.1138 N   0  0  0  0  0  4  0  0  0  0  0  0
    9.4603   -1.2178   22.2295 C   0  0  0  0  0  0  0  0  0  0  0  0
    9.3193   -2.7164   21.9614 C   0  0  0  0  0  0  0  0  0  0  0  0
    7.8399   -3.1307   21.8525 N   0  0  0  0  0  4  0  0  0  0  0  0
    7.1377   -2.2428   20.7980 C   0  0  0  0  0  0  0  0  0  0  0  0
    7.2955   -0.7355   21.0333 C   0  0  0  0  0  0  0  0  0  0  0  0
    6.6388    0.0241   19.9170 C   0  0  0  0  0  0  0  0  0  0  0  0
    5.4156    0.6596   20.1409 C   0  0  0  0  0  0  0  0  0  0  0  0
    4.7886    1.3180   19.0837 C   0  0  0  0  0  0  0  0  0  0  0  0
    5.4017    1.3018   17.8282 C   0  0  0  0  0  0  0  0  0  0  0  0
    6.5723    0.6907   17.5933 N   0  0  0  0  0  0  0  0  0  0  0  0
    7.1746    0.0801   18.6203 C   0  0  0  0  0  0  0  0  0  0  0  0
    8.1307   -0.3912   18.3757 H   0  0  0  0  0  0  0  0  0  0  0  0
    4.9382    1.7992   16.9773 H   0  0  0  0  0  0  0  0  0  0  0  0
    3.8580    1.8574   19.2200 H   0  0  0  0  0  0  0  0  0  0  0  0
    4.9838    0.6670   21.1451 H   0  0  0  0  0  0  0  0  0  0  0  0
    6.8722   -0.4379   22.0005 H   0  0  0  0  0  0  0  0  0  0  0  0
    7.6138   -2.3555   19.8302 H   0  0  0  0  0  0  0  0  0  0  0  0
    6.0850   -2.4865   20.6893 H   0  0  0  0  0  0  0  0  0  0  0  0
    7.3769   -2.9722   22.7884 H   0  0  0  0  0  0  0  0  0  0  0  0
    7.7334   -4.1385   21.6263 H   0  0  0  0  0  0  0  0  0  0  0  0
    9.8199   -2.9047   21.0078 H   0  0  0  0  0  0  0  0  0  0  0  0
    9.8311   -3.2916   22.7326 H   0  0  0  0  0  0  0  0  0  0  0  0
   10.5147   -0.9499   22.3386 H   0  0  0  0  0  0  0  0  0  0  0  0
    8.9683   -0.9408   23.1690 H   0  0  0  0  0  0  0  0  0  0  0  0
    9.2240   -0.6467   20.1854 H   0  0  0  0  0  0  0  0  0  0  0  0
    8.7391    1.6881   20.4940 H   0  0  0  0  0  0  0  0  0  0  0  0
   10.0790    1.2957   21.5978 H   0  0  0  0  0  0  0  0  0  0  0  0
    8.7415    1.4561   23.7767 N   0  0  0  0  0  0  0  0  0  0  0  0
    6.8033    2.7330   21.3454 H   0  0  0  0  0  0  0  0  0  0  0  0
    5.5859    3.6843   23.3657 H   0  0  0  0  0  0  0  0  0  0  0  0
    6.4964    3.1239   25.6438 H   0  0  0  0  0  0  0  0  0  0  0  0
  1  2  1  0
  2  3  1  0
  2  4  1  0
  2  5  1  0
  5  6  2  0
  6  7  1  0
  7  8  2  0
  8  9  1  0
  9 10  1  0
 10 11  1  0
 11 12  1  0
 12 13  1  0
 13 14  1  0
 14 15  1  0
 15 16  1  0
 16 17  1  0
 17 18  2  0
 18 19  1  0
 19 20  2  0
 20 21  1  0
 21 22  2  0
 22 23  1  0
 20 24  1  0
 19 25  1  0
 18 26  1  0
 16 27  1  0
 15 28  1  0
 15 29  1  0
 14 30  1  0
 14 31  1  0
 13 32  1  0
 13 33  1  0
 12 34  1  0
 12 35  1  0
 11 36  1  0
 10 37  1  0
 10 38  1  0
  9 39  2  0
  8 40  1  0
  7 41  1  0
  6 42  1  0
 39  5  1  0
 16 11  1  0
 22 17  1  0
M  CHG  2  11   1  14   1
M  END
>  <cnnaffinity>  (1) 
-5.28721

>  <filename>  (1) 
[H]c1nc([H])c(C2([H])C([H])([H])[N+]([H])([H])C([H])([H])C([H])([H])[N+]2([H])C([H])([H])c2nc(C(F)(F)F)c([H])c([H])c2[H])c([H])c1[H]

$$$$
