
     RDKit          3D

 36 38  0  0  0  0  0  0  0  0999 V2000
    7.2050    0.9391   22.4229 H   0  0  0  0  0  0  0  0  0  0  0  0
    7.4890   -0.0837   22.2225 C   0  0  0  0  0  0  0  0  0  0  0  0
    7.3062   -0.6388   21.0136 C   0  0  0  0  0  0  0  0  0  0  0  0
    6.6185    0.0093   19.8882 C   0  0  0  0  0  0  0  0  0  0  0  0
    7.1594   -0.0017   18.5928 C   0  0  0  0  0  0  0  0  0  0  0  0
    8.0944   -0.5229   18.3855 H   0  0  0  0  0  0  0  0  0  0  0  0
    6.6011    0.6190   17.5484 N   0  0  0  0  0  0  0  0  0  0  0  0
    5.4430    1.2675   17.7553 C   0  0  0  0  0  0  0  0  0  0  0  0
    5.0123    1.7746   16.8934 H   0  0  0  0  0  0  0  0  0  0  0  0
    4.8069    1.3182   18.9994 C   0  0  0  0  0  0  0  0  0  0  0  0
    3.8730    1.8562   19.1079 H   0  0  0  0  0  0  0  0  0  0  0  0
    5.4080    0.6908   20.0874 C   0  0  0  0  0  0  0  0  0  0  0  0
    4.9611    0.6962   21.0830 H   0  0  0  0  0  0  0  0  0  0  0  0
    7.7448   -1.9437   20.7948 N   0  0  0  0  0  0  0  0  0  0  0  0
    7.4565   -2.4372   19.9687 H   0  0  0  0  0  0  0  0  0  0  0  0
    8.0906   -2.7898   21.8026 C   0  0  0  0  0  0  0  0  0  0  0  0
    8.1353   -4.4349   21.5748 S   0  0  0  0  0  0  0  0  0  0  0  0
    8.3886   -2.2038   22.9749 N   0  0  0  0  0  0  0  0  0  0  0  0
    8.7132   -2.8650   23.6545 H   0  0  0  0  0  0  0  0  0  0  0  0
    8.2468   -0.7816   23.3065 C   0  0  1  0  0  0  0  0  0  0  0  0
    7.6906   -0.6863   24.2623 H   0  0  0  0  0  0  0  0  0  0  0  0
    9.6378   -0.1463   23.5207 C   0  0  0  0  0  0  0  0  0  0  0  0
   10.4426   -0.6499   22.9888 H   0  0  0  0  0  0  0  0  0  0  0  0
    9.8583    1.0443   24.0927 C   0  0  0  0  0  0  0  0  0  0  0  0
    9.0562    1.5405   24.6466 H   0  0  0  0  0  0  0  0  0  0  0  0
   11.1064    1.8523   23.9474 C   0  0  0  0  0  0  0  0  0  0  0  0
   11.0516    3.2519   24.0916 C   0  0  0  0  0  0  0  0  0  0  0  0
   10.1247    3.7287   24.4038 H   0  0  0  0  0  0  0  0  0  0  0  0
   12.1663    4.0484   23.8059 C   0  0  0  0  0  0  0  0  0  0  0  0
   12.1038    5.1311   23.8664 H   0  0  0  0  0  0  0  0  0  0  0  0
   13.3619    3.4527   23.3844 C   0  0  0  0  0  0  0  0  0  0  0  0
   14.2165    4.0689   23.1234 H   0  0  0  0  0  0  0  0  0  0  0  0
   13.4543    2.0590   23.3207 C   0  0  0  0  0  0  0  0  0  0  0  0
   14.3818    1.5912   23.0011 H   0  0  0  0  0  0  0  0  0  0  0  0
   12.3412    1.2647   23.6124 C   0  0  0  0  0  0  0  0  0  0  0  0
   12.4371    0.1825   23.5902 H   0  0  0  0  0  0  0  0  0  0  0  0
  1  2  1  0
  2  3  2  0
  3  4  1  0
  4  5  2  0
  5  6  1  0
  5  7  1  0
  7  8  2  0
  8  9  1  0
  8 10  1  0
 10 11  1  0
 10 12  2  0
 12 13  1  0
  3 14  1  0
 14 15  1  0
 14 16  1  0
 16 17  2  0
 16 18  1  0
 18 19  1  0
 18 20  1  0
 20 21  1  1
 20 22  1  0
 22 23  1  0
 22 24  2  3
 24 25  1  0
 24 26  1  0
 26 27  2  0
 27 28  1  0
 27 29  1  0
 29 30  1  0
 29 31  2  0
 31 32  1  0
 31 33  1  0
 33 34  1  0
 33 35  2  0
 35 36  1  0
 20  2  1  0
 35 26  1  0
 12  4  1  0
M  END
>  <cnnaffinity>  (1) 
-5.27654

>  <filename>  (1) 
[H]C(=C([H])[C@@]1([H])C([H])=C(c2c([H])nc([H])c([H])c2[H])N([H])C(=S)N1[H])c1c([H])c([H])c([H])c([H])c1[H]

$$$$
