
     RDKit          3D

 40 42  0  0  0  0  0  0  0  0999 V2000
    4.9751    1.8000   16.9529 H   0  0  0  0  0  0  0  0  0  0  0  0
    5.4355    1.2914   17.8007 C   0  0  0  0  0  0  0  0  0  0  0  0
    6.5899    0.6480   17.5801 N   0  0  0  0  0  0  0  0  0  0  0  0
    7.1745    0.0267   18.6211 C   0  0  0  0  0  0  0  0  0  0  0  0
    8.0972   -0.4985   18.3806 H   0  0  0  0  0  0  0  0  0  0  0  0
    6.6572    0.0162   19.9438 C   0  0  0  0  0  0  0  0  0  0  0  0
    7.2590   -0.6167   21.0855 N   0  0  0  0  0  0  0  0  0  0  0  0
    6.7694   -1.9824   21.2964 C   0  0  0  0  0  0  0  0  0  0  0  0
    5.6738   -1.9724   21.3136 H   0  0  0  0  0  0  0  0  0  0  0  0
    7.0791   -2.6587   20.4837 H   0  0  0  0  0  0  0  0  0  0  0  0
    7.2755   -2.5573   22.6160 C   0  0  0  0  0  0  0  0  0  0  0  0
    6.9604   -3.5997   22.7201 H   0  0  0  0  0  0  0  0  0  0  0  0
    6.8641   -1.9769   23.4600 H   0  0  0  0  0  0  0  0  0  0  0  0
    8.6932   -2.5623   22.6584 O   0  0  0  0  0  0  0  0  0  0  0  0
    9.1865   -1.2388   22.5662 C   0  0  0  0  0  0  0  0  0  0  0  0
   10.2785   -1.3159   22.5502 H   0  0  0  0  0  0  0  0  0  0  0  0
    8.9038   -0.6644   23.4651 H   0  0  0  0  0  0  0  0  0  0  0  0
    8.7174   -0.4656   21.3058 C   0  0  2  0  0  0  0  0  0  0  0  0
    9.2715   -0.9040   20.4566 H   0  0  0  0  0  0  0  0  0  0  0  0
    9.1299    1.0189   21.4338 C   0  0  0  0  0  0  0  0  0  0  0  0
    9.0073    1.4757   20.4420 H   0  0  0  0  0  0  0  0  0  0  0  0
    8.2620    1.8465   22.4087 C   0  0  0  0  0  0  0  0  0  0  0  0
    7.1989    1.7480   22.1548 H   0  0  0  0  0  0  0  0  0  0  0  0
    8.3826    1.4571   23.4323 H   0  0  0  0  0  0  0  0  0  0  0  0
    8.6818    3.3243   22.3933 C   0  0  0  0  0  0  0  0  0  0  0  0
    8.4103    3.7613   21.4216 H   0  0  0  0  0  0  0  0  0  0  0  0
    8.1187    3.8701   23.1587 H   0  0  0  0  0  0  0  0  0  0  0  0
   10.1886    3.5077   22.6489 C   0  0  0  0  0  0  0  0  0  0  0  0
   10.3976    3.2300   23.6939 H   0  0  0  0  0  0  0  0  0  0  0  0
   10.4822    4.5583   22.5358 H   0  0  0  0  0  0  0  0  0  0  0  0
   11.0546    2.6271   21.7361 C   0  0  0  0  0  0  0  0  0  0  0  0
   12.1089    2.7307   22.0150 H   0  0  0  0  0  0  0  0  0  0  0  0
   10.9838    2.9417   20.6874 H   0  0  0  0  0  0  0  0  0  0  0  0
   10.6133    1.1726   21.8334 C   0  0  0  0  0  0  0  0  0  0  0  0
   11.2592    0.5261   21.2259 H   0  0  0  0  0  0  0  0  0  0  0  0
   10.7469    0.8565   22.8805 H   0  0  0  0  0  0  0  0  0  0  0  0
    5.4172    0.6465   20.1280 C   0  0  0  0  0  0  0  0  0  0  0  0
    4.9681    0.6209   21.1185 H   0  0  0  0  0  0  0  0  0  0  0  0
    4.8080    1.3079   19.0520 C   0  0  0  0  0  0  0  0  0  0  0  0
    3.8702    1.8262   19.1828 H   0  0  0  0  0  0  0  0  0  0  0  0
  1  2  1  0
  2  3  2  0
  3  4  1  0
  4  5  1  0
  4  6  2  0
  6  7  1  0
  7  8  1  0
  8  9  1  0
  8 10  1  0
  8 11  1  0
 11 12  1  0
 11 13  1  0
 11 14  1  0
 14 15  1  0
 15 16  1  0
 15 17  1  0
 15 18  1  0
 18 19  1  6
 18 20  1  0
 20 21  1  0
 20 22  1  0
 22 23  1  0
 22 24  1  0
 22 25  1  0
 25 26  1  0
 25 27  1  0
 25 28  1  0
 28 29  1  0
 28 30  1  0
 28 31  1  0
 31 32  1  0
 31 33  1  0
 31 34  1  0
 34 35  1  0
 34 36  1  0
  6 37  1  0
 37 38  1  0
 37 39  2  0
 39 40  1  0
 39  2  1  0
 18  7  1  0
 34 20  1  0
M  END
>  <cnnaffinity>  (1) 
-5.29386

>  <filename>  (1) 
[H]c1nc([H])c(N2C([H])([H])C([H])([H])OC([H])([H])[C@]2([H])C2([H])C([H])([H])C([H])([H])C([H])([H])C([H])([H])C2([H])[H])c([H])c1[H]

$$$$
