
     RDKit          3D

 38 40  0  0  0  0  0  0  0  0999 V2000
    5.0027    1.8013   16.9717 H   0  0  0  0  0  0  0  0  0  0  0  0
    5.4732    1.2928   17.8101 C   0  0  0  0  0  0  0  0  0  0  0  0
    6.6611    0.7100   17.5575 N   0  0  0  0  0  0  0  0  0  0  0  0
    7.2663    0.0758   18.5646 C   0  0  0  0  0  0  0  0  0  0  0  0
    8.2399   -0.3688   18.3617 H   0  0  0  0  0  0  0  0  0  0  0  0
    6.6927   -0.0567   19.8441 C   0  0  0  0  0  0  0  0  0  0  0  0
    7.3606   -0.8202   20.8300 N   0  0  0  0  0  0  0  0  0  0  0  0
    8.7326   -0.7591   20.8845 N   0  0  0  0  0  0  0  0  0  0  0  0
    9.1161   -1.5260   21.8552 C   0  0  0  0  0  0  0  0  0  0  0  0
   10.5709   -1.7576   22.0848 C   0  0  0  0  0  0  0  0  0  0  0  0
   10.7126   -2.4472   22.9249 H   0  0  0  0  0  0  0  0  0  0  0  0
   10.9690   -2.2594   21.1967 H   0  0  0  0  0  0  0  0  0  0  0  0
   11.3790   -0.4698   22.3459 C   0  0  0  0  0  0  0  0  0  0  0  0
   11.1249    0.2620   21.5644 H   0  0  0  0  0  0  0  0  0  0  0  0
   12.8916   -0.7494   22.2309 C   0  0  0  0  0  0  0  0  0  0  0  0
   13.1328   -1.6787   22.7424 H   0  0  0  0  0  0  0  0  0  0  0  0
   13.1383   -0.9761   21.1843 H   0  0  0  0  0  0  0  0  0  0  0  0
   13.7875    0.3809   22.7678 C   0  0  0  0  0  0  0  0  0  0  0  0
   14.8104    0.0085   22.8778 H   0  0  0  0  0  0  0  0  0  0  0  0
   13.8311    1.1906   22.0380 H   0  0  0  0  0  0  0  0  0  0  0  0
   13.3090    0.9963   24.0924 C   0  0  0  0  0  0  0  0  0  0  0  0
   13.8810    1.9061   24.2882 H   0  0  0  0  0  0  0  0  0  0  0  0
   13.4890    0.3023   24.9262 H   0  0  0  0  0  0  0  0  0  0  0  0
   11.8230    1.3618   24.0491 C   0  0  0  0  0  0  0  0  0  0  0  0
   11.5017    1.7956   25.0030 H   0  0  0  0  0  0  0  0  0  0  0  0
   11.6612    2.1441   23.2911 H   0  0  0  0  0  0  0  0  0  0  0  0
   10.9756    0.1386   23.7021 C   0  0  0  0  0  0  0  0  0  0  0  0
   11.0905   -0.6227   24.4918 H   0  0  0  0  0  0  0  0  0  0  0  0
    9.9119    0.4105   23.6806 H   0  0  0  0  0  0  0  0  0  0  0  0
    7.9623   -2.0740   22.6475 C   0  0  0  0  0  0  0  0  0  0  0  0
    8.0104   -3.1361   22.8949 H   0  0  0  0  0  0  0  0  0  0  0  0
    7.7854   -1.5155   23.5784 H   0  0  0  0  0  0  0  0  0  0  0  0
    6.8145   -1.7431   21.7215 C   0  0  0  0  0  0  0  0  0  0  0  0
    5.6930   -2.1961   21.7315 O   0  0  0  0  0  0  0  0  0  0  0  0
    5.4835    0.5963   20.1201 C   0  0  0  0  0  0  0  0  0  0  0  0
    5.0624    0.5698   21.1262 H   0  0  0  0  0  0  0  0  0  0  0  0
    4.8656    1.2845   19.0709 C   0  0  0  0  0  0  0  0  0  0  0  0
    3.9341    1.8218   19.2210 H   0  0  0  0  0  0  0  0  0  0  0  0
  1  2  1  0
  2  3  2  0
  3  4  1  0
  4  5  1  0
  4  6  2  0
  6  7  1  0
  7  8  1  0
  8  9  2  0
  9 10  1  0
 10 11  1  0
 10 12  1  0
 10 13  1  0
 13 14  1  0
 13 15  1  0
 15 16  1  0
 15 17  1  0
 15 18  1  0
 18 19  1  0
 18 20  1  0
 18 21  1  0
 21 22  1  0
 21 23  1  0
 21 24  1  0
 24 25  1  0
 24 26  1  0
 24 27  1  0
 27 28  1  0
 27 29  1  0
  9 30  1  0
 30 31  1  0
 30 32  1  0
 30 33  1  0
 33 34  2  0
  6 35  1  0
 35 36  1  0
 35 37  2  0
 37 38  1  0
 37  2  1  0
 33  7  1  0
 27 13  1  0
M  END
>  <cnnaffinity>  (1) 
-5.49052

>  <filename>  (1) 
[H]c1nc([H])c(N2N=C(C([H])([H])C3([H])C([H])([H])C([H])([H])C([H])([H])C([H])([H])C3([H])[H])C([H])([H])C2=O)c([H])c1[H]

$$$$
