
     RDKit          3D

 39 41  0  0  0  0  0  0  0  0999 V2000
    6.6156   -2.0050   21.3758 C   0  0  0  0  0  0  0  0  0  0  0  0
    7.3901   -0.7649   20.9419 C   0  0  2  0  0  0  0  0  0  0  0  0
    7.6409    0.1748   22.1170 N   0  0  0  0  0  4  0  0  0  0  0  0
    8.9423    0.0532   22.8188 C   0  0  0  0  0  0  0  0  0  0  0  0
    9.0055   -1.2726   23.5630 C   0  0  0  0  0  0  0  0  0  0  0  0
    9.8297   -2.3021   23.0322 C   0  0  0  0  0  0  0  0  0  0  0  0
    9.9713   -3.4962   23.6847 C   0  0  0  0  0  0  0  0  0  0  0  0
    9.1994   -3.8087   24.8354 C   0  0  0  0  0  0  0  0  0  0  0  0
    9.2810   -5.0945   25.4493 C   0  0  0  0  0  0  0  0  0  0  0  0
    8.5890   -5.3531   26.6058 C   0  0  0  0  0  0  0  0  0  0  0  0
    7.7822   -4.3436   27.1967 C   0  0  0  0  0  0  0  0  0  0  0  0
    7.6622   -3.1028   26.6095 C   0  0  0  0  0  0  0  0  0  0  0  0
    8.3566   -2.7964   25.3917 C   0  0  0  0  0  0  0  0  0  0  0  0
    8.2904   -1.5289   24.7243 C   0  0  0  0  0  0  0  0  0  0  0  0
    7.6777   -0.7504   25.1721 H   0  0  0  0  0  0  0  0  0  0  0  0
    7.0536   -2.3402   27.0836 H   0  0  0  0  0  0  0  0  0  0  0  0
    7.2641   -4.5687   28.1266 H   0  0  0  0  0  0  0  0  0  0  0  0
    8.6721   -6.3280   27.0814 H   0  0  0  0  0  0  0  0  0  0  0  0
    9.9062   -5.8524   24.9834 H   0  0  0  0  0  0  0  0  0  0  0  0
   10.7532   -4.1774   23.4097 H   0  0  0  0  0  0  0  0  0  0  0  0
   10.3347   -2.1313   22.0823 H   0  0  0  0  0  0  0  0  0  0  0  0
    9.0727    0.8959   23.4963 H   0  0  0  0  0  0  0  0  0  0  0  0
    9.7760    0.1079   22.1084 H   0  0  0  0  0  0  0  0  0  0  0  0
    7.4345    1.1153   21.7419 H   0  0  0  0  0  0  0  0  0  0  0  0
    6.9208   -0.0971   22.8265 H   0  0  0  0  0  0  0  0  0  0  0  0
    6.6446    0.0308   19.8934 C   0  0  0  0  0  0  0  0  0  0  0  0
    5.4184    0.6855   20.1237 C   0  0  0  0  0  0  0  0  0  0  0  0
    4.7890    1.3348   19.0622 C   0  0  0  0  0  0  0  0  0  0  0  0
    5.4026    1.3203   17.8064 C   0  0  0  0  0  0  0  0  0  0  0  0
    6.5643    0.6993   17.5606 N   0  0  0  0  0  0  0  0  0  0  0  0
    7.1555    0.0819   18.5912 C   0  0  0  0  0  0  0  0  0  0  0  0
    8.1076   -0.4026   18.3699 H   0  0  0  0  0  0  0  0  0  0  0  0
    4.9328    1.8216   16.9630 H   0  0  0  0  0  0  0  0  0  0  0  0
    3.8545    1.8703   19.2006 H   0  0  0  0  0  0  0  0  0  0  0  0
    4.9502    0.6972   21.1125 H   0  0  0  0  0  0  0  0  0  0  0  0
    8.3700   -1.0734   20.5589 H   0  0  0  0  0  0  0  0  0  0  0  0
    6.4468   -2.6420   20.5043 H   0  0  0  0  0  0  0  0  0  0  0  0
    7.1589   -2.5755   22.1369 H   0  0  0  0  0  0  0  0  0  0  0  0
    5.6421   -1.7117   21.7817 H   0  0  0  0  0  0  0  0  0  0  0  0
  1  2  1  0
  2  3  1  0
  3  4  1  0
  4  5  1  0
  5  6  2  0
  6  7  1  0
  7  8  2  0
  8  9  1  0
  9 10  2  0
 10 11  1  0
 11 12  2  0
 12 13  1  0
 13 14  2  0
 14 15  1  0
 12 16  1  0
 11 17  1  0
 10 18  1  0
  9 19  1  0
  7 20  1  0
  6 21  1  0
  4 22  1  0
  4 23  1  0
  3 24  1  0
  3 25  1  0
  2 26  1  0
 26 27  2  0
 27 28  1  0
 28 29  2  0
 29 30  1  0
 30 31  2  0
 31 32  1  0
 29 33  1  0
 28 34  1  0
 27 35  1  0
  2 36  1  6
  1 37  1  0
  1 38  1  0
  1 39  1  0
 14  5  1  0
 31 26  1  0
 13  8  1  0
M  CHG  1   3   1
M  END
>  <cnnaffinity>  (1) 
-4.6246

>  <filename>  (1) 
[H]c1nc([H])c([C@]([H])(C([H])([H])[H])[N+]([H])([H])C([H])([H])c2c([H])c([H])c3c([H])c([H])c([H])c([H])c3c2[H])c([H])c1[H]

$$$$
