
     RDKit          3D

 44 47  0  0  0  0  0  0  0  0999 V2000
    4.8498    1.8476   17.2064 H   0  0  0  0  0  0  0  0  0  0  0  0
    5.3795    1.3982   18.0437 C   0  0  0  0  0  0  0  0  0  0  0  0
    6.6220    0.9630   17.7891 N   0  0  0  0  0  0  0  0  0  0  0  0
    7.2817    0.3967   18.8065 C   0  0  0  0  0  0  0  0  0  0  0  0
    8.2967    0.0903   18.5574 H   0  0  0  0  0  0  0  0  0  0  0  0
    6.7541    0.1761   20.0967 C   0  0  0  0  0  0  0  0  0  0  0  0
    7.6374   -0.4338   21.1770 C   0  0  2  0  0  0  0  0  0  0  0  0
    8.4745    0.6552   21.6766 N   0  0  0  0  0  0  0  0  0  0  0  0
    9.3960    0.3708   21.9639 H   0  0  0  0  0  0  0  0  0  0  0  0
    8.0237    1.5984   22.5853 C   0  0  0  0  0  0  0  0  0  0  0  0
    6.9224    1.6895   23.0888 O   0  0  0  0  0  0  0  0  0  0  0  0
    9.1028    2.4296   22.7991 N   0  0  0  0  0  0  0  0  0  0  0  0
    9.6916    2.3880   21.9835 H   0  0  0  0  0  0  0  0  0  0  0  0
    9.1583    3.6296   23.5123 C   0  0  0  0  0  0  0  0  0  0  0  0
   10.2021    4.5104   23.1961 C   0  0  0  0  0  0  0  0  0  0  0  0
   10.9149    4.2284   22.4289 H   0  0  0  0  0  0  0  0  0  0  0  0
   10.3289    5.7348   23.8533 C   0  0  0  0  0  0  0  0  0  0  0  0
   11.1144    6.4343   23.5824 H   0  0  0  0  0  0  0  0  0  0  0  0
    9.4102    6.0647   24.8538 C   0  0  0  0  0  0  0  0  0  0  0  0
    9.5461    7.5950   25.6705 Cl  0  0  0  0  0  0  0  0  0  0  0  0
    8.3796    5.1847   25.1978 C   0  0  0  0  0  0  0  0  0  0  0  0
    7.6701    5.4715   25.9689 H   0  0  0  0  0  0  0  0  0  0  0  0
    8.2555    3.9593   24.5307 C   0  0  0  0  0  0  0  0  0  0  0  0
    7.4690    3.2575   24.7736 H   0  0  0  0  0  0  0  0  0  0  0  0
    8.5893   -1.5547   20.6507 C   0  0  0  0  0  0  0  0  0  0  0  0
    9.6235   -1.2057   20.5644 H   0  0  0  0  0  0  0  0  0  0  0  0
    8.2487   -1.7860   19.6486 H   0  0  0  0  0  0  0  0  0  0  0  0
    8.4393   -2.7357   21.6415 C   0  0  2  0  0  0  0  0  0  0  0  0
    9.3142   -3.3845   21.6922 H   0  0  0  0  0  0  0  0  0  0  0  0
    7.1080   -3.4702   21.3809 C   0  0  0  0  0  0  0  0  0  0  0  0
    6.9752   -3.8365   20.3599 H   0  0  0  0  0  0  0  0  0  0  0  0
    7.0256   -4.3465   22.0379 H   0  0  0  0  0  0  0  0  0  0  0  0
    6.0596   -2.3788   21.7557 C   0  0  0  0  0  0  0  0  0  0  0  0
    5.3565   -2.7444   22.5084 H   0  0  0  0  0  0  0  0  0  0  0  0
    5.4613   -2.0540   20.8973 H   0  0  0  0  0  0  0  0  0  0  0  0
    6.9209   -1.2223   22.3258 C   0  0  1  0  0  0  0  0  0  0  0  0
    6.3966   -0.5382   22.9908 H   0  0  0  0  0  0  0  0  0  0  0  0
    8.0956   -1.9997   22.9481 C   0  0  0  0  0  0  0  0  0  0  0  0
    7.8013   -2.6575   23.7747 H   0  0  0  0  0  0  0  0  0  0  0  0
    8.9075   -1.3668   23.3190 H   0  0  0  0  0  0  0  0  0  0  0  0
    5.4586    0.6495   20.3357 C   0  0  0  0  0  0  0  0  0  0  0  0
    5.0027    0.5411   21.3231 H   0  0  0  0  0  0  0  0  0  0  0  0
    4.7609    1.2725   19.2917 C   0  0  0  0  0  0  0  0  0  0  0  0
    3.7612    1.6672   19.4414 H   0  0  0  0  0  0  0  0  0  0  0  0
  1  2  1  0
  2  3  2  0
  3  4  1  0
  4  5  1  0
  4  6  2  0
  6  7  1  0
  7  8  1  1
  8  9  1  0
  8 10  1  0
 10 11  2  0
 10 12  1  0
 12 13  1  0
 12 14  1  0
 14 15  2  0
 15 16  1  0
 15 17  1  0
 17 18  1  0
 17 19  2  0
 19 20  1  0
 19 21  1  0
 21 22  1  0
 21 23  2  0
 23 24  1  0
  7 25  1  0
 25 26  1  0
 25 27  1  0
 25 28  1  0
 28 29  1  1
 28 30  1  0
 30 31  1  0
 30 32  1  0
 30 33  1  0
 33 34  1  0
 33 35  1  0
 33 36  1  0
 36 37  1  1
 36 38  1  0
 38 39  1  0
 38 40  1  0
  6 41  1  0
 41 42  1  0
 41 43  2  0
 43 44  1  0
 43  2  1  0
 36  7  1  0
 23 14  1  0
 38 28  1  0
M  END
>  <cnnaffinity>  (1) 
-5.29953

>  <filename>  (1) 
[H]c1nc([H])c([C@]2(N([H])C(=O)N([H])c3c([H])c([H])c(Cl)c([H])c3[H])C([H])([H])[C@]3([H])C([H])([H])C([H])([H])[C@@]2([H])C3([H])[H])c([H])c1[H]

$$$$
