
     RDKit          3D

 32 35  0  0  0  0  0  0  0  0999 V2000
    4.9282    1.7902   16.9968 H   0  0  0  0  0  0  0  0  0  0  0  0
    5.3986    1.2902   17.8399 C   0  0  0  0  0  0  0  0  0  0  0  0
    6.5559    0.6628   17.5794 N   0  0  0  0  0  0  0  0  0  0  0  0
    7.1730    0.0435   18.5905 C   0  0  0  0  0  0  0  0  0  0  0  0
    8.1245   -0.4306   18.3631 H   0  0  0  0  0  0  0  0  0  0  0  0
    6.6547   -0.0060   19.9004 C   0  0  0  0  0  0  0  0  0  0  0  0
    7.3345   -0.6938   20.9493 N   0  0  0  0  0  0  0  0  0  0  0  0
    6.7361   -1.6100   21.8091 C   0  0  0  0  0  0  0  0  0  0  0  0
    5.6921   -1.8449   21.7111 H   0  0  0  0  0  0  0  0  0  0  0  0
    7.6809   -2.0695   22.6725 C   0  0  0  0  0  0  0  0  0  0  0  0
    7.5680   -3.0169   23.7838 C   0  0  0  0  0  0  0  0  0  0  0  0
    6.2895   -3.2984   24.2975 C   0  0  0  0  0  0  0  0  0  0  0  0
    5.4346   -2.7806   23.8765 H   0  0  0  0  0  0  0  0  0  0  0  0
    6.0789   -4.2151   25.3419 C   0  0  0  0  0  0  0  0  0  0  0  0
    5.0896   -4.4346   25.7336 H   0  0  0  0  0  0  0  0  0  0  0  0
    7.2015   -4.8326   25.8549 C   0  0  0  0  0  0  0  0  0  0  0  0
    8.4817   -4.5609   25.3619 C   0  0  0  0  0  0  0  0  0  0  0  0
    8.7029   -3.6694   24.3360 C   0  0  0  0  0  0  0  0  0  0  0  0
    9.7090   -3.5009   23.9689 H   0  0  0  0  0  0  0  0  0  0  0  0
    9.4033   -5.2963   26.0469 O   0  0  0  0  0  0  0  0  0  0  0  0
    8.6649   -6.0583   26.9988 C   0  0  0  0  0  0  0  0  0  0  0  0
    8.8171   -7.1226   26.7928 H   0  0  0  0  0  0  0  0  0  0  0  0
    8.9947   -5.7918   28.0098 H   0  0  0  0  0  0  0  0  0  0  0  0
    7.2804   -5.7482   26.8611 O   0  0  0  0  0  0  0  0  0  0  0  0
    8.8515   -1.4201   22.3074 N   0  0  0  0  0  0  0  0  0  0  0  0
    9.7544   -1.4197   22.7476 H   0  0  0  0  0  0  0  0  0  0  0  0
    8.6590   -0.5339   21.3038 C   0  0  0  0  0  0  0  0  0  0  0  0
    9.8116    0.5127   20.7469 S   0  0  0  0  0  0  0  0  0  0  0  0
    5.4436    0.6436   20.1620 C   0  0  0  0  0  0  0  0  0  0  0  0
    5.0316    0.6303   21.1732 H   0  0  0  0  0  0  0  0  0  0  0  0
    4.8102    1.3094   19.1082 C   0  0  0  0  0  0  0  0  0  0  0  0
    3.8798    1.8414   19.2597 H   0  0  0  0  0  0  0  0  0  0  0  0
  1  2  1  0
  2  3  2  0
  3  4  1  0
  4  5  1  0
  4  6  2  0
  6  7  1  0
  7  8  1  0
  8  9  1  0
  8 10  2  0
 10 11  1  0
 11 12  2  0
 12 13  1  0
 12 14  1  0
 14 15  1  0
 14 16  2  0
 16 17  1  0
 17 18  2  0
 18 19  1  0
 17 20  1  0
 20 21  1  0
 21 22  1  0
 21 23  1  0
 21 24  1  0
 10 25  1  0
 25 26  1  0
 25 27  1  0
 27 28  2  0
  6 29  1  0
 29 30  1  0
 29 31  2  0
 31 32  1  0
 31  2  1  0
 27  7  1  0
 18 11  1  0
 24 16  1  0
M  END
>  <cnnaffinity>  (1) 
-5.49799

>  <filename>  (1) 
[H]c1nc([H])c(-n2c([H])c(-c3c([H])c([H])c4c(c3[H])OC([H])([H])O4)n([H])c2=S)c([H])c1[H]

$$$$
