
     RDKit          3D

 44 47  0  0  0  0  0  0  0  0999 V2000
   12.4830    0.1016   23.6748 C   0  0  0  0  0  0  0  0  0  0  0  0
   12.5192    0.8805   22.6085 C   0  0  0  0  0  0  0  0  0  0  0  0
   11.5005    1.9283   22.2247 C   0  0  0  0  0  0  0  0  0  0  0  0
   11.8814    2.5260   20.8925 C   0  0  0  0  0  0  0  0  0  0  0  0
   11.0520    3.0502   20.4414 H   0  0  0  0  0  0  0  0  0  0  0  0
   12.0999    1.6953   20.2351 H   0  0  0  0  0  0  0  0  0  0  0  0
   12.7437    3.1855   20.9999 H   0  0  0  0  0  0  0  0  0  0  0  0
   10.1141    1.4356   22.1826 N   0  0  0  0  0  0  0  0  0  0  0  0
    9.6962    0.4869   21.3007 N   0  0  0  0  0  0  0  0  0  0  0  0
    8.4377    0.2950   21.6563 C   0  0  0  0  0  0  0  0  0  0  0  0
    7.5034   -0.6427   20.9404 C   0  0  0  0  0  0  0  0  0  0  0  0
    6.6926   -0.0027   19.8165 C   0  0  0  0  0  0  0  0  0  0  0  0
    5.4742    0.6386   20.0825 C   0  0  0  0  0  0  0  0  0  0  0  0
    4.8198    1.3100   19.0463 C   0  0  0  0  0  0  0  0  0  0  0  0
    5.3990    1.3038   17.7739 C   0  0  0  0  0  0  0  0  0  0  0  0
    6.5387    0.6580   17.4846 N   0  0  0  0  0  0  0  0  0  0  0  0
    7.1511    0.0190   18.4887 C   0  0  0  0  0  0  0  0  0  0  0  0
    8.0689   -0.5097   18.2310 H   0  0  0  0  0  0  0  0  0  0  0  0
    4.9279    1.8302   16.9452 H   0  0  0  0  0  0  0  0  0  0  0  0
    3.8867    1.8388   19.2098 H   0  0  0  0  0  0  0  0  0  0  0  0
    5.0461    0.6110   21.0879 H   0  0  0  0  0  0  0  0  0  0  0  0
    6.8150   -1.0061   21.7080 H   0  0  0  0  0  0  0  0  0  0  0  0
    8.0721   -1.5011   20.5655 H   0  0  0  0  0  0  0  0  0  0  0  0
    8.0161    1.0537   22.7008 N   0  0  0  0  0  0  0  0  0  0  0  0
    9.0777    1.7839   22.9841 C   0  0  0  0  0  0  0  0  0  0  0  0
    9.1660    2.8788   23.9755 C   0  0  0  0  0  0  0  0  0  0  0  0
    9.5909    4.1770   23.6698 C   0  0  0  0  0  0  0  0  0  0  0  0
    9.6562    5.1797   24.6725 C   0  0  0  0  0  0  0  0  0  0  0  0
   10.0799    6.4598   24.3592 N   0  0  0  0  0  0  0  0  0  0  0  0
   10.1125    7.2942   25.3791 C   0  0  0  0  0  0  0  0  0  0  0  0
    9.7583    6.9239   26.7287 C   0  0  0  0  0  0  0  0  0  0  0  0
    9.3464    5.7173   27.0625 N   0  0  0  0  0  0  0  0  0  0  0  0
    9.2760    4.8207   26.0207 C   0  0  0  0  0  0  0  0  0  0  0  0
    8.8159    3.5146   26.3091 C   0  0  0  0  0  0  0  0  0  0  0  0
    8.7747    2.5831   25.3074 C   0  0  0  0  0  0  0  0  0  0  0  0
    8.3802    1.3450   25.6241 F   0  0  0  0  0  0  0  0  0  0  0  0
    8.4878    3.2676   27.3094 H   0  0  0  0  0  0  0  0  0  0  0  0
    9.8382    7.6656   27.5208 H   0  0  0  0  0  0  0  0  0  0  0  0
   10.4253    8.3206   25.2056 H   0  0  0  0  0  0  0  0  0  0  0  0
    9.8776    4.4772   22.6627 H   0  0  0  0  0  0  0  0  0  0  0  0
   11.5170    2.6915   23.0060 H   0  0  0  0  0  0  0  0  0  0  0  0
   13.3986    0.7976   21.9707 H   0  0  0  0  0  0  0  0  0  0  0  0
   13.3604   -0.4840   23.8828 H   0  0  0  0  0  0  0  0  0  0  0  0
   11.6384    0.0228   24.3526 H   0  0  0  0  0  0  0  0  0  0  0  0
  1  2  2  3
  2  3  1  0
  3  4  1  0
  4  5  1  0
  4  6  1  0
  4  7  1  0
  3  8  1  0
  8  9  1  0
  9 10  2  0
 10 11  1  0
 11 12  1  0
 12 13  2  0
 13 14  1  0
 14 15  2  0
 15 16  1  0
 16 17  2  0
 17 18  1  0
 15 19  1  0
 14 20  1  0
 13 21  1  0
 11 22  1  0
 11 23  1  0
 10 24  1  0
 24 25  2  0
 25 26  1  0
 26 27  2  0
 27 28  1  0
 28 29  2  0
 29 30  1  0
 30 31  2  0
 31 32  1  0
 32 33  2  0
 33 34  1  0
 34 35  2  0
 35 36  1  0
 34 37  1  0
 31 38  1  0
 30 39  1  0
 27 40  1  0
  3 41  1  0
  2 42  1  0
  1 43  1  0
  1 44  1  0
 25  8  1  0
 35 26  1  0
 17 12  1  0
 33 28  1  0
M  END
>  <cnnaffinity>  (1) 
-5.86594

>  <filename>  (1) 
[H]C([H])=C([H])C([H])(n1nc(C([H])([H])c2c([H])nc([H])c([H])c2[H])nc1-c1c(F)c([H])c2nc([H])c([H])nc2c1[H])C([H])([H])[H]

$$$$
