
     RDKit          3D

 34 36  0  0  0  0  0  0  0  0999 V2000
    6.8855    4.4279   21.9185 O   0  0  0  0  0  0  0  0  0  0  0  0
    7.1949    3.5300   22.6796 C   0  0  0  0  0  0  0  0  0  0  0  0
    7.4594    2.1759   22.1278 C   0  0  0  0  0  0  0  0  0  0  0  0
    7.3025    1.0223   22.8048 C   0  0  0  0  0  0  0  0  0  0  0  0
    7.5595   -0.3048   22.2503 C   0  0  0  0  0  0  0  0  0  0  0  0
    8.1434   -1.3749   22.8906 C   0  0  0  0  0  0  0  0  0  0  0  0
    8.2848   -2.3527   21.8925 C   0  0  0  0  0  0  0  0  0  0  0  0
    7.8212   -1.9432   20.7210 N   0  0  0  0  0  0  0  0  0  0  0  0
    7.3597   -0.6970   20.9440 N   0  0  0  0  0  0  0  0  0  0  0  0
    6.6506   -0.0096   19.9152 C   0  0  0  0  0  0  0  0  0  0  0  0
    5.4274    0.6276   20.1654 C   0  0  0  0  0  0  0  0  0  0  0  0
    4.8105    1.2971   19.1054 C   0  0  0  0  0  0  0  0  0  0  0  0
    5.4121    1.2901   17.8419 C   0  0  0  0  0  0  0  0  0  0  0  0
    6.5773    0.6683   17.5960 N   0  0  0  0  0  0  0  0  0  0  0  0
    7.1757    0.0381   18.6107 C   0  0  0  0  0  0  0  0  0  0  0  0
    8.1227   -0.4416   18.3800 H   0  0  0  0  0  0  0  0  0  0  0  0
    4.9315    1.7829   16.9955 H   0  0  0  0  0  0  0  0  0  0  0  0
    3.8804    1.8369   19.2564 H   0  0  0  0  0  0  0  0  0  0  0  0
    4.9975    0.6273   21.1693 H   0  0  0  0  0  0  0  0  0  0  0  0
    8.7045   -3.3457   21.9802 H   0  0  0  0  0  0  0  0  0  0  0  0
    8.4626   -1.3969   23.9220 H   0  0  0  0  0  0  0  0  0  0  0  0
    7.0076    0.9879   23.8543 H   0  0  0  0  0  0  0  0  0  0  0  0
    7.7411    2.1864   21.0800 H   0  0  0  0  0  0  0  0  0  0  0  0
    7.2956    3.7505   24.1766 C   0  0  0  0  0  0  0  0  0  0  0  0
    8.2986    3.1439   24.9620 C   0  0  0  0  0  0  0  0  0  0  0  0
    8.3857    3.4311   26.3248 C   0  0  0  0  0  0  0  0  0  0  0  0
    7.4923    4.3185   26.9346 C   0  0  0  0  0  0  0  0  0  0  0  0
    6.4974    4.9272   26.1597 C   0  0  0  0  0  0  0  0  0  0  0  0
    6.4026    4.6471   24.7929 C   0  0  0  0  0  0  0  0  0  0  0  0
    5.6496    5.1404   24.1821 H   0  0  0  0  0  0  0  0  0  0  0  0
    5.8041    5.6301   26.6153 H   0  0  0  0  0  0  0  0  0  0  0  0
    7.5710    4.5316   27.9991 H   0  0  0  0  0  0  0  0  0  0  0  0
    9.1454    2.9265   26.9015 H   0  0  0  0  0  0  0  0  0  0  0  0
    9.0198    2.4562   24.5172 H   0  0  0  0  0  0  0  0  0  0  0  0
  1  2  2  0
  2  3  1  0
  3  4  2  3
  4  5  1  0
  5  6  2  0
  6  7  1  0
  7  8  2  0
  8  9  1  0
  9 10  1  0
 10 11  2  0
 11 12  1  0
 12 13  2  0
 13 14  1  0
 14 15  2  0
 15 16  1  0
 13 17  1  0
 12 18  1  0
 11 19  1  0
  7 20  1  0
  6 21  1  0
  4 22  1  0
  3 23  1  0
  2 24  1  0
 24 25  2  0
 25 26  1  0
 26 27  2  0
 27 28  1  0
 28 29  2  0
 29 30  1  0
 28 31  1  0
 27 32  1  0
 26 33  1  0
 25 34  1  0
  9  5  1  0
 15 10  1  0
 29 24  1  0
M  END
>  <cnnaffinity>  (1) 
-4.88173

>  <filename>  (1) 
[H]C(C(=O)c1c([H])c([H])c([H])c([H])c1[H])=C([H])c1c([H])c([H])nn1-c1c([H])nc([H])c([H])c1[H]

$$$$
