
     RDKit          3D

 27 29  0  0  0  0  0  0  0  0999 V2000
   13.0182    0.2713   24.2541 H   0  0  0  0  0  0  0  0  0  0  0  0
   12.5240   -0.0921   23.3593 C   0  0  0  0  0  0  0  0  0  0  0  0
   13.0546   -0.5473   22.2735 N   0  0  0  0  0  0  0  0  0  0  0  0
   11.9728   -0.9977   21.5360 C   0  0  0  0  0  0  0  0  0  0  0  0
   12.0981   -1.4760   20.5786 H   0  0  0  0  0  0  0  0  0  0  0  0
   10.8317   -0.7750   22.2355 C   0  0  0  0  0  0  0  0  0  0  0  0
    9.4708   -1.0675   22.0707 N   0  0  0  0  0  0  0  0  0  0  0  0
    8.7051   -0.4339   21.1013 C   0  0  0  0  0  0  0  0  0  0  0  0
    9.2334    0.2754   20.4729 H   0  0  0  0  0  0  0  0  0  0  0  0
    7.3613   -0.6539   20.9574 C   0  0  0  0  0  0  0  0  0  0  0  0
    6.5966    0.0056   19.8571 C   0  0  0  0  0  0  0  0  0  0  0  0
    7.1145    0.0245   18.5437 C   0  0  0  0  0  0  0  0  0  0  0  0
    8.0327   -0.5183   18.3244 H   0  0  0  0  0  0  0  0  0  0  0  0
    6.5565    0.6591   17.5044 N   0  0  0  0  0  0  0  0  0  0  0  0
    5.4170    1.3284   17.7417 C   0  0  0  0  0  0  0  0  0  0  0  0
    4.9935    1.8678   16.8945 H   0  0  0  0  0  0  0  0  0  0  0  0
    4.7834    1.3455   18.9904 C   0  0  0  0  0  0  0  0  0  0  0  0
    3.8598    1.9032   19.1078 H   0  0  0  0  0  0  0  0  0  0  0  0
    5.3675    0.6581   20.0608 C   0  0  0  0  0  0  0  0  0  0  0  0
    4.8885    0.6502   21.0435 H   0  0  0  0  0  0  0  0  0  0  0  0
    6.7206   -1.5490   21.8755 C   0  0  0  0  0  0  0  0  0  0  0  0
    5.6548   -1.7422   21.7638 H   0  0  0  0  0  0  0  0  0  0  0  0
    7.4402   -2.1861   22.8347 C   0  0  0  0  0  0  0  0  0  0  0  0
    7.0125   -2.8791   23.5441 H   0  0  0  0  0  0  0  0  0  0  0  0
    8.8834   -2.0346   22.9645 C   0  0  0  0  0  0  0  0  0  0  0  0
    9.5544   -2.6792   23.7360 O   0  0  0  0  0  0  0  0  0  0  0  0
   11.1824   -0.1887   23.4165 O   0  0  0  0  0  0  0  0  0  0  0  0
  1  2  1  0
  2  3  2  0
  3  4  1  0
  4  5  1  0
  4  6  2  0
  6  7  1  0
  7  8  1  0
  8  9  1  0
  8 10  2  0
 10 11  1  0
 11 12  2  0
 12 13  1  0
 12 14  1  0
 14 15  2  0
 15 16  1  0
 15 17  1  0
 17 18  1  0
 17 19  2  0
 19 20  1  0
 10 21  1  0
 21 22  1  0
 21 23  2  0
 23 24  1  0
 23 25  1  0
 25 26  2  0
  6 27  1  0
 27  2  1  0
 25  7  1  0
 19 11  1  0
M  END
>  <cnnaffinity>  (1) 
-4.49156

>  <filename>  (1) 
[H]c1nc([H])c(-n2c([H])c(-c3c([H])nc([H])c([H])c3[H])c([H])c([H])c2=O)o1

$$$$
