
     RDKit          3D

 33 35  0  0  0  0  0  0  0  0999 V2000
    5.0698    1.8102   16.8367 H   0  0  0  0  0  0  0  0  0  0  0  0
    5.4463    1.3103   17.7272 C   0  0  0  0  0  0  0  0  0  0  0  0
    6.6013    0.6427   17.5801 N   0  0  0  0  0  0  0  0  0  0  0  0
    7.1005    0.0372   18.6607 C   0  0  0  0  0  0  0  0  0  0  0  0
    8.0337   -0.5037   18.5294 H   0  0  0  0  0  0  0  0  0  0  0  0
    6.4903    0.0652   19.9309 C   0  0  0  0  0  0  0  0  0  0  0  0
    7.1669   -0.5855   21.0530 C   0  0  0  0  0  0  0  0  0  0  0  0
    8.3819   -1.2342   20.8379 N   0  0  0  0  0  0  0  0  0  0  0  0
    8.7377   -1.6514   22.0029 C   0  0  0  0  0  0  0  0  0  0  0  0
   10.0040   -2.3686   22.3340 C   0  0  1  0  0  0  0  0  0  0  0  0
   10.2560   -2.8571   21.3923 H   0  0  0  0  0  0  0  0  0  0  0  0
   11.1432   -1.3967   22.6356 C   0  0  0  0  0  0  0  0  0  0  0  0
   11.0510   -0.4619   23.6780 C   0  0  0  0  0  0  0  0  0  0  0  0
   10.1139   -0.3262   24.2156 H   0  0  0  0  0  0  0  0  0  0  0  0
   12.1641    0.3111   24.0296 C   0  0  0  0  0  0  0  0  0  0  0  0
   12.1019    1.0107   24.8596 H   0  0  0  0  0  0  0  0  0  0  0  0
   13.3675    0.1736   23.3247 C   0  0  0  0  0  0  0  0  0  0  0  0
   14.2362    0.7580   23.6113 H   0  0  0  0  0  0  0  0  0  0  0  0
   13.4537   -0.7197   22.2518 C   0  0  0  0  0  0  0  0  0  0  0  0
   14.3795   -0.8086   21.6846 H   0  0  0  0  0  0  0  0  0  0  0  0
   12.3337   -1.4787   21.8961 C   0  0  0  0  0  0  0  0  0  0  0  0
   12.3711   -2.1164   21.0140 H   0  0  0  0  0  0  0  0  0  0  0  0
    9.7921   -3.4277   23.4244 C   0  0  0  0  0  0  0  0  0  0  0  0
   10.7517   -3.8341   23.7491 H   0  0  0  0  0  0  0  0  0  0  0  0
    9.1756   -4.2378   23.0213 H   0  0  0  0  0  0  0  0  0  0  0  0
    9.2944   -2.9945   24.2993 H   0  0  0  0  0  0  0  0  0  0  0  0
    7.8609   -1.3669   22.9863 O   0  0  0  0  0  0  0  0  0  0  0  0
    6.8601   -0.6749   22.3707 C   0  0  0  0  0  0  0  0  0  0  0  0
    6.0740   -0.3570   23.0334 H   0  0  0  0  0  0  0  0  0  0  0  0
    5.2715    0.7509   20.0666 C   0  0  0  0  0  0  0  0  0  0  0  0
    4.7599    0.8041   21.0297 H   0  0  0  0  0  0  0  0  0  0  0  0
    4.7443    1.3782   18.9378 C   0  0  0  0  0  0  0  0  0  0  0  0
    3.8169    1.9364   18.9755 H   0  0  0  0  0  0  0  0  0  0  0  0
  1  2  1  0
  2  3  2  0
  3  4  1  0
  4  5  1  0
  4  6  2  0
  6  7  1  0
  7  8  1  0
  8  9  2  0
  9 10  1  0
 10 11  1  6
 10 12  1  0
 12 13  2  0
 13 14  1  0
 13 15  1  0
 15 16  1  0
 15 17  2  0
 17 18  1  0
 17 19  1  0
 19 20  1  0
 19 21  2  0
 21 22  1  0
 10 23  1  0
 23 24  1  0
 23 25  1  0
 23 26  1  0
  9 27  1  0
 27 28  1  0
 28 29  1  0
  6 30  1  0
 30 31  1  0
 30 32  2  0
 32 33  1  0
 32  2  1  0
 28  7  2  0
 21 12  1  0
M  END
>  <cnnaffinity>  (1) 
-5.4904

>  <filename>  (1) 
[H]c1nc([H])c(-c2nc([C@@]([H])(c3c([H])c([H])c([H])c([H])c3[H])C([H])([H])[H])oc2[H])c([H])c1[H]

$$$$
