
     RDKit          3D

 33 35  0  0  0  0  0  0  0  0999 V2000
    4.9388    1.8369   17.0081 H   0  0  0  0  0  0  0  0  0  0  0  0
    5.4038    1.3016   17.8331 C   0  0  0  0  0  0  0  0  0  0  0  0
    6.5605    0.6746   17.5586 N   0  0  0  0  0  0  0  0  0  0  0  0
    7.1709    0.0185   18.5588 C   0  0  0  0  0  0  0  0  0  0  0  0
    8.1186   -0.4654   18.3177 H   0  0  0  0  0  0  0  0  0  0  0  0
    6.6667   -0.0664   19.8823 C   0  0  0  0  0  0  0  0  0  0  0  0
    7.3210   -0.7814   20.9007 N   0  0  0  0  0  0  0  0  0  0  0  0
    6.7719   -0.9352   21.7421 H   0  0  0  0  0  0  0  0  0  0  0  0
    8.7105   -0.7244   21.1397 C   0  0  0  0  0  0  0  0  0  0  0  0
    9.6819    0.2081   20.6968 C   0  0  0  0  0  0  0  0  0  0  0  0
    9.5063    1.0662   20.0713 H   0  0  0  0  0  0  0  0  0  0  0  0
   10.8959   -0.0666   21.1654 N   0  0  0  0  0  0  0  0  0  0  0  0
   10.7014   -1.1652   21.9091 N   0  0  0  0  0  0  0  0  0  0  0  0
   11.5038   -1.6201   22.3172 H   0  0  0  0  0  0  0  0  0  0  0  0
    9.4157   -1.6062   21.9365 C   0  0  0  0  0  0  0  0  0  0  0  0
    8.9406   -2.7071   22.8360 C   0  0  0  0  0  0  0  0  0  0  0  0
    9.7572   -3.4227   22.9839 H   0  0  0  0  0  0  0  0  0  0  0  0
    8.1479   -3.2660   22.3302 H   0  0  0  0  0  0  0  0  0  0  0  0
    8.4382   -2.1754   24.1718 C   0  0  0  0  0  0  0  0  0  0  0  0
    7.0781   -2.0235   24.4533 C   0  0  0  0  0  0  0  0  0  0  0  0
    6.3429   -2.3481   23.7244 H   0  0  0  0  0  0  0  0  0  0  0  0
    6.6440   -1.4240   25.6386 C   0  0  0  0  0  0  0  0  0  0  0  0
    5.5833   -1.3368   25.8464 H   0  0  0  0  0  0  0  0  0  0  0  0
    7.5747   -0.9158   26.5545 C   0  0  0  0  0  0  0  0  0  0  0  0
    7.0155   -0.0736   27.9619 Cl  0  0  0  0  0  0  0  0  0  0  0  0
    8.9441   -1.0746   26.2896 C   0  0  0  0  0  0  0  0  0  0  0  0
   10.1624   -0.4771   27.3566 Cl  0  0  0  0  0  0  0  0  0  0  0  0
    9.3562   -1.7190   25.1208 C   0  0  0  0  0  0  0  0  0  0  0  0
   10.4182   -1.8363   24.9505 H   0  0  0  0  0  0  0  0  0  0  0  0
    5.4499    0.5887   20.1366 C   0  0  0  0  0  0  0  0  0  0  0  0
    5.0296    0.5882   21.1405 H   0  0  0  0  0  0  0  0  0  0  0  0
    4.8141    1.2842   19.1005 C   0  0  0  0  0  0  0  0  0  0  0  0
    3.8846    1.8209   19.2622 H   0  0  0  0  0  0  0  0  0  0  0  0
  1  2  1  0
  2  3  2  0
  3  4  1  0
  4  5  1  0
  4  6  2  0
  6  7  1  0
  7  8  1  0
  7  9  1  0
  9 10  1  0
 10 11  1  0
 10 12  2  0
 12 13  1  0
 13 14  1  0
 13 15  1  0
 15 16  1  0
 16 17  1  0
 16 18  1  0
 16 19  1  0
 19 20  2  0
 20 21  1  0
 20 22  1  0
 22 23  1  0
 22 24  2  0
 24 25  1  0
 24 26  1  0
 26 27  1  0
 26 28  2  0
 28 29  1  0
  6 30  1  0
 30 31  1  0
 30 32  2  0
 32 33  1  0
 32  2  1  0
 15  9  2  0
 28 19  1  0
M  END
>  <cnnaffinity>  (1) 
-5.95829

>  <filename>  (1) 
[H]c1nc([H])c(N([H])c2c([H])nn([H])c2C([H])([H])c2c([H])c([H])c(Cl)c(Cl)c2[H])c([H])c1[H]

$$$$
