
     RDKit          3D

 27 28  0  0  0  0  0  0  0  0999 V2000
    4.9434    1.8591   17.0024 H   0  0  0  0  0  0  0  0  0  0  0  0
    5.4210    1.2968   17.7969 C   0  0  0  0  0  0  0  0  0  0  0  0
    6.5680    0.6480   17.5272 N   0  0  0  0  0  0  0  0  0  0  0  0
    7.1618   -0.0096   18.5393 C   0  0  0  0  0  0  0  0  0  0  0  0
    8.1022   -0.5106   18.3333 H   0  0  0  0  0  0  0  0  0  0  0  0
    6.6433   -0.0748   19.8499 C   0  0  0  0  0  0  0  0  0  0  0  0
    7.3789   -0.8178   20.9542 C   0  0  0  0  0  0  0  0  0  0  0  0
    7.6255   -0.0996   21.7432 H   0  0  0  0  0  0  0  0  0  0  0  0
    8.3262   -1.2124   20.5728 H   0  0  0  0  0  0  0  0  0  0  0  0
    6.5398   -1.9737   21.5448 C   0  0  1  0  0  0  0  0  0  0  0  0
    5.6105   -1.5379   21.9135 H   0  0  0  0  0  0  0  0  0  0  0  0
    6.0498   -3.2623   20.1194 Br  0  0  0  0  0  0  0  0  0  0  0  0
    7.2278   -2.7036   22.6982 C   0  0  0  0  0  0  0  0  0  0  0  0
    6.4707   -3.0652   23.8299 C   0  0  0  0  0  0  0  0  0  0  0  0
    5.1270   -2.9161   23.8602 F   0  0  0  0  0  0  0  0  0  0  0  0
    7.0938   -3.6176   24.9536 C   0  0  0  0  0  0  0  0  0  0  0  0
    6.4934   -3.8277   25.8317 H   0  0  0  0  0  0  0  0  0  0  0  0
    8.4585   -3.9064   24.9493 C   0  0  0  0  0  0  0  0  0  0  0  0
    8.9350   -4.3423   25.8304 H   0  0  0  0  0  0  0  0  0  0  0  0
    9.1980   -3.6493   23.7891 C   0  0  0  0  0  0  0  0  0  0  0  0
   10.2486   -3.9143   23.7473 H   0  0  0  0  0  0  0  0  0  0  0  0
    8.5996   -3.0361   22.6717 C   0  0  0  0  0  0  0  0  0  0  0  0
    9.3557   -2.7682   21.5798 F   0  0  0  0  0  0  0  0  0  0  0  0
    5.4363    0.5853   20.1119 C   0  0  0  0  0  0  0  0  0  0  0  0
    4.9900    0.5726   21.1068 H   0  0  0  0  0  0  0  0  0  0  0  0
    4.8276    1.2812   19.0667 C   0  0  0  0  0  0  0  0  0  0  0  0
    3.9092    1.8393   19.2215 H   0  0  0  0  0  0  0  0  0  0  0  0
  1  2  1  0
  2  3  2  0
  3  4  1  0
  4  5  1  0
  4  6  2  0
  6  7  1  0
  7  8  1  0
  7  9  1  0
  7 10  1  0
 10 11  1  1
 10 12  1  0
 10 13  1  0
 13 14  2  0
 14 15  1  0
 14 16  1  0
 16 17  1  0
 16 18  2  0
 18 19  1  0
 18 20  1  0
 20 21  1  0
 20 22  2  0
 22 23  1  0
  6 24  1  0
 24 25  1  0
 24 26  2  0
 26 27  1  0
 26  2  1  0
 22 13  1  0
M  END
>  <cnnaffinity>  (1) 
-4.27593

>  <filename>  (1) 
[H]c1nc([H])c(C([H])([H])[C@@]([H])(Br)c2c(F)c([H])c([H])c([H])c2F)c([H])c1[H]

$$$$
