
     RDKit          3D

 26 26  0  0  0  0  0  0  0  0999 V2000
    4.9310    1.8279   17.0172 H   0  0  0  0  0  0  0  0  0  0  0  0
    5.4191    1.3091   17.8403 C   0  0  0  0  0  0  0  0  0  0  0  0
    6.5850    0.7082   17.5554 N   0  0  0  0  0  0  0  0  0  0  0  0
    7.2069    0.0529   18.5449 C   0  0  0  0  0  0  0  0  0  0  0  0
    8.1557   -0.4246   18.3038 H   0  0  0  0  0  0  0  0  0  0  0  0
    6.6896   -0.0806   19.8545 C   0  0  0  0  0  0  0  0  0  0  0  0
    7.3765   -0.8890   20.8328 N   0  0  0  0  0  0  0  0  0  0  0  0
    8.7708   -0.5564   21.1535 C   0  0  0  0  0  0  0  0  0  0  0  0
    8.9163    0.5318   21.1445 H   0  0  0  0  0  0  0  0  0  0  0  0
    9.0553   -0.9236   22.1411 H   0  0  0  0  0  0  0  0  0  0  0  0
    9.4376   -1.0204   20.4161 H   0  0  0  0  0  0  0  0  0  0  0  0
    6.4880   -1.5508   22.0716 S   0  0  0  0  0  0  0  0  0  0  0  0
    5.2868   -2.1327   21.5234 O   0  0  0  0  0  0  0  0  0  0  0  0
    6.5313   -0.6863   23.2259 O   0  0  0  0  0  0  0  0  0  0  0  0
    7.4848   -2.8230   22.4155 O   0  0  0  0  0  0  0  0  0  0  0  0
    6.9007   -3.7524   23.3631 C   0  0  0  0  0  0  0  0  0  0  0  0
    6.6792   -3.2524   24.3121 H   0  0  0  0  0  0  0  0  0  0  0  0
    5.9874   -4.1879   22.9492 H   0  0  0  0  0  0  0  0  0  0  0  0
    7.7818   -4.9582   23.7503 C   0  0  0  0  0  0  0  0  0  0  0  0
    8.9315   -4.6058   24.3313 F   0  0  0  0  0  0  0  0  0  0  0  0
    7.0651   -5.6714   24.6436 F   0  0  0  0  0  0  0  0  0  0  0  0
    8.0624   -5.7605   22.7185 F   0  0  0  0  0  0  0  0  0  0  0  0
    5.4880    0.5853   20.1427 C   0  0  0  0  0  0  0  0  0  0  0  0
    5.0766    0.5583   21.1541 H   0  0  0  0  0  0  0  0  0  0  0  0
    4.8398    1.2853   19.1141 C   0  0  0  0  0  0  0  0  0  0  0  0
    3.9067    1.8114   19.2865 H   0  0  0  0  0  0  0  0  0  0  0  0
  1  2  1  0
  2  3  2  0
  3  4  1  0
  4  5  1  0
  4  6  2  0
  6  7  1  0
  7  8  1  0
  8  9  1  0
  8 10  1  0
  8 11  1  0
  7 12  1  0
 12 13  2  0
 12 14  2  0
 12 15  1  0
 15 16  1  0
 16 17  1  0
 16 18  1  0
 16 19  1  0
 19 20  1  0
 19 21  1  0
 19 22  1  0
  6 23  1  0
 23 24  1  0
 23 25  2  0
 25 26  1  0
 25  2  1  0
M  END
>  <cnnaffinity>  (1) 
-4.43473

>  <filename>  (1) 
[H]c1nc([H])c(N(C([H])([H])[H])S(=O)(=O)OC([H])([H])C(F)(F)F)c([H])c1[H]

$$$$
