
     RDKit          3D

 35 38  0  0  0  0  0  0  0  0999 V2000
   10.4578   -2.0948   21.9462 C   0  0  0  0  0  0  0  0  0  0  0  0
    9.0315   -1.6651   21.8537 C   0  0  0  0  0  0  0  0  0  0  0  0
    8.1788   -1.6421   22.9367 C   0  0  0  0  0  0  0  0  0  0  0  0
    8.3489   -2.2211   24.2675 C   0  0  0  0  0  0  0  0  0  0  0  0
    8.7503   -3.5488   24.4980 C   0  0  0  0  0  0  0  0  0  0  0  0
    8.8609   -4.0600   25.7977 C   0  0  0  0  0  0  0  0  0  0  0  0
    8.5595   -3.2498   26.9051 C   0  0  0  0  0  0  0  0  0  0  0  0
    8.1818   -1.9261   26.7012 C   0  0  0  0  0  0  0  0  0  0  0  0
    8.0696   -1.4317   25.4029 C   0  0  0  0  0  0  0  0  0  0  0  0
    7.6920   -0.1334   25.3514 O   0  0  0  0  0  0  0  0  0  0  0  0
    7.6307    0.3829   26.6929 C   0  0  0  0  0  0  0  0  0  0  0  0
    7.8452   -0.8055   27.6496 C   0  0  0  0  0  0  0  0  0  0  0  0
    8.6580   -0.5996   28.3529 H   0  0  0  0  0  0  0  0  0  0  0  0
    6.9313   -1.0209   28.2142 H   0  0  0  0  0  0  0  0  0  0  0  0
    8.4054    1.1505   26.7829 H   0  0  0  0  0  0  0  0  0  0  0  0
    6.6517    0.8511   26.8228 H   0  0  0  0  0  0  0  0  0  0  0  0
    8.6371   -3.6634   27.9050 H   0  0  0  0  0  0  0  0  0  0  0  0
    9.1969   -5.0819   25.9586 H   0  0  0  0  0  0  0  0  0  0  0  0
    8.9541   -4.1921   23.6437 H   0  0  0  0  0  0  0  0  0  0  0  0
    6.7856   -0.6900   22.5600 S   0  0  0  0  0  0  0  0  0  0  0  0
    7.3334   -0.5886   20.9251 C   0  0  0  0  0  0  0  0  0  0  0  0
    6.5802    0.0949   19.8674 C   0  0  0  0  0  0  0  0  0  0  0  0
    5.3532    0.7702   20.0304 C   0  0  0  0  0  0  0  0  0  0  0  0
    4.7837    1.3720   18.9079 C   0  0  0  0  0  0  0  0  0  0  0  0
    5.4509    1.3008   17.6771 C   0  0  0  0  0  0  0  0  0  0  0  0
    6.6245    0.6732   17.5109 N   0  0  0  0  0  0  0  0  0  0  0  0
    7.1620    0.0934   18.5862 C   0  0  0  0  0  0  0  0  0  0  0  0
    8.1054   -0.4219   18.4413 H   0  0  0  0  0  0  0  0  0  0  0  0
    5.0208    1.7655   16.7922 H   0  0  0  0  0  0  0  0  0  0  0  0
    3.8394    1.9006   18.9815 H   0  0  0  0  0  0  0  0  0  0  0  0
    4.8403    0.8408   20.9909 H   0  0  0  0  0  0  0  0  0  0  0  0
    8.5179   -1.1057   20.7152 N   0  0  0  0  0  0  0  0  0  0  0  0
   10.5426   -3.1022   22.3575 H   0  0  0  0  0  0  0  0  0  0  0  0
   11.0078   -1.4520   22.6429 H   0  0  0  0  0  0  0  0  0  0  0  0
   10.9399   -2.0546   20.9699 H   0  0  0  0  0  0  0  0  0  0  0  0
  1  2  1  0
  2  3  2  0
  3  4  1  0
  4  5  2  0
  5  6  1  0
  6  7  2  0
  7  8  1  0
  8  9  2  0
  9 10  1  0
 10 11  1  0
 11 12  1  0
 12 13  1  0
 12 14  1  0
 11 15  1  0
 11 16  1  0
  7 17  1  0
  6 18  1  0
  5 19  1  0
  3 20  1  0
 20 21  1  0
 21 22  1  0
 22 23  2  0
 23 24  1  0
 24 25  2  0
 25 26  1  0
 26 27  2  0
 27 28  1  0
 25 29  1  0
 24 30  1  0
 23 31  1  0
 21 32  2  0
  1 33  1  0
  1 34  1  0
  1 35  1  0
 32  2  1  0
  9  4  1  0
 27 22  1  0
 12  8  1  0
M  END
>  <cnnaffinity>  (1) 
-5.35991

>  <filename>  (1) 
[H]c1nc([H])c(-c2nc(C([H])([H])[H])c(-c3c([H])c([H])c([H])c4c3OC([H])([H])C4([H])[H])s2)c([H])c1[H]

$$$$
