
     RDKit          3D

 26 28  0  0  0  0  0  0  0  0999 V2000
    4.9190    1.8262   16.9955 H   0  0  0  0  0  0  0  0  0  0  0  0
    5.3807    1.2909   17.8217 C   0  0  0  0  0  0  0  0  0  0  0  0
    6.5322    0.6614   17.5447 N   0  0  0  0  0  0  0  0  0  0  0  0
    7.1441    0.0199   18.5456 C   0  0  0  0  0  0  0  0  0  0  0  0
    8.1063   -0.4397   18.3158 H   0  0  0  0  0  0  0  0  0  0  0  0
    6.6264   -0.0466   19.8527 C   0  0  0  0  0  0  0  0  0  0  0  0
    7.5525   -0.8584   21.1681 S   0  0  0  0  0  0  0  0  0  0  0  0
    8.4897    0.5369   21.7001 C   0  0  0  0  0  0  0  0  0  0  0  0
    9.6069    0.9047   21.1068 N   0  0  0  0  0  0  0  0  0  0  0  0
    9.9523    2.0823   21.6664 N   0  0  0  0  0  0  0  0  0  0  0  0
    9.1153    2.4426   22.5564 N   0  0  0  0  0  0  0  0  0  0  0  0
    8.1653    1.4730   22.6194 N   0  0  0  0  0  0  0  0  0  0  0  0
    7.0910    1.5739   23.5188 C   0  0  0  0  0  0  0  0  0  0  0  0
    6.2337    0.5274   23.7348 N   0  0  0  0  0  0  0  0  0  0  0  0
    5.3739    0.8455   24.6609 C   0  0  0  0  0  0  0  0  0  0  0  0
    4.3276   -0.0393   25.2787 C   0  0  0  0  0  0  0  0  0  0  0  0
    4.1903    0.2390   26.3249 H   0  0  0  0  0  0  0  0  0  0  0  0
    3.3604    0.0871   24.7796 H   0  0  0  0  0  0  0  0  0  0  0  0
    4.5874   -1.0992   25.2255 H   0  0  0  0  0  0  0  0  0  0  0  0
    5.5146    2.4841   25.2602 S   0  0  0  0  0  0  0  0  0  0  0  0
    6.8614    2.7033   24.2405 C   0  0  0  0  0  0  0  0  0  0  0  0
    7.4779    3.5874   24.2225 H   0  0  0  0  0  0  0  0  0  0  0  0
    5.4263    0.6198   20.1329 C   0  0  0  0  0  0  0  0  0  0  0  0
    5.0342    0.6249   21.1526 H   0  0  0  0  0  0  0  0  0  0  0  0
    4.7892    1.2968   19.0888 C   0  0  0  0  0  0  0  0  0  0  0  0
    3.8691    1.8524   19.2454 H   0  0  0  0  0  0  0  0  0  0  0  0
  1  2  1  0
  2  3  2  0
  3  4  1  0
  4  5  1  0
  4  6  2  0
  6  7  1  0
  7  8  1  0
  8  9  2  0
  9 10  1  0
 10 11  2  0
 11 12  1  0
 12 13  1  0
 13 14  1  0
 14 15  2  0
 15 16  1  0
 16 17  1  0
 16 18  1  0
 16 19  1  0
 15 20  1  0
 20 21  1  0
 21 22  1  0
  6 23  1  0
 23 24  1  0
 23 25  2  0
 25 26  1  0
 25  2  1  0
 12  8  1  0
 21 13  2  0
M  END
>  <cnnaffinity>  (1) 
-4.43303

>  <filename>  (1) 
[H]c1nc([H])c(Sc2nnnn2-c2nc(C([H])([H])[H])sc2[H])c([H])c1[H]

$$$$
