
     RDKit          3D

 30 32  0  0  0  0  0  0  0  0999 V2000
    9.1545   -3.0851   21.8745 H   0  0  0  0  0  0  0  0  0  0  0  0
    8.5526   -2.1824   21.8293 C   0  0  0  0  0  0  0  0  0  0  0  0
    8.2736   -1.3454   22.7649 N   0  0  0  0  0  0  0  0  0  0  0  0
    7.4794   -0.3965   22.1473 C   0  0  0  0  0  0  0  0  0  0  0  0
    6.9215    0.8399   22.8101 C   0  0  0  0  0  0  0  0  0  0  0  0
    6.9129    1.6474   22.0707 H   0  0  0  0  0  0  0  0  0  0  0  0
    5.8911    0.6587   23.1362 H   0  0  0  0  0  0  0  0  0  0  0  0
    7.6418    1.3439   23.9558 N   0  0  0  0  0  0  0  0  0  0  0  0
    7.3490    0.8759   25.2360 N   0  0  0  0  0  0  0  0  0  0  0  0
    8.4502    1.1123   25.8547 C   0  0  0  0  0  0  0  0  0  0  0  0
    8.8095    0.8123   27.0788 O   0  0  0  0  0  0  0  0  0  0  0  0
    7.8614    0.2077   27.9594 C   0  0  0  0  0  0  0  0  0  0  0  0
    8.3278    0.2701   28.9436 H   0  0  0  0  0  0  0  0  0  0  0  0
    6.9123    0.7482   27.9522 H   0  0  0  0  0  0  0  0  0  0  0  0
    7.6825   -0.8374   27.6891 H   0  0  0  0  0  0  0  0  0  0  0  0
    9.4225    1.7216   25.1590 O   0  0  0  0  0  0  0  0  0  0  0  0
    8.9059    1.8694   23.8884 C   0  0  0  0  0  0  0  0  0  0  0  0
    9.4669    2.3473   22.9456 O   0  0  0  0  0  0  0  0  0  0  0  0
    7.2984   -0.7525   20.8354 C   0  0  0  0  0  0  0  0  0  0  0  0
    6.5976   -0.0979   19.7433 C   0  0  0  0  0  0  0  0  0  0  0  0
    7.1290   -0.0539   18.4383 C   0  0  0  0  0  0  0  0  0  0  0  0
    8.0507   -0.5831   18.2033 H   0  0  0  0  0  0  0  0  0  0  0  0
    6.5714    0.6380   17.4393 N   0  0  0  0  0  0  0  0  0  0  0  0
    5.4397    1.3098   17.7047 C   0  0  0  0  0  0  0  0  0  0  0  0
    5.0227    1.8797   16.8800 H   0  0  0  0  0  0  0  0  0  0  0  0
    4.8030    1.2974   18.9490 C   0  0  0  0  0  0  0  0  0  0  0  0
    3.8932    1.8637   19.1031 H   0  0  0  0  0  0  0  0  0  0  0  0
    5.3929    0.5814   19.9854 C   0  0  0  0  0  0  0  0  0  0  0  0
    4.9223    0.5450   20.9679 H   0  0  0  0  0  0  0  0  0  0  0  0
    8.0212   -1.8858   20.6235 O   0  0  0  0  0  0  0  0  0  0  0  0
  1  2  1  0
  2  3  2  0
  3  4  1  0
  4  5  1  0
  5  6  1  0
  5  7  1  0
  5  8  1  0
  8  9  1  0
  9 10  2  0
 10 11  1  0
 11 12  1  0
 12 13  1  0
 12 14  1  0
 12 15  1  0
 10 16  1  0
 16 17  1  0
 17 18  2  0
  4 19  2  0
 19 20  1  0
 20 21  2  0
 21 22  1  0
 21 23  1  0
 23 24  2  0
 24 25  1  0
 24 26  1  0
 26 27  1  0
 26 28  2  0
 28 29  1  0
 19 30  1  0
 30  2  1  0
 17  8  1  0
 28 20  1  0
M  END
>  <cnnaffinity>  (1) 
-4.69696

>  <filename>  (1) 
[H]c1nc(C([H])([H])n2nc(OC([H])([H])[H])oc2=O)c(-c2c([H])nc([H])c([H])c2[H])o1

$$$$
