
     RDKit          3D

 34 37  0  0  0  0  0  0  0  0999 V2000
    4.8027   -3.6031   23.2839 H   0  0  0  0  0  0  0  0  0  0  0  0
    5.1449   -3.2659   24.2642 C   0  0  0  0  0  0  0  0  0  0  0  0
    4.5680   -3.8065   25.3638 C   0  0  0  0  0  0  0  0  0  0  0  0
    3.1897   -4.9096   25.2841 S   0  0  0  0  0  0  0  0  0  0  0  0
    3.2435   -5.1742   27.0563 C   0  0  0  0  0  0  0  0  0  0  0  0
    2.4815   -5.8266   27.7069 O   0  0  0  0  0  0  0  0  0  0  0  0
    4.3106   -4.4904   27.5734 N   0  0  0  0  0  0  0  0  0  0  0  0
    4.4391   -4.4351   28.5665 H   0  0  0  0  0  0  0  0  0  0  0  0
    4.9785   -3.6156   26.7774 C   0  0  0  0  0  0  0  0  0  0  0  0
    5.7624   -2.8124   27.2463 O   0  0  0  0  0  0  0  0  0  0  0  0
    6.1479   -2.2335   24.1517 C   0  0  0  0  0  0  0  0  0  0  0  0
    6.6460   -1.7026   22.9663 C   0  0  0  0  0  0  0  0  0  0  0  0
    7.3170   -0.5493   23.3367 C   0  0  0  0  0  0  0  0  0  0  0  0
    7.3404   -0.3589   24.6378 N   0  0  0  0  0  0  0  0  0  0  0  0
    6.6316   -1.4009   25.1236 N   0  0  0  0  0  0  0  0  0  0  0  0
    6.4826   -1.5455   26.1208 H   0  0  0  0  0  0  0  0  0  0  0  0
    7.8398    0.2128   22.1589 C   0  0  0  0  0  0  0  0  0  0  0  0
    8.9135    0.3984   22.2320 H   0  0  0  0  0  0  0  0  0  0  0  0
    7.3711    1.1986   22.0772 H   0  0  0  0  0  0  0  0  0  0  0  0
    7.4786   -0.7064   20.9402 C   0  0  2  0  0  0  0  0  0  0  0  0
    8.4249   -1.0722   20.5228 H   0  0  0  0  0  0  0  0  0  0  0  0
    6.7303    0.0210   19.8440 C   0  0  0  0  0  0  0  0  0  0  0  0
    7.2298    0.0645   18.5319 C   0  0  0  0  0  0  0  0  0  0  0  0
    8.1747   -0.4350   18.3164 H   0  0  0  0  0  0  0  0  0  0  0  0
    6.6309    0.6760   17.5036 N   0  0  0  0  0  0  0  0  0  0  0  0
    5.4721    1.3026   17.7593 C   0  0  0  0  0  0  0  0  0  0  0  0
    5.0024    1.8070   16.9163 H   0  0  0  0  0  0  0  0  0  0  0  0
    4.8748    1.3284   19.0243 C   0  0  0  0  0  0  0  0  0  0  0  0
    3.9483    1.8750   19.1673 H   0  0  0  0  0  0  0  0  0  0  0  0
    5.5091    0.6735   20.0820 C   0  0  0  0  0  0  0  0  0  0  0  0
    5.0648    0.6802   21.0800 H   0  0  0  0  0  0  0  0  0  0  0  0
    6.6805   -1.9445   21.4936 C   0  0  0  0  0  0  0  0  0  0  0  0
    7.1922   -2.8822   21.2388 H   0  0  0  0  0  0  0  0  0  0  0  0
    5.6708   -2.0255   21.0647 H   0  0  0  0  0  0  0  0  0  0  0  0
  1  2  1  0
  2  3  2  3
  3  4  1  0
  4  5  1  0
  5  6  2  0
  5  7  1  0
  7  8  1  0
  7  9  1  0
  9 10  2  0
  2 11  1  0
 11 12  2  0
 12 13  1  0
 13 14  2  0
 14 15  1  0
 15 16  1  0
 13 17  1  0
 17 18  1  0
 17 19  1  0
 17 20  1  0
 20 21  1  6
 20 22  1  0
 22 23  2  0
 23 24  1  0
 23 25  1  0
 25 26  2  0
 26 27  1  0
 26 28  1  0
 28 29  1  0
 28 30  2  0
 30 31  1  0
 20 32  1  0
 32 33  1  0
 32 34  1  0
  9  3  1  0
 15 11  1  0
 30 22  1  0
 32 12  1  0
M  END
>  <cnnaffinity>  (1) 
-5.10907

>  <filename>  (1) 
[H]C(=C1SC(=O)N([H])C1=O)c1c2c(nn1[H])C([H])([H])[C@]([H])(c1c([H])nc([H])c([H])c1[H])C2([H])[H]

$$$$
