
     RDKit          3D

 41 44  0  0  0  0  0  0  0  0999 V2000
    4.9286    1.7805   16.9963 H   0  0  0  0  0  0  0  0  0  0  0  0
    5.4024    1.2902   17.8427 C   0  0  0  0  0  0  0  0  0  0  0  0
    6.5635    0.6742   17.5818 N   0  0  0  0  0  0  0  0  0  0  0  0
    7.1687    0.0607   18.6002 C   0  0  0  0  0  0  0  0  0  0  0  0
    8.1160   -0.4263   18.3848 H   0  0  0  0  0  0  0  0  0  0  0  0
    6.6462    0.0162   19.9005 C   0  0  0  0  0  0  0  0  0  0  0  0
    7.4139   -0.7015   20.9054 C   0  0  0  0  0  0  0  0  0  0  0  0
    8.5295   -1.3447   20.7716 N   0  0  0  0  0  0  0  0  0  0  0  0
    8.8405   -1.8588   22.0180 N   0  0  0  0  0  0  0  0  0  0  0  0
    7.8915   -1.4931   22.8183 C   0  0  0  0  0  0  0  0  0  0  0  0
    7.7826   -1.8531   24.2738 C   0  0  0  0  0  0  0  0  0  0  0  0
    7.2603   -3.1604   24.6409 N   0  0  0  0  0  0  0  0  0  0  0  0
    7.8189   -3.8729   24.1689 H   0  0  0  0  0  0  0  0  0  0  0  0
    5.8594   -3.3349   24.2515 C   0  0  0  0  0  0  0  0  0  0  0  0
    5.2911   -2.4925   24.6581 H   0  0  0  0  0  0  0  0  0  0  0  0
    5.7054   -3.3103   23.1595 H   0  0  0  0  0  0  0  0  0  0  0  0
    5.2929   -4.6353   24.8113 C   0  0  0  0  0  0  0  0  0  0  0  0
    5.8808   -5.4751   24.4183 H   0  0  0  0  0  0  0  0  0  0  0  0
    5.4334   -4.6383   25.8980 H   0  0  0  0  0  0  0  0  0  0  0  0
    3.8323   -4.7971   24.4486 C   0  0  0  0  0  0  0  0  0  0  0  0
    2.8294   -4.2775   25.2815 C   0  0  0  0  0  0  0  0  0  0  0  0
    3.1166   -3.7925   26.2136 H   0  0  0  0  0  0  0  0  0  0  0  0
    1.4806   -4.3778   24.9247 C   0  0  0  0  0  0  0  0  0  0  0  0
    0.7163   -3.9825   25.5907 H   0  0  0  0  0  0  0  0  0  0  0  0
    1.1210   -4.9913   23.7187 C   0  0  0  0  0  0  0  0  0  0  0  0
    0.0720   -5.0792   23.4442 H   0  0  0  0  0  0  0  0  0  0  0  0
    2.1139   -5.4931   22.8683 C   0  0  0  0  0  0  0  0  0  0  0  0
    1.8424   -5.9698   21.9287 H   0  0  0  0  0  0  0  0  0  0  0  0
    3.4608   -5.3896   23.2316 C   0  0  0  0  0  0  0  0  0  0  0  0
    4.2389   -5.7708   22.5720 H   0  0  0  0  0  0  0  0  0  0  0  0
    8.8939   -1.3540   25.1658 C   0  0  0  0  0  0  0  0  0  0  0  0
    9.6816   -0.7608   24.7071 H   0  0  0  0  0  0  0  0  0  0  0  0
    9.2306   -2.0294   25.9464 H   0  0  0  0  0  0  0  0  0  0  0  0
    7.5209   -0.7661   25.2808 C   0  0  0  0  0  0  0  0  0  0  0  0
    7.3545    0.2477   24.9324 H   0  0  0  0  0  0  0  0  0  0  0  0
    6.9323   -1.0484   26.1480 H   0  0  0  0  0  0  0  0  0  0  0  0
    6.9501   -0.7392   22.1789 O   0  0  0  0  0  0  0  0  0  0  0  0
    5.4240    0.6579   20.1683 C   0  0  0  0  0  0  0  0  0  0  0  0
    4.9874    0.6446   21.1720 H   0  0  0  0  0  0  0  0  0  0  0  0
    4.8008    1.3116   19.1075 C   0  0  0  0  0  0  0  0  0  0  0  0
    3.8707    1.8457   19.2505 H   0  0  0  0  0  0  0  0  0  0  0  0
  1  2  1  0
  2  3  2  0
  3  4  1  0
  4  5  1  0
  4  6  2  0
  6  7  1  0
  7  8  2  0
  8  9  1  0
  9 10  2  0
 10 11  1  0
 11 12  1  0
 12 13  1  0
 12 14  1  0
 14 15  1  0
 14 16  1  0
 14 17  1  0
 17 18  1  0
 17 19  1  0
 17 20  1  0
 20 21  2  0
 21 22  1  0
 21 23  1  0
 23 24  1  0
 23 25  2  0
 25 26  1  0
 25 27  1  0
 27 28  1  0
 27 29  2  0
 29 30  1  0
 11 31  1  0
 31 32  1  0
 31 33  1  0
 31 34  1  0
 34 35  1  0
 34 36  1  0
 10 37  1  0
  6 38  1  0
 38 39  1  0
 38 40  2  0
 40 41  1  0
 40  2  1  0
 37  7  1  0
 34 11  1  0
 29 20  1  0
M  END
>  <cnnaffinity>  (1) 
-5.40856

>  <filename>  (1) 
[H]c1nc([H])c(-c2nnc(C3(N([H])C([H])([H])C([H])([H])c4c([H])c([H])c([H])c([H])c4[H])C([H])([H])C3([H])[H])o2)c([H])c1[H]

$$$$
