
     RDKit          3D

 37 39  0  0  0  0  0  0  0  0999 V2000
   11.3977   -2.6857   23.5883 H   0  0  0  0  0  0  0  0  0  0  0  0
   10.3922   -2.9037   23.2614 C   0  0  0  0  0  0  0  0  0  0  0  0
    9.9168   -2.1806   22.2393 N   0  0  0  0  0  0  0  0  0  0  0  0
    8.6773   -2.4735   21.8359 C   0  0  0  0  0  0  0  0  0  0  0  0
    8.0406   -1.6501   20.7407 C   0  0  0  0  0  0  0  0  0  0  0  0
    8.7484   -1.6290   19.9074 H   0  0  0  0  0  0  0  0  0  0  0  0
    7.1527   -2.2076   20.4324 H   0  0  0  0  0  0  0  0  0  0  0  0
    7.6362   -0.1770   21.0970 C   0  0  1  0  0  0  0  0  0  0  0  0
    6.7863    0.3827   19.9360 C   0  0  0  0  0  0  0  0  0  0  0  0
    7.2444    0.2670   18.6059 C   0  0  0  0  0  0  0  0  0  0  0  0
    8.2072   -0.1966   18.3891 H   0  0  0  0  0  0  0  0  0  0  0  0
    6.5895    0.7029   17.5215 N   0  0  0  0  0  0  0  0  0  0  0  0
    5.4125    1.3111   17.7243 C   0  0  0  0  0  0  0  0  0  0  0  0
    4.8925    1.6567   16.8359 H   0  0  0  0  0  0  0  0  0  0  0  0
    4.8636    1.5111   18.9936 C   0  0  0  0  0  0  0  0  0  0  0  0
    3.9151    2.0249   19.0996 H   0  0  0  0  0  0  0  0  0  0  0  0
    5.5649    1.0583   20.1123 C   0  0  0  0  0  0  0  0  0  0  0  0
    5.1819    1.2491   21.1148 H   0  0  0  0  0  0  0  0  0  0  0  0
    6.9258   -0.0885   22.4807 C   0  0  0  0  0  0  0  0  0  0  0  0
    7.3058   -0.8804   23.1454 H   0  0  0  0  0  0  0  0  0  0  0  0
    5.8505   -0.2613   22.3809 H   0  0  0  0  0  0  0  0  0  0  0  0
    7.2037    1.2473   23.0178 N   0  0  0  0  0  0  0  0  0  0  0  0
    7.3828    1.1957   24.0129 H   0  0  0  0  0  0  0  0  0  0  0  0
    8.3455    1.8335   22.2977 C   0  0  0  0  0  0  0  0  0  0  0  0
    8.0306    2.7211   21.7274 H   0  0  0  0  0  0  0  0  0  0  0  0
    9.1248    2.1646   22.9973 H   0  0  0  0  0  0  0  0  0  0  0  0
    8.8621    0.7351   21.3611 C   0  0  0  0  0  0  0  0  0  0  0  0
    9.6469    0.1494   21.8473 H   0  0  0  0  0  0  0  0  0  0  0  0
    9.2806    1.1348   20.4333 H   0  0  0  0  0  0  0  0  0  0  0  0
    7.9304   -3.4718   22.3220 N   0  0  0  0  0  0  0  0  0  0  0  0
    8.4160   -4.1869   23.3509 C   0  0  0  0  0  0  0  0  0  0  0  0
    7.5661   -5.3746   23.8708 C   0  0  0  0  0  0  0  0  0  0  0  0
    6.2502   -5.1329   23.8380 F   0  0  0  0  0  0  0  0  0  0  0  0
    7.7952   -6.4736   23.1284 F   0  0  0  0  0  0  0  0  0  0  0  0
    7.8852   -5.6873   25.1458 F   0  0  0  0  0  0  0  0  0  0  0  0
    9.6646   -3.8997   23.8952 C   0  0  0  0  0  0  0  0  0  0  0  0
   10.0742   -4.4057   24.7618 H   0  0  0  0  0  0  0  0  0  0  0  0
  1  2  1  0
  2  3  2  0
  3  4  1  0
  4  5  1  0
  5  6  1  0
  5  7  1  0
  8  5  1  6
  8  9  1  0
  9 10  2  0
 10 11  1  0
 10 12  1  0
 12 13  2  0
 13 14  1  0
 13 15  1  0
 15 16  1  0
 15 17  2  0
 17 18  1  0
  8 19  1  0
 19 20  1  0
 19 21  1  0
 19 22  1  0
 22 23  1  0
 22 24  1  0
 24 25  1  0
 24 26  1  0
 24 27  1  0
 27 28  1  0
 27 29  1  0
  4 30  2  0
 30 31  1  0
 31 32  1  0
 32 33  1  0
 32 34  1  0
 32 35  1  0
 31 36  2  0
 36 37  1  0
 36  2  1  0
 27  8  1  0
 17  9  1  0
M  END
>  <cnnaffinity>  (1) 
-5.88038

>  <filename>  (1) 
[H]c1nc(C([H])([H])[C@@]2(c3c([H])nc([H])c([H])c3[H])C([H])([H])N([H])C([H])([H])C2([H])[H])nc(C(F)(F)F)c1[H]

$$$$
