
     RDKit          3D

 30 31  0  0  0  0  0  0  0  0999 V2000
    4.9626    1.6435   16.7608 H   0  0  0  0  0  0  0  0  0  0  0  0
    5.4523    1.3394   17.6852 C   0  0  0  0  0  0  0  0  0  0  0  0
    6.6599    0.7679   17.5650 N   0  0  0  0  0  0  0  0  0  0  0  0
    7.2861    0.3816   18.6868 C   0  0  0  0  0  0  0  0  0  0  0  0
    8.2802   -0.0458   18.5513 H   0  0  0  0  0  0  0  0  0  0  0  0
    6.7365    0.5197   19.9708 C   0  0  0  0  0  0  0  0  0  0  0  0
    7.4323   -0.0376   21.1845 C   0  0  2  0  0  0  0  0  0  0  0  0
    6.9955    0.4316   22.0787 H   0  0  0  0  0  0  0  0  0  0  0  0
    8.7841    0.2970   21.1620 F   0  0  0  0  0  0  0  0  0  0  0  0
    7.3237   -1.5560   21.3399 C   0  0  0  0  0  0  0  0  0  0  0  0
    8.0708   -2.0465   20.7075 H   0  0  0  0  0  0  0  0  0  0  0  0
    7.5917   -1.8053   22.3729 H   0  0  0  0  0  0  0  0  0  0  0  0
    5.9301   -2.1100   21.0266 C   0  0  0  0  0  0  0  0  0  0  0  0
    5.1975   -1.5669   21.6211 H   0  0  0  0  0  0  0  0  0  0  0  0
    5.6830   -1.9080   19.9780 H   0  0  0  0  0  0  0  0  0  0  0  0
    5.8129   -3.5733   21.3176 C   0  0  0  0  0  0  0  0  0  0  0  0
    5.9226   -4.0552   22.6300 C   0  0  0  0  0  0  0  0  0  0  0  0
    6.0061   -3.3463   23.4554 H   0  0  0  0  0  0  0  0  0  0  0  0
    5.9717   -5.4261   22.8625 C   0  0  0  0  0  0  0  0  0  0  0  0
    6.0571   -5.8112   23.8726 H   0  0  0  0  0  0  0  0  0  0  0  0
    5.9448   -6.3355   21.7928 C   0  0  0  0  0  0  0  0  0  0  0  0
    6.3210   -7.9850   22.1497 Cl  0  0  0  0  0  0  0  0  0  0  0  0
    5.7030   -5.8584   20.4905 C   0  0  0  0  0  0  0  0  0  0  0  0
    5.3828   -6.8469   19.1021 Cl  0  0  0  0  0  0  0  0  0  0  0  0
    5.6580   -4.4826   20.2719 C   0  0  0  0  0  0  0  0  0  0  0  0
    5.4620   -4.1278   19.2652 H   0  0  0  0  0  0  0  0  0  0  0  0
    5.4676    1.1129   20.0765 C   0  0  0  0  0  0  0  0  0  0  0  0
    5.0016    1.2575   21.0547 H   0  0  0  0  0  0  0  0  0  0  0  0
    4.8184    1.5380   18.9168 C   0  0  0  0  0  0  0  0  0  0  0  0
    3.8456    2.0125   18.9531 H   0  0  0  0  0  0  0  0  0  0  0  0
  1  2  1  0
  2  3  2  0
  3  4  1  0
  4  5  1  0
  4  6  2  0
  6  7  1  0
  7  8  1  1
  7  9  1  0
  7 10  1  0
 10 11  1  0
 10 12  1  0
 10 13  1  0
 13 14  1  0
 13 15  1  0
 13 16  1  0
 16 17  2  0
 17 18  1  0
 17 19  1  0
 19 20  1  0
 19 21  2  0
 21 22  1  0
 21 23  1  0
 23 24  1  0
 23 25  2  0
 25 26  1  0
  6 27  1  0
 27 28  1  0
 27 29  2  0
 29 30  1  0
 29  2  1  0
 25 16  1  0
M  END
>  <cnnaffinity>  (1) 
-5.09216

>  <filename>  (1) 
[H]c1nc([H])c([C@]([H])(F)C([H])([H])C([H])([H])c2c([H])c([H])c(Cl)c(Cl)c2[H])c([H])c1[H]

$$$$
