
     RDKit          3D

 25 25  0  0  0  0  0  0  0  0999 V2000
    4.9289    1.7764   16.9971 H   0  0  0  0  0  0  0  0  0  0  0  0
    5.4122    1.2859   17.8431 C   0  0  0  0  0  0  0  0  0  0  0  0
    6.5731    0.6609   17.5935 N   0  0  0  0  0  0  0  0  0  0  0  0
    7.1907    0.0563   18.6202 C   0  0  0  0  0  0  0  0  0  0  0  0
    8.1211   -0.4516   18.3734 H   0  0  0  0  0  0  0  0  0  0  0  0
    6.6907    0.0653   19.9273 C   0  0  0  0  0  0  0  0  0  0  0  0
    7.5038   -0.8668   21.2348 S   0  0  0  0  0  4  0  0  0  0  0  0
    7.8214   -2.2044   20.6292 O   0  0  0  0  0  0  0  0  0  0  0  0
    9.1266    0.0117   21.3712 C   0  0  1  0  0  0  0  0  0  0  0  0
    9.6760   -0.2403   20.4561 H   0  0  0  0  0  0  0  0  0  0  0  0
    8.9393    1.5173   21.4934 C   0  0  0  0  0  0  0  0  0  0  0  0
    8.3140    1.7513   22.3627 H   0  0  0  0  0  0  0  0  0  0  0  0
    9.9108    2.0078   21.6354 H   0  0  0  0  0  0  0  0  0  0  0  0
    8.4680    1.9438   20.6015 H   0  0  0  0  0  0  0  0  0  0  0  0
    9.8842   -0.5720   22.5754 C   0  0  0  0  0  0  0  0  0  0  0  0
    9.2561   -0.4654   23.4678 H   0  0  0  0  0  0  0  0  0  0  0  0
   10.7649    0.0582   22.7577 H   0  0  0  0  0  0  0  0  0  0  0  0
   10.3369   -2.0212   22.4254 C   0  0  0  0  0  0  0  0  0  0  0  0
   10.8737   -2.1677   21.4838 H   0  0  0  0  0  0  0  0  0  0  0  0
    9.4862   -2.7068   22.4144 H   0  0  0  0  0  0  0  0  0  0  0  0
   11.0133   -2.3043   23.2383 H   0  0  0  0  0  0  0  0  0  0  0  0
    5.4542    0.6737   20.1767 C   0  0  0  0  0  0  0  0  0  0  0  0
    5.0108    0.6286   21.1736 H   0  0  0  0  0  0  0  0  0  0  0  0
    4.8124    1.3092   19.1084 C   0  0  0  0  0  0  0  0  0  0  0  0
    3.8752    1.8368   19.2578 H   0  0  0  0  0  0  0  0  0  0  0  0
  1  2  1  0
  2  3  2  0
  3  4  1  0
  4  5  1  0
  4  6  2  0
  7  6  1  6
  7  8  2  0
  7  9  1  0
  9 10  1  6
  9 11  1  0
 11 12  1  0
 11 13  1  0
 11 14  1  0
  9 15  1  0
 15 16  1  0
 15 17  1  0
 15 18  1  0
 18 19  1  0
 18 20  1  0
 18 21  1  0
  6 22  1  0
 22 23  1  0
 22 24  2  0
 24 25  1  0
 24  2  1  0
M  END
>  <cnnaffinity>  (1) 
-4.04709

>  <filename>  (1) 
[H]c1nc([H])c([S@@](=O)[C@@]([H])(C([H])([H])[H])C([H])([H])C([H])([H])[H])c([H])c1[H]

$$$$
