
     RDKit          3D

 32 33  0  0  0  0  0  0  0  0999 V2000
    4.9818    1.8166   16.8724 H   0  0  0  0  0  0  0  0  0  0  0  0
    5.4561    1.3164   17.7140 C   0  0  0  0  0  0  0  0  0  0  0  0
    6.6123    0.6813   17.4598 N   0  0  0  0  0  0  0  0  0  0  0  0
    7.2221    0.0645   18.4756 C   0  0  0  0  0  0  0  0  0  0  0  0
    8.1536   -0.4438   18.2555 H   0  0  0  0  0  0  0  0  0  0  0  0
    6.7181    0.0527   19.7860 C   0  0  0  0  0  0  0  0  0  0  0  0
    7.4121   -0.6295   20.8094 N   0  0  0  0  0  0  0  0  0  0  0  0
    8.7081   -0.9816   20.6904 N   0  0  0  0  0  0  0  0  0  0  0  0
    9.0065   -1.5719   21.8382 C   0  0  0  0  0  0  0  0  0  0  0  0
   10.0157   -1.9303   22.0026 H   0  0  0  0  0  0  0  0  0  0  0  0
    7.9067   -1.5976   22.7246 C   0  0  0  0  0  0  0  0  0  0  0  0
    7.8543   -2.1985   24.0957 C   0  0  0  0  0  0  0  0  0  0  0  0
    7.0386   -1.7237   24.6773 H   0  0  0  0  0  0  0  0  0  0  0  0
    8.7919   -1.9776   24.6278 H   0  0  0  0  0  0  0  0  0  0  0  0
    7.7305   -3.6395   23.9704 N   0  0  0  0  0  0  0  0  0  0  0  0
    6.9772   -3.8735   23.3327 H   0  0  0  0  0  0  0  0  0  0  0  0
    7.7101   -4.5042   25.1410 C   0  0  0  0  0  0  0  0  0  0  0  0
    8.5586   -4.2225   25.7931 H   0  0  0  0  0  0  0  0  0  0  0  0
    6.4220   -4.4702   25.9824 C   0  0  0  0  0  0  0  0  0  0  0  0
    5.5433   -4.7978   25.4084 H   0  0  0  0  0  0  0  0  0  0  0  0
    6.2050   -3.4776   26.3903 H   0  0  0  0  0  0  0  0  0  0  0  0
    6.5194   -5.1521   26.8353 H   0  0  0  0  0  0  0  0  0  0  0  0
    7.9638   -5.9027   24.5905 C   0  0  0  0  0  0  0  0  0  0  0  0
    7.1175   -6.1862   23.9472 H   0  0  0  0  0  0  0  0  0  0  0  0
    8.8675   -5.9014   23.9763 H   0  0  0  0  0  0  0  0  0  0  0  0
    8.0944   -6.6475   25.3822 H   0  0  0  0  0  0  0  0  0  0  0  0
    6.8969   -1.0121   22.0105 C   0  0  0  0  0  0  0  0  0  0  0  0
    5.8452   -0.8810   22.2255 H   0  0  0  0  0  0  0  0  0  0  0  0
    5.5201    0.7295   20.0508 C   0  0  0  0  0  0  0  0  0  0  0  0
    5.1243    0.8013   21.0657 H   0  0  0  0  0  0  0  0  0  0  0  0
    4.8713    1.3511   18.9843 C   0  0  0  0  0  0  0  0  0  0  0  0
    3.9268    1.8627   19.1339 H   0  0  0  0  0  0  0  0  0  0  0  0
  1  2  1  0
  2  3  2  0
  3  4  1  0
  4  5  1  0
  4  6  2  0
  6  7  1  0
  7  8  1  0
  8  9  2  0
  9 10  1  0
  9 11  1  0
 11 12  1  0
 12 13  1  0
 12 14  1  0
 12 15  1  0
 15 16  1  0
 15 17  1  0
 17 18  1  0
 17 19  1  0
 19 20  1  0
 19 21  1  0
 19 22  1  0
 17 23  1  0
 23 24  1  0
 23 25  1  0
 23 26  1  0
 11 27  2  0
 27 28  1  0
  6 29  1  0
 29 30  1  0
 29 31  2  0
 31 32  1  0
 31  2  1  0
 27  7  1  0
M  END
>  <cnnaffinity>  (1) 
-4.52633

>  <filename>  (1) 
[H]c1nc([H])c(-n2nc([H])c(C([H])([H])N([H])C([H])(C([H])([H])[H])C([H])([H])[H])c2[H])c([H])c1[H]

$$$$
