
     RDKit          3D

 27 29  0  0  0  0  0  0  0  0999 V2000
    6.3428   -0.5423   24.6933 H   0  0  0  0  0  0  0  0  0  0  0  0
    6.9824   -1.4123   24.5164 C   0  0  0  0  0  0  0  0  0  0  0  0
    7.0883   -2.3986   25.4221 C   0  0  0  0  0  0  0  0  0  0  0  0
    6.5729   -2.2669   27.1118 S   0  0  0  0  0  0  0  0  0  0  0  0
    7.0792   -3.9595   27.4506 C   0  0  0  0  0  0  0  0  0  0  0  0
    6.8708   -4.5853   28.4488 O   0  0  0  0  0  0  0  0  0  0  0  0
    7.7717   -4.4518   26.3830 N   0  0  0  0  0  0  0  0  0  0  0  0
    7.9298   -5.4454   26.3642 H   0  0  0  0  0  0  0  0  0  0  0  0
    7.5817   -3.8209   25.1821 C   0  0  0  0  0  0  0  0  0  0  0  0
    7.7520   -4.3976   24.1425 O   0  0  0  0  0  0  0  0  0  0  0  0
    7.5914   -1.3194   23.1727 C   0  0  0  0  0  0  0  0  0  0  0  0
    8.7864   -1.8777   22.9535 N   0  0  0  0  0  0  0  0  0  0  0  0
    9.1628   -1.8766   21.6831 C   0  0  0  0  0  0  0  0  0  0  0  0
   10.0963   -2.3811   21.4389 H   0  0  0  0  0  0  0  0  0  0  0  0
    8.4999   -1.3240   20.6777 N   0  0  0  0  0  0  0  0  0  0  0  0
    7.3784   -0.6906   21.0308 C   0  0  0  0  0  0  0  0  0  0  0  0
    6.6371   -0.0057   19.9724 C   0  0  0  0  0  0  0  0  0  0  0  0
    7.1861    0.0117   18.6841 C   0  0  0  0  0  0  0  0  0  0  0  0
    8.1355   -0.4814   18.4844 H   0  0  0  0  0  0  0  0  0  0  0  0
    6.6065    0.6231   17.6500 N   0  0  0  0  0  0  0  0  0  0  0  0
    5.4469    1.2566   17.8751 C   0  0  0  0  0  0  0  0  0  0  0  0
    5.0060    1.7614   17.0192 H   0  0  0  0  0  0  0  0  0  0  0  0
    4.8121    1.2929   19.1228 C   0  0  0  0  0  0  0  0  0  0  0  0
    3.8777    1.8338   19.2424 H   0  0  0  0  0  0  0  0  0  0  0  0
    5.4176    0.6507   20.1976 C   0  0  0  0  0  0  0  0  0  0  0  0
    4.9789    0.6560   21.1979 H   0  0  0  0  0  0  0  0  0  0  0  0
    6.8880   -0.6398   22.2653 N   0  0  0  0  0  0  0  0  0  0  0  0
  1  2  1  0
  2  3  2  3
  3  4  1  0
  4  5  1  0
  5  6  2  0
  5  7  1  0
  7  8  1  0
  7  9  1  0
  9 10  2  0
  2 11  1  0
 11 12  2  0
 12 13  1  0
 13 14  1  0
 13 15  2  0
 15 16  1  0
 16 17  1  0
 17 18  2  0
 18 19  1  0
 18 20  1  0
 20 21  2  0
 21 22  1  0
 21 23  1  0
 23 24  1  0
 23 25  2  0
 25 26  1  0
 16 27  2  0
  9  3  1  0
 27 11  1  0
 25 17  1  0
M  END
>  <cnnaffinity>  (1) 
-5.04979

>  <filename>  (1) 
[H]C(=C1SC(=O)N([H])C1=O)c1nc([H])nc(-c2c([H])nc([H])c([H])c2[H])n1

$$$$
