
     RDKit          3D

 46 50  0  0  0  0  0  0  0  0999 V2000
   10.9183    5.2297   24.8921 C   0  0  0  0  0  0  0  0  0  0  0  0
    9.8638    5.0570   23.8521 C   0  0  0  0  0  0  0  0  0  0  0  0
    8.8410    4.1807   23.6025 C   0  0  0  0  0  0  0  0  0  0  0  0
    8.3901    2.8917   24.2895 C   0  0  0  0  0  0  0  0  0  0  0  0
    8.3962    1.6833   23.3835 C   0  0  0  0  0  0  0  0  0  0  0  0
    7.3489    1.0307   22.9078 N   0  0  0  0  0  0  0  0  0  0  0  0
    7.9088    0.1338   22.0452 C   0  0  0  0  0  0  0  0  0  0  0  0
    7.1858   -0.7632   21.0725 C   0  0  0  0  0  0  0  0  0  0  0  0
    6.5875   -0.0521   19.8607 C   0  0  0  0  0  0  0  0  0  0  0  0
    5.4389    0.7326   20.0190 C   0  0  0  0  0  0  0  0  0  0  0  0
    4.8919    1.3721   18.9064 C   0  0  0  0  0  0  0  0  0  0  0  0
    5.5145    1.2112   17.6682 C   0  0  0  0  0  0  0  0  0  0  0  0
    6.6301    0.4850   17.4953 N   0  0  0  0  0  0  0  0  0  0  0  0
    7.1459   -0.1249   18.5709 C   0  0  0  0  0  0  0  0  0  0  0  0
    8.0614   -0.6979   18.4005 H   0  0  0  0  0  0  0  0  0  0  0  0
    5.0979    1.6822   16.7783 H   0  0  0  0  0  0  0  0  0  0  0  0
    4.0057    1.9904   18.9883 H   0  0  0  0  0  0  0  0  0  0  0  0
    4.9989    0.8427   21.0095 H   0  0  0  0  0  0  0  0  0  0  0  0
    7.9175   -1.5074   20.7448 H   0  0  0  0  0  0  0  0  0  0  0  0
    6.4008   -1.2962   21.6161 H   0  0  0  0  0  0  0  0  0  0  0  0
    9.2201    0.1644   22.0024 N   0  0  0  0  0  0  0  0  0  0  0  0
    9.5443    1.1455   22.8821 N   0  0  0  0  0  0  0  0  0  0  0  0
   10.8226    1.7840   22.7633 C   0  0  0  0  0  0  0  0  0  0  0  0
   11.8336    1.5843   23.7368 C   0  0  0  0  0  0  0  0  0  0  0  0
   13.0146    2.2998   23.6478 C   0  0  0  0  0  0  0  0  0  0  0  0
   13.1113    3.2854   22.6468 C   0  0  0  0  0  0  0  0  0  0  0  0
   14.0290    4.2622   22.4398 N   0  0  0  0  0  0  0  0  0  0  0  0
   13.7446    5.0522   21.3767 N   0  0  0  0  0  0  0  0  0  0  0  0
   12.6234    4.5516   20.8690 C   0  0  0  0  0  0  0  0  0  0  0  0
   12.1461    3.4345   21.6331 C   0  0  0  0  0  0  0  0  0  0  0  0
   11.0006    2.6045   21.6615 C   0  0  0  0  0  0  0  0  0  0  0  0
   10.2132    2.6258   20.9156 H   0  0  0  0  0  0  0  0  0  0  0  0
   12.1425    5.0133   20.0177 H   0  0  0  0  0  0  0  0  0  0  0  0
   14.8052    4.4544   23.0497 H   0  0  0  0  0  0  0  0  0  0  0  0
   13.8271    2.1418   24.3344 H   0  0  0  0  0  0  0  0  0  0  0  0
   11.6826    0.8615   24.5346 H   0  0  0  0  0  0  0  0  0  0  0  0
    9.0005    2.6759   25.1739 H   0  0  0  0  0  0  0  0  0  0  0  0
    7.3538    2.9974   24.6293 H   0  0  0  0  0  0  0  0  0  0  0  0
    8.2155    4.6517   22.4003 C   0  0  0  0  0  0  0  0  0  0  0  0
    8.8860    5.7618   22.0129 C   0  0  0  0  0  0  0  0  0  0  0  0
    9.8948    6.0151   22.8815 O   0  0  0  0  0  0  0  0  0  0  0  0
    8.8088    6.4331   21.1708 H   0  0  0  0  0  0  0  0  0  0  0  0
    7.3775    4.1934   21.8892 H   0  0  0  0  0  0  0  0  0  0  0  0
   11.7455    4.5378   24.7057 H   0  0  0  0  0  0  0  0  0  0  0  0
   11.3070    6.2492   24.8510 H   0  0  0  0  0  0  0  0  0  0  0  0
   10.5136    5.0650   25.8931 H   0  0  0  0  0  0  0  0  0  0  0  0
  1  2  1  0
  2  3  2  0
  3  4  1  0
  4  5  1  0
  5  6  2  0
  6  7  1  0
  7  8  1  0
  8  9  1  0
  9 10  2  0
 10 11  1  0
 11 12  2  0
 12 13  1  0
 13 14  2  0
 14 15  1  0
 12 16  1  0
 11 17  1  0
 10 18  1  0
  8 19  1  0
  8 20  1  0
  7 21  2  0
 21 22  1  0
 22 23  1  0
 23 24  2  0
 24 25  1  0
 25 26  2  0
 26 27  1  0
 27 28  1  0
 28 29  2  0
 29 30  1  0
 30 31  2  0
 31 32  1  0
 29 33  1  0
 27 34  1  0
 25 35  1  0
 24 36  1  0
  4 37  1  0
  4 38  1  0
  3 39  1  0
 39 40  2  0
 40 41  1  0
 40 42  1  0
 39 43  1  0
  1 44  1  0
  1 45  1  0
  1 46  1  0
 41  2  1  0
 22  5  1  0
 31 23  1  0
 14  9  1  0
 30 26  1  0
M  END
>  <cnnaffinity>  (1) 
-6.54425

>  <filename>  (1) 
[H]c1nc([H])c(C([H])([H])c2nc(C([H])([H])c3c(C([H])([H])[H])oc([H])c3[H])n(-c3c([H])c([H])c4c(c([H])nn4[H])c3[H])n2)c([H])c1[H]

$$$$
