
     RDKit          3D

 37 38  0  0  0  0  0  0  0  0999 V2000
    6.6137   -1.6397   21.8755 C   0  0  0  0  0  0  0  0  0  0  0  0
    7.3706   -0.7267   20.9463 C   0  0  0  0  0  0  0  0  0  0  0  0
    8.7335   -0.5516   21.0672 C   0  0  0  0  0  0  0  0  0  0  0  0
    9.5542   -1.1871   22.0869 C   0  0  0  0  0  0  0  0  0  0  0  0
   10.7018   -0.7707   22.1852 O   0  0  0  0  0  0  0  0  0  0  0  0
    9.0063   -2.1730   22.8377 O   0  0  0  0  0  0  0  0  0  0  0  0
    9.7933   -2.6378   23.9418 C   0  0  0  0  0  0  0  0  0  0  0  0
    8.8303   -3.0317   25.0254 C   0  0  0  0  0  0  0  0  0  0  0  0
    8.5872   -2.1675   26.1044 C   0  0  0  0  0  0  0  0  0  0  0  0
    7.6731   -2.5263   27.0912 C   0  0  0  0  0  0  0  0  0  0  0  0
    6.9705   -3.7289   27.0073 C   0  0  0  0  0  0  0  0  0  0  0  0
    7.1949   -4.5886   25.9328 C   0  0  0  0  0  0  0  0  0  0  0  0
    6.1577   -6.1945   25.8495 Br  0  0  0  0  0  0  0  0  0  0  0  0
    8.1255   -4.2506   24.9325 C   0  0  0  0  0  0  0  0  0  0  0  0
    8.3291   -5.2002   23.7763 C   0  0  0  0  0  0  0  0  0  0  0  0
    8.7988   -4.6821   22.9320 H   0  0  0  0  0  0  0  0  0  0  0  0
    7.3620   -5.5957   23.4416 H   0  0  0  0  0  0  0  0  0  0  0  0
    8.9609   -6.0424   24.0882 H   0  0  0  0  0  0  0  0  0  0  0  0
    6.2248   -4.0024   27.7521 H   0  0  0  0  0  0  0  0  0  0  0  0
    7.5141   -1.8298   27.9018 H   0  0  0  0  0  0  0  0  0  0  0  0
    9.0813   -1.2021   26.1760 H   0  0  0  0  0  0  0  0  0  0  0  0
   10.3946   -3.5007   23.6384 H   0  0  0  0  0  0  0  0  0  0  0  0
   10.4715   -1.8620   24.3081 H   0  0  0  0  0  0  0  0  0  0  0  0
    9.2346    0.1366   20.3969 H   0  0  0  0  0  0  0  0  0  0  0  0
    6.6691   -0.0133   19.8817 C   0  0  0  0  0  0  0  0  0  0  0  0
    5.4209    0.5765   20.0967 C   0  0  0  0  0  0  0  0  0  0  0  0
    4.8352    1.2605   19.0320 C   0  0  0  0  0  0  0  0  0  0  0  0
    5.4897    1.3171   17.7945 C   0  0  0  0  0  0  0  0  0  0  0  0
    6.6853    0.7419   17.5836 N   0  0  0  0  0  0  0  0  0  0  0  0
    7.2645    0.1013   18.6157 C   0  0  0  0  0  0  0  0  0  0  0  0
    8.2328   -0.3639   18.4564 H   0  0  0  0  0  0  0  0  0  0  0  0
    5.0133    1.8495   16.9775 H   0  0  0  0  0  0  0  0  0  0  0  0
    3.8823    1.7610   19.1492 H   0  0  0  0  0  0  0  0  0  0  0  0
    4.9368    0.5265   21.0735 H   0  0  0  0  0  0  0  0  0  0  0  0
    5.6119   -1.8423   21.4855 H   0  0  0  0  0  0  0  0  0  0  0  0
    6.5201   -1.1796   22.8631 H   0  0  0  0  0  0  0  0  0  0  0  0
    7.1341   -2.5965   21.9813 H   0  0  0  0  0  0  0  0  0  0  0  0
  1  2  1  0
  2  3  2  3
  3  4  1  0
  4  5  2  0
  4  6  1  0
  6  7  1  0
  7  8  1  0
  8  9  2  0
  9 10  1  0
 10 11  2  0
 11 12  1  0
 12 13  1  0
 12 14  2  0
 14 15  1  0
 15 16  1  0
 15 17  1  0
 15 18  1  0
 11 19  1  0
 10 20  1  0
  9 21  1  0
  7 22  1  0
  7 23  1  0
  3 24  1  0
  2 25  1  0
 25 26  2  0
 26 27  1  0
 27 28  2  0
 28 29  1  0
 29 30  2  0
 30 31  1  0
 28 32  1  0
 27 33  1  0
 26 34  1  0
  1 35  1  0
  1 36  1  0
  1 37  1  0
 14  8  1  0
 30 25  1  0
M  END
>  <cnnaffinity>  (1) 
-5.06513

>  <filename>  (1) 
[H]C(C(=O)OC([H])([H])c1c([H])c([H])c([H])c(Br)c1C([H])([H])[H])=C(c1c([H])nc([H])c([H])c1[H])C([H])([H])[H]

$$$$
