
     RDKit          3D

 29 31  0  0  0  0  0  0  0  0999 V2000
    5.7634   -1.7641   21.7552 H   0  0  0  0  0  0  0  0  0  0  0  0
    6.8163   -1.5336   21.8832 C   0  0  0  0  0  0  0  0  0  0  0  0
    7.4568   -2.1584   22.8880 N   0  0  0  0  0  0  0  0  0  0  0  0
    8.7743   -1.9002   22.9866 C   0  0  0  0  0  0  0  0  0  0  0  0
    9.2997   -2.3921   23.8018 H   0  0  0  0  0  0  0  0  0  0  0  0
    9.4576   -1.0495   22.0716 C   0  0  0  0  0  0  0  0  0  0  0  0
   10.9349   -0.8606   22.1187 C   0  0  0  0  0  0  0  0  0  0  0  0
   11.7696   -1.9946   22.0924 C   0  0  0  0  0  0  0  0  0  0  0  0
   11.3229   -2.9806   22.0390 H   0  0  0  0  0  0  0  0  0  0  0  0
   13.1568   -1.8677   22.1232 C   0  0  0  0  0  0  0  0  0  0  0  0
   13.7841   -2.7502   22.0736 H   0  0  0  0  0  0  0  0  0  0  0  0
   13.7417   -0.6159   22.3241 C   0  0  0  0  0  0  0  0  0  0  0  0
   14.8131   -0.5432   22.4790 H   0  0  0  0  0  0  0  0  0  0  0  0
   12.9383    0.5217   22.3652 C   0  0  0  0  0  0  0  0  0  0  0  0
   13.3589    1.5146   22.5054 H   0  0  0  0  0  0  0  0  0  0  0  0
   11.5549    0.4029   22.1872 C   0  0  0  0  0  0  0  0  0  0  0  0
   10.6591    1.8845   22.0329 Cl  0  0  0  0  0  0  0  0  0  0  0  0
    8.8052   -0.4378   21.0695 N   0  0  0  0  0  0  0  0  0  0  0  0
    7.4825   -0.6653   20.9821 C   0  0  0  0  0  0  0  0  0  0  0  0
    6.7811    0.0316   19.8921 C   0  0  0  0  0  0  0  0  0  0  0  0
    7.3610    0.0888   18.6142 C   0  0  0  0  0  0  0  0  0  0  0  0
    8.3335   -0.3697   18.4385 H   0  0  0  0  0  0  0  0  0  0  0  0
    6.7626    0.6626   17.5665 N   0  0  0  0  0  0  0  0  0  0  0  0
    5.5748    1.2496   17.7809 C   0  0  0  0  0  0  0  0  0  0  0  0
    5.1129    1.7131   16.9138 H   0  0  0  0  0  0  0  0  0  0  0  0
    4.9346    1.2770   19.0248 C   0  0  0  0  0  0  0  0  0  0  0  0
    3.9852    1.7843   19.1349 H   0  0  0  0  0  0  0  0  0  0  0  0
    5.5448    0.6464   20.1042 C   0  0  0  0  0  0  0  0  0  0  0  0
    5.0895    0.6447   21.0975 H   0  0  0  0  0  0  0  0  0  0  0  0
  1  2  1  0
  2  3  2  0
  3  4  1  0
  4  5  1  0
  4  6  2  0
  6  7  1  0
  7  8  2  0
  8  9  1  0
  8 10  1  0
 10 11  1  0
 10 12  2  0
 12 13  1  0
 12 14  1  0
 14 15  1  0
 14 16  2  0
 16 17  1  0
  6 18  1  0
 18 19  2  0
 19 20  1  0
 20 21  2  0
 21 22  1  0
 21 23  1  0
 23 24  2  0
 24 25  1  0
 24 26  1  0
 26 27  1  0
 26 28  2  0
 28 29  1  0
 19  2  1  0
 28 20  1  0
 16  7  1  0
M  END
>  <cnnaffinity>  (1) 
-5.75154

>  <filename>  (1) 
[H]c1nc([H])c(-c2c([H])c([H])c([H])c([H])c2Cl)nc1-c1c([H])nc([H])c([H])c1[H]

$$$$
