
     RDKit          3D

 32 35  0  0  0  0  0  0  0  0999 V2000
    4.9219    1.7905   17.0068 H   0  0  0  0  0  0  0  0  0  0  0  0
    5.4021    1.2847   17.8407 C   0  0  0  0  0  0  0  0  0  0  0  0
    6.5592    0.6639   17.5682 N   0  0  0  0  0  0  0  0  0  0  0  0
    7.2015    0.0559   18.5741 C   0  0  0  0  0  0  0  0  0  0  0  0
    8.1516   -0.4128   18.3334 H   0  0  0  0  0  0  0  0  0  0  0  0
    6.6995    0.0213   19.8909 C   0  0  0  0  0  0  0  0  0  0  0  0
    7.2679   -0.6833   20.9571 O   0  0  0  0  0  0  0  0  0  0  0  0
    8.5848   -0.8090   21.1045 C   0  0  0  0  0  0  0  0  0  0  0  0
    9.5222   -0.1376   20.4864 N   0  0  0  0  0  0  0  0  0  0  0  0
   10.6875   -0.5988   20.9915 N   0  0  0  0  0  0  0  0  0  0  0  0
   10.4994   -1.5076   21.8625 N   0  0  0  0  0  0  0  0  0  0  0  0
    9.1459   -1.6732   21.9691 N   0  0  0  0  0  0  0  0  0  0  0  0
    8.5572   -2.6124   22.8392 C   0  0  0  0  0  0  0  0  0  0  0  0
    7.2552   -2.6817   22.8247 N   0  0  0  0  0  0  0  0  0  0  0  0
    6.6679   -3.5730   23.6751 C   0  0  0  0  0  0  0  0  0  0  0  0
    5.2476   -3.6507   23.6708 C   0  0  0  0  0  0  0  0  0  0  0  0
    4.7296   -2.9975   22.9811 H   0  0  0  0  0  0  0  0  0  0  0  0
    4.5964   -4.5301   24.5097 C   0  0  0  0  0  0  0  0  0  0  0  0
    3.5112   -4.5825   24.5141 H   0  0  0  0  0  0  0  0  0  0  0  0
    5.3399   -5.3761   25.3777 C   0  0  0  0  0  0  0  0  0  0  0  0
    4.8098   -6.0645   26.0294 H   0  0  0  0  0  0  0  0  0  0  0  0
    6.7135   -5.3283   25.3982 C   0  0  0  0  0  0  0  0  0  0  0  0
    7.2915   -5.9717   26.0581 H   0  0  0  0  0  0  0  0  0  0  0  0
    7.4092   -4.4250   24.5489 C   0  0  0  0  0  0  0  0  0  0  0  0
    8.8346   -4.3138   24.5113 C   0  0  0  0  0  0  0  0  0  0  0  0
    9.4323   -4.9470   25.1637 H   0  0  0  0  0  0  0  0  0  0  0  0
    9.4125   -3.4120   23.6578 C   0  0  0  0  0  0  0  0  0  0  0  0
   10.4862   -3.2742   23.5756 H   0  0  0  0  0  0  0  0  0  0  0  0
    5.4814    0.6467   20.1653 C   0  0  0  0  0  0  0  0  0  0  0  0
    5.0784    0.5956   21.1758 H   0  0  0  0  0  0  0  0  0  0  0  0
    4.8271    1.3026   19.1166 C   0  0  0  0  0  0  0  0  0  0  0  0
    3.8877    1.8233   19.2753 H   0  0  0  0  0  0  0  0  0  0  0  0
  1  2  1  0
  2  3  2  0
  3  4  1  0
  4  5  1  0
  4  6  2  0
  6  7  1  0
  7  8  1  0
  8  9  2  0
  9 10  1  0
 10 11  2  0
 11 12  1  0
 12 13  1  0
 13 14  2  0
 14 15  1  0
 15 16  2  0
 16 17  1  0
 16 18  1  0
 18 19  1  0
 18 20  2  0
 20 21  1  0
 20 22  1  0
 22 23  1  0
 22 24  2  0
 24 25  1  0
 25 26  1  0
 25 27  2  0
 27 28  1  0
  6 29  1  0
 29 30  1  0
 29 31  2  0
 31 32  1  0
 31  2  1  0
 12  8  1  0
 27 13  1  0
 24 15  1  0
M  END
>  <cnnaffinity>  (1) 
-5.46579

>  <filename>  (1) 
[H]c1nc([H])c(Oc2nnnn2-c2nc3c([H])c([H])c([H])c([H])c3c([H])c2[H])c([H])c1[H]

$$$$
