
     RDKit          3D

 32 34  0  0  0  0  0  0  0  0999 V2000
    4.9432    1.7767   16.9940 H   0  0  0  0  0  0  0  0  0  0  0  0
    5.4103    1.2852   17.8443 C   0  0  0  0  0  0  0  0  0  0  0  0
    6.5725    0.6585   17.6075 N   0  0  0  0  0  0  0  0  0  0  0  0
    7.1718    0.0586   18.6391 C   0  0  0  0  0  0  0  0  0  0  0  0
    8.1086   -0.4409   18.4024 H   0  0  0  0  0  0  0  0  0  0  0  0
    6.6556    0.0579   19.9423 C   0  0  0  0  0  0  0  0  0  0  0  0
    7.3961   -0.6724   20.9748 C   0  0  0  0  0  0  0  0  0  0  0  0
    8.0613   -1.7221   20.7043 N   0  0  0  0  0  0  0  0  0  0  0  0
    8.5643   -2.2925   21.9478 C   0  0  0  0  0  0  0  0  0  0  0  0
    8.2152   -3.3236   22.0744 H   0  0  0  0  0  0  0  0  0  0  0  0
    9.6558   -2.3450   21.8955 H   0  0  0  0  0  0  0  0  0  0  0  0
    8.0726   -1.3718   23.0894 C   0  0  0  0  0  0  0  0  0  0  0  0
    7.4263   -1.8846   23.8106 H   0  0  0  0  0  0  0  0  0  0  0  0
    8.9037   -0.9342   23.6576 H   0  0  0  0  0  0  0  0  0  0  0  0
    7.3334   -0.3394   22.3395 N   0  0  0  0  0  0  0  0  0  0  0  0
    7.1963    0.9932   22.7615 C   0  0  0  0  0  0  0  0  0  0  0  0
    7.5103    1.8926   22.0117 O   0  0  0  0  0  0  0  0  0  0  0  0
    6.6644    1.2193   24.1717 C   0  0  0  0  0  0  0  0  0  0  0  0
    6.9804    2.4069   24.8641 C   0  0  0  0  0  0  0  0  0  0  0  0
    7.6148    3.1525   24.3934 H   0  0  0  0  0  0  0  0  0  0  0  0
    6.4729    2.6619   26.1405 C   0  0  0  0  0  0  0  0  0  0  0  0
    6.7175    3.5751   26.6753 H   0  0  0  0  0  0  0  0  0  0  0  0
    5.6219    1.7307   26.7419 C   0  0  0  0  0  0  0  0  0  0  0  0
    4.9937    2.0351   28.3348 Cl  0  0  0  0  0  0  0  0  0  0  0  0
    5.2724    0.5518   26.0812 C   0  0  0  0  0  0  0  0  0  0  0  0
    4.6075   -0.1618   26.5620 H   0  0  0  0  0  0  0  0  0  0  0  0
    5.8042    0.3044   24.8140 C   0  0  0  0  0  0  0  0  0  0  0  0
    5.5534   -0.6311   24.3336 H   0  0  0  0  0  0  0  0  0  0  0  0
    5.4157    0.6697   20.1683 C   0  0  0  0  0  0  0  0  0  0  0  0
    4.9550    0.6517   21.1567 H   0  0  0  0  0  0  0  0  0  0  0  0
    4.7969    1.3075   19.0999 C   0  0  0  0  0  0  0  0  0  0  0  0
    3.8688    1.8435   19.2451 H   0  0  0  0  0  0  0  0  0  0  0  0
  1  2  1  0
  2  3  2  0
  3  4  1  0
  4  5  1  0
  4  6  2  0
  6  7  1  0
  7  8  2  0
  8  9  1  0
  9 10  1  0
  9 11  1  0
  9 12  1  0
 12 13  1  0
 12 14  1  0
 12 15  1  0
 15 16  1  0
 16 17  2  0
 16 18  1  0
 18 19  2  0
 19 20  1  0
 19 21  1  0
 21 22  1  0
 21 23  2  0
 23 24  1  0
 23 25  1  0
 25 26  1  0
 25 27  2  0
 27 28  1  0
  6 29  1  0
 29 30  1  0
 29 31  2  0
 31 32  1  0
 31  2  1  0
 15  7  1  0
 27 18  1  0
M  END
>  <cnnaffinity>  (1) 
-4.68297

>  <filename>  (1) 
[H]c1nc([H])c(C2=NC([H])([H])C([H])([H])N2C(=O)c2c([H])c([H])c(Cl)c([H])c2[H])c([H])c1[H]

$$$$
