
     RDKit          3D

 34 35  0  0  0  0  0  0  0  0999 V2000
    5.0788    1.6943   16.9533 H   0  0  0  0  0  0  0  0  0  0  0  0
    5.5260    1.2949   17.8622 C   0  0  0  0  0  0  0  0  0  0  0  0
    6.7343    0.7319   17.7221 N   0  0  0  0  0  0  0  0  0  0  0  0
    7.3129    0.2477   18.8267 C   0  0  0  0  0  0  0  0  0  0  0  0
    8.3049   -0.1725   18.6788 H   0  0  0  0  0  0  0  0  0  0  0  0
    6.7359    0.2514   20.1118 C   0  0  0  0  0  0  0  0  0  0  0  0
    7.4710   -0.5224   21.2047 C   0  0  0  0  0  0  0  0  0  0  0  0
    8.8623   -0.0547   21.1625 N   0  0  0  0  0  0  0  0  0  0  0  0
    8.9241    0.9493   21.1273 H   0  0  0  0  0  0  0  0  0  0  0  0
    9.8318   -0.6606   21.9060 C   0  0  0  0  0  0  0  0  0  0  0  0
    9.7154   -1.7990   22.3385 O   0  0  0  0  0  0  0  0  0  0  0  0
   11.1153    0.1036   22.1184 C   0  0  0  0  0  0  0  0  0  0  0  0
   12.3097   -0.6480   22.0740 C   0  0  0  0  0  0  0  0  0  0  0  0
   12.2460   -1.6987   21.7954 H   0  0  0  0  0  0  0  0  0  0  0  0
   13.5425   -0.0799   22.3880 C   0  0  0  0  0  0  0  0  0  0  0  0
   14.4386   -0.6973   22.3611 H   0  0  0  0  0  0  0  0  0  0  0  0
   13.6036    1.2711   22.7483 C   0  0  0  0  0  0  0  0  0  0  0  0
   14.5594    1.7210   22.9932 H   0  0  0  0  0  0  0  0  0  0  0  0
   12.4425    2.0476   22.7917 C   0  0  0  0  0  0  0  0  0  0  0  0
   12.4687    3.0996   23.0654 H   0  0  0  0  0  0  0  0  0  0  0  0
   11.2116    1.4615   22.4778 C   0  0  0  0  0  0  0  0  0  0  0  0
    9.8149    2.5053   22.6260 Cl  0  0  0  0  0  0  0  0  0  0  0  0
    7.4127   -2.0239   20.8663 C   0  0  0  0  0  0  0  0  0  0  0  0
    8.2908   -2.2420   20.2677 H   0  0  0  0  0  0  0  0  0  0  0  0
    7.4812   -2.6593   21.7479 H   0  0  0  0  0  0  0  0  0  0  0  0
    6.5091   -2.2961   20.3141 H   0  0  0  0  0  0  0  0  0  0  0  0
    6.9438   -0.2595   22.6183 C   0  0  0  0  0  0  0  0  0  0  0  0
    7.6467   -0.6867   23.3429 H   0  0  0  0  0  0  0  0  0  0  0  0
    5.9960   -0.7663   22.7494 H   0  0  0  0  0  0  0  0  0  0  0  0
    6.8337    0.8134   22.8068 H   0  0  0  0  0  0  0  0  0  0  0  0
    5.4825    0.8684   20.2360 C   0  0  0  0  0  0  0  0  0  0  0  0
    4.9830    0.9538   21.2044 H   0  0  0  0  0  0  0  0  0  0  0  0
    4.8705    1.3943   19.0937 C   0  0  0  0  0  0  0  0  0  0  0  0
    3.8960    1.8695   19.1461 H   0  0  0  0  0  0  0  0  0  0  0  0
  1  2  1  0
  2  3  2  0
  3  4  1  0
  4  5  1  0
  4  6  2  0
  6  7  1  0
  7  8  1  0
  8  9  1  0
  8 10  1  0
 10 11  2  0
 10 12  1  0
 12 13  2  0
 13 14  1  0
 13 15  1  0
 15 16  1  0
 15 17  2  0
 17 18  1  0
 17 19  1  0
 19 20  1  0
 19 21  2  0
 21 22  1  0
  7 23  1  0
 23 24  1  0
 23 25  1  0
 23 26  1  0
  7 27  1  0
 27 28  1  0
 27 29  1  0
 27 30  1  0
  6 31  1  0
 31 32  1  0
 31 33  2  0
 33 34  1  0
 33  2  1  0
 21 12  1  0
M  END
>  <cnnaffinity>  (1) 
-4.99635

>  <filename>  (1) 
[H]c1nc([H])c(C(N([H])C(=O)c2c([H])c([H])c([H])c([H])c2Cl)(C([H])([H])[H])C([H])([H])[H])c([H])c1[H]

$$$$
