
     RDKit          3D

 37 39  0  0  0  0  0  0  0  0999 V2000
    8.3320   -5.7119   23.1984 C   0  0  0  0  0  0  0  0  0  0  0  0
    7.7278   -4.4205   23.0542 O   0  0  0  0  0  0  0  0  0  0  0  0
    8.5145   -3.5511   22.2100 C   0  0  0  0  0  0  0  0  0  0  0  0
    7.9523   -2.1621   22.0070 C   0  0  0  0  0  0  0  0  0  0  0  0
    7.7595   -1.7161   20.7882 N   0  0  0  0  0  0  0  0  0  0  0  0
    7.2683   -0.4731   20.9748 N   0  0  0  0  0  0  0  0  0  0  0  0
    6.6593    0.2331   19.9264 C   0  0  0  0  0  0  0  0  0  0  0  0
    5.5141    1.0146   20.1337 C   0  0  0  0  0  0  0  0  0  0  0  0
    4.8807    1.5559   19.0095 C   0  0  0  0  0  0  0  0  0  0  0  0
    5.4030    1.3287   17.7321 C   0  0  0  0  0  0  0  0  0  0  0  0
    6.5177    0.6032   17.5292 N   0  0  0  0  0  0  0  0  0  0  0  0
    7.1231    0.0666   18.6058 C   0  0  0  0  0  0  0  0  0  0  0  0
    8.0087   -0.5441   18.4487 H   0  0  0  0  0  0  0  0  0  0  0  0
    4.9026    1.7552   16.8678 H   0  0  0  0  0  0  0  0  0  0  0  0
    3.9778    2.1509   19.1018 H   0  0  0  0  0  0  0  0  0  0  0  0
    5.0927    1.1608   21.1274 H   0  0  0  0  0  0  0  0  0  0  0  0
    7.2745   -0.1870   22.3413 C   0  0  0  0  0  0  0  0  0  0  0  0
    7.0426    1.1328   23.0229 C   0  0  0  0  0  0  0  0  0  0  0  0
    8.3656    1.5574   23.6426 C   0  0  0  0  0  0  0  0  0  0  0  0
    9.3560    2.1392   22.8363 C   0  0  0  0  0  0  0  0  0  0  0  0
    8.9347    2.6093   21.0472 Br  0  0  0  0  0  0  0  0  0  0  0  0
   10.6480    2.3639   23.3287 C   0  0  0  0  0  0  0  0  0  0  0  0
   10.9800    2.0075   24.6381 C   0  0  0  0  0  0  0  0  0  0  0  0
    9.9768    1.4809   25.4631 C   0  0  0  0  0  0  0  0  0  0  0  0
    8.6707    1.2822   24.9878 C   0  0  0  0  0  0  0  0  0  0  0  0
    7.4397    0.6922   26.0840 Cl  0  0  0  0  0  0  0  0  0  0  0  0
   10.1986    1.2009   26.4859 H   0  0  0  0  0  0  0  0  0  0  0  0
   12.0004    2.1477   24.9994 H   0  0  0  0  0  0  0  0  0  0  0  0
   11.3948    2.7978   22.6694 H   0  0  0  0  0  0  0  0  0  0  0  0
    6.2643    1.0399   23.7864 H   0  0  0  0  0  0  0  0  0  0  0  0
    6.7109    1.8636   22.2831 H   0  0  0  0  0  0  0  0  0  0  0  0
    7.6755   -1.2374   23.0052 N   0  0  0  0  0  0  0  0  0  0  0  0
    8.6199   -4.0095   21.2233 H   0  0  0  0  0  0  0  0  0  0  0  0
    9.5175   -3.4457   22.6268 H   0  0  0  0  0  0  0  0  0  0  0  0
    7.5901   -6.4390   23.5322 H   0  0  0  0  0  0  0  0  0  0  0  0
    8.7549   -6.0618   22.2497 H   0  0  0  0  0  0  0  0  0  0  0  0
    9.1356   -5.6656   23.9373 H   0  0  0  0  0  0  0  0  0  0  0  0
  1  2  1  0
  2  3  1  0
  3  4  1  0
  4  5  2  0
  5  6  1  0
  6  7  1  0
  7  8  2  0
  8  9  1  0
  9 10  2  0
 10 11  1  0
 11 12  2  0
 12 13  1  0
 10 14  1  0
  9 15  1  0
  8 16  1  0
  6 17  1  0
 17 18  1  0
 18 19  1  0
 19 20  2  0
 20 21  1  0
 20 22  1  0
 22 23  2  0
 23 24  1  0
 24 25  2  0
 25 26  1  0
 24 27  1  0
 23 28  1  0
 22 29  1  0
 18 30  1  0
 18 31  1  0
 17 32  2  0
  3 33  1  0
  3 34  1  0
  1 35  1  0
  1 36  1  0
  1 37  1  0
 32  4  1  0
 12  7  1  0
 25 19  1  0
M  END
>  <cnnaffinity>  (1) 
-5.75268

>  <filename>  (1) 
[H]c1nc([H])c(-n2nc(C([H])([H])OC([H])([H])[H])nc2C([H])([H])c2c(Cl)c([H])c([H])c([H])c2Br)c([H])c1[H]

$$$$
