
     RDKit          3D

 32 35  0  0  0  0  0  0  0  0999 V2000
    4.9657    1.7874   16.9909 H   0  0  0  0  0  0  0  0  0  0  0  0
    5.4112    1.2838   17.8467 C   0  0  0  0  0  0  0  0  0  0  0  0
    6.5715    0.6551   17.6102 N   0  0  0  0  0  0  0  0  0  0  0  0
    7.1679    0.0425   18.6351 C   0  0  0  0  0  0  0  0  0  0  0  0
    8.1182   -0.4370   18.4006 H   0  0  0  0  0  0  0  0  0  0  0  0
    6.6429    0.0045   19.9389 C   0  0  0  0  0  0  0  0  0  0  0  0
    7.3657   -0.6933   21.0136 C   0  0  0  0  0  0  0  0  0  0  0  0
    6.9055   -0.7576   22.2266 N   0  0  0  0  0  0  0  0  0  0  0  0
    7.7587   -1.4781   22.9888 N   0  0  0  0  0  0  0  0  0  0  0  0
    7.7617   -1.8717   24.3182 C   0  0  0  0  0  0  0  0  0  0  0  0
    6.6817   -1.5430   25.3128 C   0  0  1  0  0  0  0  0  0  0  0  0
    7.0525   -1.8978   26.2794 H   0  0  0  0  0  0  0  0  0  0  0  0
    6.3391   -0.0223   25.4722 C   0  0  0  0  0  0  0  0  0  0  0  0
    6.9734    0.6356   24.8712 H   0  0  0  0  0  0  0  0  0  0  0  0
    6.4853    0.2892   26.5174 H   0  0  0  0  0  0  0  0  0  0  0  0
    4.9309    0.1519   25.1041 N   0  0  0  0  0  0  0  0  0  0  0  0
    4.9321    0.1741   24.0840 H   0  0  0  0  0  0  0  0  0  0  0  0
    4.2848   -1.1172   25.4481 C   0  0  0  0  0  0  0  0  0  0  0  0
    3.3108   -1.1719   24.9383 H   0  0  0  0  0  0  0  0  0  0  0  0
    4.0940   -1.1433   26.5309 H   0  0  0  0  0  0  0  0  0  0  0  0
    5.2971   -2.2073   25.0322 C   0  0  0  0  0  0  0  0  0  0  0  0
    5.1562   -3.1465   25.5754 H   0  0  0  0  0  0  0  0  0  0  0  0
    5.2185   -2.4607   23.9693 H   0  0  0  0  0  0  0  0  0  0  0  0
    8.9268   -2.6023   24.4135 C   0  0  0  0  0  0  0  0  0  0  0  0
    9.3091   -3.0923   25.2981 H   0  0  0  0  0  0  0  0  0  0  0  0
    9.6246   -2.6797   23.2288 N   0  0  0  0  0  0  0  0  0  0  0  0
    8.8814   -1.9845   22.4076 C   0  0  0  0  0  0  0  0  0  0  0  0
    8.9212   -1.5174   20.7401 S   0  0  0  0  0  0  0  0  0  0  0  0
    5.4165    0.6612   20.1673 C   0  0  0  0  0  0  0  0  0  0  0  0
    4.9572    0.6715   21.1568 H   0  0  0  0  0  0  0  0  0  0  0  0
    4.7951    1.3113   19.1022 C   0  0  0  0  0  0  0  0  0  0  0  0
    3.8614    1.8509   19.2264 H   0  0  0  0  0  0  0  0  0  0  0  0
  1  2  1  0
  2  3  2  0
  3  4  1  0
  4  5  1  0
  4  6  2  0
  6  7  1  0
  7  8  2  0
  8  9  1  0
  9 10  1  0
 10 11  1  0
 11 12  1  1
 11 13  1  0
 13 14  1  0
 13 15  1  0
 13 16  1  0
 16 17  1  0
 16 18  1  0
 18 19  1  0
 18 20  1  0
 18 21  1  0
 21 22  1  0
 21 23  1  0
 10 24  2  0
 24 25  1  0
 24 26  1  0
 26 27  2  0
 27 28  1  0
  6 29  1  0
 29 30  1  0
 29 31  2  0
 31 32  1  0
 31  2  1  0
 28  7  1  0
 27  9  1  0
 21 11  1  0
M  END
>  <cnnaffinity>  (1) 
-5.0552

>  <filename>  (1) 
[H]c1nc([H])c(-c2nn3c([C@@]4([H])C([H])([H])N([H])C([H])([H])C4([H])[H])c([H])nc3s2)c([H])c1[H]

$$$$
