
     RDKit          3D

 27 29  0  0  0  0  0  0  0  0999 V2000
    5.6165   -2.2006   21.4786 O   0  0  0  0  0  0  0  0  0  0  0  0
    6.7173   -1.7324   21.6902 C   0  0  0  0  0  0  0  0  0  0  0  0
    7.2955   -0.7289   20.9530 N   0  0  0  0  0  0  0  0  0  0  0  0
    6.6672   -0.0114   19.8985 C   0  0  0  0  0  0  0  0  0  0  0  0
    5.4515    0.6365   20.1386 C   0  0  0  0  0  0  0  0  0  0  0  0
    4.8338    1.3098   19.0774 C   0  0  0  0  0  0  0  0  0  0  0  0
    5.4517    1.3105   17.8218 C   0  0  0  0  0  0  0  0  0  0  0  0
    6.6264    0.7033   17.5803 N   0  0  0  0  0  0  0  0  0  0  0  0
    7.2174    0.0697   18.6018 C   0  0  0  0  0  0  0  0  0  0  0  0
    8.1698   -0.4162   18.3941 H   0  0  0  0  0  0  0  0  0  0  0  0
    4.9861    1.8002   16.9681 H   0  0  0  0  0  0  0  0  0  0  0  0
    3.8923    1.8332   19.2130 H   0  0  0  0  0  0  0  0  0  0  0  0
    5.0287    0.6087   21.1415 H   0  0  0  0  0  0  0  0  0  0  0  0
    8.2554   -0.5249   21.1765 H   0  0  0  0  0  0  0  0  0  0  0  0
    7.6131   -2.2098   22.7862 C   0  0  0  0  0  0  0  0  0  0  0  0
    8.9330   -2.5442   22.7129 C   0  0  0  0  0  0  0  0  0  0  0  0
    9.9340   -2.3664   21.3131 Cl  0  0  0  0  0  0  0  0  0  0  0  0
    9.4491   -3.1752   23.8819 C   0  0  0  0  0  0  0  0  0  0  0  0
   10.6923   -3.7821   24.1299 C   0  0  0  0  0  0  0  0  0  0  0  0
   10.8409   -4.4789   25.3189 C   0  0  0  0  0  0  0  0  0  0  0  0
    9.7818   -4.4926   26.2554 C   0  0  0  0  0  0  0  0  0  0  0  0
    8.6156   -3.8754   26.0626 N   0  0  0  0  0  0  0  0  0  0  0  0
    8.4575   -3.2578   24.8846 C   0  0  0  0  0  0  0  0  0  0  0  0
    6.9492   -2.5352   24.3661 S   0  0  0  0  0  0  0  0  0  0  0  0
    9.8903   -5.0288   27.2017 H   0  0  0  0  0  0  0  0  0  0  0  0
   11.7540   -5.0152   25.5387 H   0  0  0  0  0  0  0  0  0  0  0  0
   11.4910   -3.7236   23.3926 H   0  0  0  0  0  0  0  0  0  0  0  0
  1  2  2  0
  2  3  1  0
  3  4  1  0
  4  5  2  0
  5  6  1  0
  6  7  2  0
  7  8  1  0
  8  9  2  0
  9 10  1  0
  7 11  1  0
  6 12  1  0
  5 13  1  0
  3 14  1  0
  2 15  1  0
 15 16  2  0
 16 17  1  0
 16 18  1  0
 18 19  2  0
 19 20  1  0
 20 21  2  0
 21 22  1  0
 22 23  2  0
 23 24  1  0
 21 25  1  0
 20 26  1  0
 19 27  1  0
  9  4  1  0
 24 15  1  0
 23 18  1  0
M  END
>  <cnnaffinity>  (1) 
-5.27227

>  <filename>  (1) 
[H]c1nc([H])c(N([H])C(=O)c2sc3nc([H])c([H])c([H])c3c2Cl)c([H])c1[H]

$$$$
