
     RDKit          3D

 37 40  0  0  0  0  0  0  0  0999 V2000
    4.8325    1.2831   19.1079 C   0  0  0  0  0  0  0  0  0  0  0  0
    5.4261    1.2834   17.8430 C   0  0  0  0  0  0  0  0  0  0  0  0
    6.5965    0.6769   17.5763 N   0  0  0  0  0  0  0  0  0  0  0  0
    7.2115    0.0517   18.5893 C   0  0  0  0  0  0  0  0  0  0  0  0
    6.6923   -0.0336   19.9048 C   0  0  0  0  0  0  0  0  0  0  0  0
    7.3814   -0.6996   20.9537 N   0  0  0  0  0  0  0  0  0  0  0  0
    6.8423   -1.5997   21.8509 C   0  0  0  0  0  0  0  0  0  0  0  0
    5.8163   -2.3918   21.7016 N   0  0  0  0  0  0  0  0  0  0  0  0
    5.6347   -3.0572   22.9015 N   0  0  0  0  0  0  0  0  0  0  0  0
    6.5684   -2.6501   23.7045 C   0  0  0  0  0  0  0  0  0  0  0  0
    7.4109   -1.7521   23.0971 N   0  0  0  0  0  0  0  0  0  0  0  0
    8.6813   -1.2330   23.6195 C   0  0  0  0  0  0  0  0  0  0  0  0
    8.6338    0.2135   24.0823 C   0  0  0  0  0  0  0  0  0  0  0  0
    8.1111    0.5462   25.3715 C   0  0  0  0  0  0  0  0  0  0  0  0
    8.0206    1.8490   25.7976 C   0  0  0  0  0  0  0  0  0  0  0  0
    8.4656    2.9167   24.9579 C   0  0  0  0  0  0  0  0  0  0  0  0
    8.3808    4.3044   25.2964 C   0  0  0  0  0  0  0  0  0  0  0  0
    8.7754    5.2888   24.5127 N   0  0  0  0  0  0  0  0  0  0  0  0
    9.2958    4.9555   23.2940 C   0  0  0  0  0  0  0  0  0  0  0  0
    9.4343    3.6648   22.8534 C   0  0  0  0  0  0  0  0  0  0  0  0
    9.0102    2.5960   23.6823 C   0  0  0  0  0  0  0  0  0  0  0  0
    9.0872    1.2370   23.2722 C   0  0  0  0  0  0  0  0  0  0  0  0
    9.5168    1.0348   22.2951 H   0  0  0  0  0  0  0  0  0  0  0  0
    9.8457    3.4439   21.8795 H   0  0  0  0  0  0  0  0  0  0  0  0
    9.6066    5.7906   22.6723 H   0  0  0  0  0  0  0  0  0  0  0  0
    7.9596    4.5864   26.2630 H   0  0  0  0  0  0  0  0  0  0  0  0
    7.5888    2.0689   26.7707 H   0  0  0  0  0  0  0  0  0  0  0  0
    7.7870   -0.2589   26.0315 H   0  0  0  0  0  0  0  0  0  0  0  0
    9.4709   -1.3577   22.8630 H   0  0  0  0  0  0  0  0  0  0  0  0
    8.9784   -1.8764   24.4561 H   0  0  0  0  0  0  0  0  0  0  0  0
    6.6528   -2.8976   24.7559 H   0  0  0  0  0  0  0  0  0  0  0  0
    8.3829   -0.7692   20.9083 H   0  0  0  0  0  0  0  0  0  0  0  0
    5.4696    0.6107   20.1604 C   0  0  0  0  0  0  0  0  0  0  0  0
    5.0629    0.5780   21.1716 H   0  0  0  0  0  0  0  0  0  0  0  0
    8.1657   -0.4255   18.3534 H   0  0  0  0  0  0  0  0  0  0  0  0
    4.9517    1.7905   17.0074 H   0  0  0  0  0  0  0  0  0  0  0  0
    3.8950    1.8088   19.2574 H   0  0  0  0  0  0  0  0  0  0  0  0
  1  2  2  0
  2  3  1  0
  3  4  2  0
  4  5  1  0
  5  6  1  0
  6  7  1  0
  7  8  2  0
  8  9  1  0
  9 10  2  0
 10 11  1  0
 11 12  1  0
 12 13  1  0
 13 14  2  0
 14 15  1  0
 15 16  2  0
 16 17  1  0
 17 18  2  0
 18 19  1  0
 19 20  2  0
 20 21  1  0
 21 22  2  0
 22 23  1  0
 20 24  1  0
 19 25  1  0
 17 26  1  0
 15 27  1  0
 14 28  1  0
 12 29  1  0
 12 30  1  0
 10 31  1  0
  6 32  1  0
  5 33  2  0
 33 34  1  0
  4 35  1  0
  2 36  1  0
  1 37  1  0
 33  1  1  0
 11  7  1  0
 22 13  1  0
 21 16  1  0
M  END
>  <cnnaffinity>  (1) 
-5.58088

>  <filename>  (1) 
[H]c1nc([H])c(N([H])c2nnc([H])n2C([H])([H])c2c([H])c([H])c3c([H])nc([H])c([H])c3c2[H])c([H])c1[H]

$$$$
