
     RDKit          3D

 30 32  0  0  0  0  0  0  0  0999 V2000
   10.1976   -1.9624   24.6129 H   0  0  0  0  0  0  0  0  0  0  0  0
    9.5106   -2.6222   24.0700 C   0  0  0  0  0  0  0  0  0  0  0  0
    9.4999   -3.9294   24.3906 C   0  0  0  0  0  0  0  0  0  0  0  0
   10.3134   -4.6622   25.7838 S   0  0  0  0  0  0  0  0  0  0  0  0
    9.6697   -6.2918   25.3533 C   0  0  0  0  0  0  0  0  0  0  0  0
    9.7646   -7.3168   25.9631 O   0  0  0  0  0  0  0  0  0  0  0  0
    8.9771   -6.1956   24.1816 N   0  0  0  0  0  0  0  0  0  0  0  0
    8.6062   -7.0270   23.7692 H   0  0  0  0  0  0  0  0  0  0  0  0
    8.8670   -4.9917   23.5560 C   0  0  0  0  0  0  0  0  0  0  0  0
    8.3712   -4.8826   22.4598 O   0  0  0  0  0  0  0  0  0  0  0  0
    8.7071   -1.9557   23.0192 C   0  0  0  0  0  0  0  0  0  0  0  0
    9.2829   -0.8447   22.3066 C   0  0  0  0  0  0  0  0  0  0  0  0
   10.2839   -0.5049   22.5470 H   0  0  0  0  0  0  0  0  0  0  0  0
    8.6132   -0.2583   21.2823 C   0  0  0  0  0  0  0  0  0  0  0  0
    9.0237    0.5677   20.7052 H   0  0  0  0  0  0  0  0  0  0  0  0
    7.3523   -0.6829   20.8914 N   0  0  0  0  0  0  0  0  0  0  0  0
    6.6670    0.0172   19.8263 C   0  0  0  0  0  0  0  0  0  0  0  0
    7.1865    0.0912   18.5179 C   0  0  0  0  0  0  0  0  0  0  0  0
    8.1215   -0.4124   18.2786 H   0  0  0  0  0  0  0  0  0  0  0  0
    6.5788    0.7302   17.5086 N   0  0  0  0  0  0  0  0  0  0  0  0
    5.4153    1.3465   17.7727 C   0  0  0  0  0  0  0  0  0  0  0  0
    4.9440    1.8672   16.9402 H   0  0  0  0  0  0  0  0  0  0  0  0
    4.8162    1.3342   19.0367 C   0  0  0  0  0  0  0  0  0  0  0  0
    3.8792    1.8572   19.1919 H   0  0  0  0  0  0  0  0  0  0  0  0
    5.4469    0.6526   20.0823 C   0  0  0  0  0  0  0  0  0  0  0  0
    5.0174    0.6065   21.0827 H   0  0  0  0  0  0  0  0  0  0  0  0
    6.6889   -1.7538   21.5864 C   0  0  0  0  0  0  0  0  0  0  0  0
    5.5970   -2.1693   21.2328 O   0  0  0  0  0  0  0  0  0  0  0  0
    7.4259   -2.3217   22.6932 C   0  0  0  0  0  0  0  0  0  0  0  0
    6.8979   -3.1253   23.1690 H   0  0  0  0  0  0  0  0  0  0  0  0
  1  2  1  0
  2  3  2  3
  3  4  1  0
  4  5  1  0
  5  6  2  0
  5  7  1  0
  7  8  1  0
  7  9  1  0
  9 10  2  0
  2 11  1  0
 11 12  1  0
 12 13  1  0
 12 14  2  0
 14 15  1  0
 14 16  1  0
 16 17  1  0
 17 18  2  0
 18 19  1  0
 18 20  1  0
 20 21  2  0
 21 22  1  0
 21 23  1  0
 23 24  1  0
 23 25  2  0
 25 26  1  0
 16 27  1  0
 27 28  2  0
 27 29  1  0
 29 30  1  0
  9  3  1  0
 29 11  2  0
 25 17  1  0
M  END
>  <cnnaffinity>  (1) 
-5.48529

>  <filename>  (1) 
[H]C(=C1SC(=O)N([H])C1=O)c1c([H])c([H])n(-c2c([H])nc([H])c([H])c2[H])c(=O)c1[H]

$$$$
