
     RDKit          3D

 38 41  0  0  0  0  0  0  0  0999 V2000
   11.0033   -0.3697   23.6547 C   0  0  0  0  0  0  0  0  0  0  0  0
   11.2242   -1.2217   22.4076 C   0  0  0  0  0  0  0  0  0  0  0  0
   10.1238   -2.2312   22.0755 C   0  0  0  0  0  0  0  0  0  0  0  0
    8.7973   -1.6551   21.8703 N   0  0  0  0  0  0  0  0  0  0  0  0
    8.4993   -1.1863   20.6387 N   0  0  0  0  0  0  0  0  0  0  0  0
    7.3082   -0.6478   20.8009 C   0  0  0  0  0  0  0  0  0  0  0  0
    6.5938    0.0401   19.7320 C   0  0  0  0  0  0  0  0  0  0  0  0
    5.3823    0.7067   19.9620 C   0  0  0  0  0  0  0  0  0  0  0  0
    4.7903    1.3722   18.8933 C   0  0  0  0  0  0  0  0  0  0  0  0
    5.4316    1.3483   17.6500 C   0  0  0  0  0  0  0  0  0  0  0  0
    6.5822    0.7008   17.4192 N   0  0  0  0  0  0  0  0  0  0  0  0
    7.1506    0.0596   18.4445 C   0  0  0  0  0  0  0  0  0  0  0  0
    8.0846   -0.4595   18.2276 H   0  0  0  0  0  0  0  0  0  0  0  0
    5.0033    1.8751   16.8024 H   0  0  0  0  0  0  0  0  0  0  0  0
    3.8614    1.9148   19.0137 H   0  0  0  0  0  0  0  0  0  0  0  0
    4.9349    0.6994   20.9585 H   0  0  0  0  0  0  0  0  0  0  0  0
    6.8227   -0.7296   22.0618 N   0  0  0  0  0  0  0  0  0  0  0  0
    7.7745   -1.3713   22.7121 C   0  0  0  0  0  0  0  0  0  0  0  0
    7.7868   -1.7574   24.1346 C   0  0  0  0  0  0  0  0  0  0  0  0
    7.9574   -3.0869   24.5307 C   0  0  0  0  0  0  0  0  0  0  0  0
    8.1552   -3.4272   25.8831 C   0  0  0  0  0  0  0  0  0  0  0  0
    8.1494   -2.4652   26.8895 C   0  0  0  0  0  0  0  0  0  0  0  0
    7.8865   -1.1519   26.4911 C   0  0  0  0  0  0  0  0  0  0  0  0
    7.6874   -0.7911   25.1612 C   0  0  0  0  0  0  0  0  0  0  0  0
    7.4351    0.6132   25.2573 C   0  0  0  0  0  0  0  0  0  0  0  0
    7.4916    1.0379   26.4861 N   0  0  0  0  0  0  0  0  0  0  0  0
    7.7779   -0.0661   27.2823 O   0  0  0  0  0  0  0  0  0  0  0  0
    7.2071    1.2976   24.4535 H   0  0  0  0  0  0  0  0  0  0  0  0
    8.3245   -2.7105   27.9230 H   0  0  0  0  0  0  0  0  0  0  0  0
    8.3230   -4.4672   26.1433 H   0  0  0  0  0  0  0  0  0  0  0  0
    7.9315   -3.8666   23.7749 H   0  0  0  0  0  0  0  0  0  0  0  0
   10.3545   -2.6869   21.1136 H   0  0  0  0  0  0  0  0  0  0  0  0
   10.0615   -3.0036   22.8467 H   0  0  0  0  0  0  0  0  0  0  0  0
   12.1544   -1.7955   22.5086 H   0  0  0  0  0  0  0  0  0  0  0  0
   11.3615   -0.5718   21.5368 H   0  0  0  0  0  0  0  0  0  0  0  0
   10.8227   -0.9724   24.5522 H   0  0  0  0  0  0  0  0  0  0  0  0
   11.8950    0.2412   23.8315 H   0  0  0  0  0  0  0  0  0  0  0  0
   10.1502    0.3093   23.5501 H   0  0  0  0  0  0  0  0  0  0  0  0
  1  2  1  0
  2  3  1  0
  3  4  1  0
  4  5  1  0
  5  6  2  0
  6  7  1  0
  7  8  2  0
  8  9  1  0
  9 10  2  0
 10 11  1  0
 11 12  2  0
 12 13  1  0
 10 14  1  0
  9 15  1  0
  8 16  1  0
  6 17  1  0
 17 18  2  0
 18 19  1  0
 19 20  2  0
 20 21  1  0
 21 22  2  0
 22 23  1  0
 23 24  2  0
 24 25  1  0
 25 26  2  0
 26 27  1  0
 25 28  1  0
 22 29  1  0
 21 30  1  0
 20 31  1  0
  3 32  1  0
  3 33  1  0
  2 34  1  0
  2 35  1  0
  1 36  1  0
  1 37  1  0
  1 38  1  0
 18  4  1  0
 24 19  1  0
 12  7  1  0
 27 23  1  0
M  END
>  <cnnaffinity>  (1) 
-5.78509

>  <filename>  (1) 
[H]c1nc([H])c(-c2nc(-c3c([H])c([H])c([H])c4onc([H])c34)n(C([H])([H])C([H])([H])C([H])([H])[H])n2)c([H])c1[H]

$$$$
