
     RDKit          3D

 47 50  0  0  0  0  0  0  0  0999 V2000
   12.4736    3.7878   20.6637 C   0  0  0  0  0  0  0  0  0  0  0  0
   11.7643    2.6662   20.7563 C   0  0  0  0  0  0  0  0  0  0  0  0
   11.4545    1.9210   22.0438 C   0  0  0  0  0  0  0  0  0  0  0  0
   12.3301    0.6806   22.2534 C   0  0  0  0  0  0  0  0  0  0  0  0
   12.0623   -0.0702   21.5034 H   0  0  0  0  0  0  0  0  0  0  0  0
   12.1494    0.2601   23.2480 H   0  0  0  0  0  0  0  0  0  0  0  0
   13.3943    0.9154   22.1583 H   0  0  0  0  0  0  0  0  0  0  0  0
   10.0248    1.5434   22.0258 N   0  0  0  0  0  0  0  0  0  0  0  0
    9.5695    0.6034   21.1475 N   0  0  0  0  0  0  0  0  0  0  0  0
    8.3605    0.3353   21.6030 C   0  0  0  0  0  0  0  0  0  0  0  0
    7.4262   -0.6471   20.9519 C   0  0  0  0  0  0  0  0  0  0  0  0
    6.6296   -0.0241   19.8114 C   0  0  0  0  0  0  0  0  0  0  0  0
    5.4259    0.6497   20.0585 C   0  0  0  0  0  0  0  0  0  0  0  0
    4.7981    1.3244   19.0081 C   0  0  0  0  0  0  0  0  0  0  0  0
    5.3938    1.2973   17.7443 C   0  0  0  0  0  0  0  0  0  0  0  0
    6.5257    0.6307   17.4747 N   0  0  0  0  0  0  0  0  0  0  0  0
    7.1154   -0.0098   18.4919 C   0  0  0  0  0  0  0  0  0  0  0  0
    8.0309   -0.5484   18.2439 H   0  0  0  0  0  0  0  0  0  0  0  0
    4.9452    1.8338   16.9104 H   0  0  0  0  0  0  0  0  0  0  0  0
    3.8770    1.8762   19.1567 H   0  0  0  0  0  0  0  0  0  0  0  0
    4.9817    0.6409   21.0564 H   0  0  0  0  0  0  0  0  0  0  0  0
    8.0084   -1.5056   20.6010 H   0  0  0  0  0  0  0  0  0  0  0  0
    6.7481   -1.0164   21.7302 H   0  0  0  0  0  0  0  0  0  0  0  0
    8.0010    1.0419   22.6994 N   0  0  0  0  0  0  0  0  0  0  0  0
    9.0485    1.8253   22.9166 C   0  0  0  0  0  0  0  0  0  0  0  0
    9.1593    2.8983   23.9422 C   0  0  0  0  0  0  0  0  0  0  0  0
    9.4511    4.2145   23.5836 C   0  0  0  0  0  0  0  0  0  0  0  0
    9.4914    5.2428   24.5598 C   0  0  0  0  0  0  0  0  0  0  0  0
    9.7588    6.5480   24.1892 N   0  0  0  0  0  0  0  0  0  0  0  0
    9.8121    7.4189   25.1768 C   0  0  0  0  0  0  0  0  0  0  0  0
    9.6457    7.0551   26.5639 C   0  0  0  0  0  0  0  0  0  0  0  0
    9.3644    5.8268   26.9478 N   0  0  0  0  0  0  0  0  0  0  0  0
    9.2535    4.8958   25.9327 C   0  0  0  0  0  0  0  0  0  0  0  0
    8.9259    3.5572   26.2590 C   0  0  0  0  0  0  0  0  0  0  0  0
    8.9242    2.5517   25.3173 C   0  0  0  0  0  0  0  0  0  0  0  0
    8.6974    1.1267   25.7723 C   0  0  0  0  0  0  0  0  0  0  0  0
    9.4383    0.4550   25.3269 H   0  0  0  0  0  0  0  0  0  0  0  0
    7.7155    0.7755   25.4436 H   0  0  0  0  0  0  0  0  0  0  0  0
    8.7597    1.0450   26.8610 H   0  0  0  0  0  0  0  0  0  0  0  0
    8.6677    3.3569   27.2907 H   0  0  0  0  0  0  0  0  0  0  0  0
    9.7574    7.8198   27.3347 H   0  0  0  0  0  0  0  0  0  0  0  0
    9.9799    8.4630   24.9281 H   0  0  0  0  0  0  0  0  0  0  0  0
    9.6572    4.5157   22.5616 H   0  0  0  0  0  0  0  0  0  0  0  0
   11.6131    2.6061   22.8817 H   0  0  0  0  0  0  0  0  0  0  0  0
   12.9623    4.2322   21.5418 H   0  0  0  0  0  0  0  0  0  0  0  0
   11.3710    2.2238   19.8362 H   0  0  0  0  0  0  0  0  0  0  0  0
   12.5677    4.2759   19.6933 H   0  0  0  0  0  0  0  0  0  0  0  0
  1  2  2  3
  2  3  1  0
  3  4  1  0
  4  5  1  0
  4  6  1  0
  4  7  1  0
  3  8  1  0
  8  9  1  0
  9 10  2  0
 10 11  1  0
 11 12  1  0
 12 13  2  0
 13 14  1  0
 14 15  2  0
 15 16  1  0
 16 17  2  0
 17 18  1  0
 15 19  1  0
 14 20  1  0
 13 21  1  0
 11 22  1  0
 11 23  1  0
 10 24  1  0
 24 25  2  0
 25 26  1  0
 26 27  2  0
 27 28  1  0
 28 29  2  0
 29 30  1  0
 30 31  2  0
 31 32  1  0
 32 33  2  0
 33 34  1  0
 34 35  2  0
 35 36  1  0
 36 37  1  0
 36 38  1  0
 36 39  1  0
 34 40  1  0
 31 41  1  0
 30 42  1  0
 27 43  1  0
  3 44  1  0
  2 45  1  0
  1 46  1  0
  1 47  1  0
 25  8  1  0
 35 26  1  0
 17 12  1  0
 33 28  1  0
M  END
>  <cnnaffinity>  (1) 
-6.45808

>  <filename>  (1) 
[H]C([H])=C([H])C([H])(n1nc(C([H])([H])c2c([H])nc([H])c([H])c2[H])nc1-c1c(C([H])([H])[H])c([H])c2nc([H])c([H])nc2c1[H])C([H])([H])[H]

$$$$
