
     RDKit          3D

 27 28  0  0  0  0  0  0  0  0999 V2000
    5.1225    1.7038   17.0513 H   0  0  0  0  0  0  0  0  0  0  0  0
    5.5609    1.2106   17.9154 C   0  0  0  0  0  0  0  0  0  0  0  0
    6.7250    0.5751   17.7137 N   0  0  0  0  0  0  0  0  0  0  0  0
    7.2887   -0.0235   18.7657 C   0  0  0  0  0  0  0  0  0  0  0  0
    8.2249   -0.5384   18.5379 H   0  0  0  0  0  0  0  0  0  0  0  0
    6.7295   -0.0285   20.0466 C   0  0  0  0  0  0  0  0  0  0  0  0
    7.4140   -0.6772   21.1807 C   0  0  0  0  0  0  0  0  0  0  0  0
    6.8678   -1.2005   22.1224 O   0  0  0  0  0  0  0  0  0  0  0  0
    8.7791   -0.5404   21.1618 N   0  0  0  0  0  0  0  0  0  0  0  0
    9.2858   -0.4454   20.3053 H   0  0  0  0  0  0  0  0  0  0  0  0
    9.5930   -1.6566   22.0586 S   0  0  0  0  0  0  0  0  0  0  0  0
   10.9558   -1.3503   21.6813 O   0  0  0  0  0  0  0  0  0  0  0  0
    9.0146   -2.9658   21.8652 O   0  0  0  0  0  0  0  0  0  0  0  0
    9.2421   -1.0864   23.6456 C   0  0  0  0  0  0  0  0  0  0  0  0
    9.1711    0.2893   23.7882 C   0  0  0  0  0  0  0  0  0  0  0  0
    9.3308    0.9781   22.9596 H   0  0  0  0  0  0  0  0  0  0  0  0
    8.8775    0.8545   24.9533 N   0  0  0  0  0  0  0  0  0  0  0  0
    8.7259    0.0604   25.9994 C   0  0  0  0  0  0  0  0  0  0  0  0
    8.2648    0.8194   27.4851 Cl  0  0  0  0  0  0  0  0  0  0  0  0
    8.8868   -1.3285   25.9782 C   0  0  0  0  0  0  0  0  0  0  0  0
    8.8283   -1.8851   26.9023 H   0  0  0  0  0  0  0  0  0  0  0  0
    9.1351   -1.9348   24.7550 C   0  0  0  0  0  0  0  0  0  0  0  0
    9.2249   -3.0206   24.6754 H   0  0  0  0  0  0  0  0  0  0  0  0
    5.4902    0.6060   20.2381 C   0  0  0  0  0  0  0  0  0  0  0  0
    5.0296    0.5920   21.2273 H   0  0  0  0  0  0  0  0  0  0  0  0
    4.9069    1.2465   19.1515 C   0  0  0  0  0  0  0  0  0  0  0  0
    3.9684    1.7787   19.2564 H   0  0  0  0  0  0  0  0  0  0  0  0
  1  2  1  0
  2  3  2  0
  3  4  1  0
  4  5  1  0
  4  6  2  0
  6  7  1  0
  7  8  2  0
  7  9  1  0
  9 10  1  0
  9 11  1  0
 11 12  2  0
 11 13  2  0
 11 14  1  0
 14 15  2  0
 15 16  1  0
 15 17  1  0
 17 18  2  0
 18 19  1  0
 18 20  1  0
 20 21  1  0
 20 22  2  0
 22 23  1  0
  6 24  1  0
 24 25  1  0
 24 26  2  0
 26 27  1  0
 26  2  1  0
 22 14  1  0
M  END
>  <cnnaffinity>  (1) 
-5.1015

>  <filename>  (1) 
[H]c1nc([H])c(C(=O)N([H])S(=O)(=O)c2c([H])nc(Cl)c([H])c2[H])c([H])c1[H]

$$$$
