
     RDKit          3D

 35 36  0  0  0  0  0  0  0  0999 V2000
    6.5224   -1.6772   21.5723 C   0  0  0  0  0  0  0  0  0  0  0  0
    7.3333   -0.6186   20.8523 C   0  0  0  0  0  0  0  0  0  0  0  0
    8.5394   -0.1681   21.2271 C   0  0  0  0  0  0  0  0  0  0  0  0
    9.3187   -0.5534   22.4359 C   0  0  0  0  0  0  0  0  0  0  0  0
    9.9905    0.2451   23.0554 O   0  0  0  0  0  0  0  0  0  0  0  0
    9.2408   -1.8911   22.7331 N   0  0  0  0  0  0  0  0  0  0  0  0
    9.3829   -2.4887   23.9745 C   0  0  0  0  0  0  0  0  0  0  0  0
    9.2536   -1.8333   25.1719 C   0  0  0  0  0  0  0  0  0  0  0  0
    9.3154   -2.5927   26.3500 C   0  0  0  0  0  0  0  0  0  0  0  0
    9.6651   -3.9753   26.2734 C   0  0  0  0  0  0  0  0  0  0  0  0
    9.8108   -4.7436   25.0901 C   0  0  0  0  0  0  0  0  0  0  0  0
    9.6374   -4.7668   24.9608 C   0  0  0  0  0  0  0  0  0  0  0  0
    8.2155   -6.4246   23.7164 F   0  0  0  0  0  0  0  0  0  0  0  0
   11.5499   -5.3531   25.3394 F   0  0  0  0  0  0  0  0  0  0  0  0
    7.4048   -5.9006   24.6981 F   0  0  0  0  0  0  0  0  0  0  0  0
    9.4943   -3.9556   23.8594 C   0  0  0  0  0  0  0  0  0  0  0  0
    8.8594   -4.3321   22.9935 H   0  0  0  0  0  0  0  0  0  0  0  0
   10.0169   -4.3345   27.2842 H   0  0  0  0  0  0  0  0  0  0  0  0
    9.2446   -2.0867   27.3145 H   0  0  0  0  0  0  0  0  0  0  0  0
    9.1090   -0.7517   25.1776 H   0  0  0  0  0  0  0  0  0  0  0  0
    8.8591   -2.4346   21.9797 H   0  0  0  0  0  0  0  0  0  0  0  0
    8.9818    0.6938   20.7342 H   0  0  0  0  0  0  0  0  0  0  0  0
    6.6836    0.0320   19.6831 C   0  0  0  0  0  0  0  0  0  0  0  0
    5.4202    0.6311   19.8117 C   0  0  0  0  0  0  0  0  0  0  0  0
    4.8735    1.2950   18.7170 C   0  0  0  0  0  0  0  0  0  0  0  0
    5.5923    1.3104   17.5163 C   0  0  0  0  0  0  0  0  0  0  0  0
    6.7856    0.7166   17.3597 N   0  0  0  0  0  0  0  0  0  0  0  0
    7.3141    0.1078   18.4293 C   0  0  0  0  0  0  0  0  0  0  0  0
    8.2825   -0.3695   18.2828 H   0  0  0  0  0  0  0  0  0  0  0  0
    5.1918    1.8202   16.6424 H   0  0  0  0  0  0  0  0  0  0  0  0
    3.9154    1.7984   18.7815 H   0  0  0  0  0  0  0  0  0  0  0  0
    4.9082    0.5938   20.7747 H   0  0  0  0  0  0  0  0  0  0  0  0
    6.8172   -2.6881   21.2624 H   0  0  0  0  0  0  0  0  0  0  0  0
    6.6289   -1.5987   22.6589 H   0  0  0  0  0  0  0  0  0  0  0  0
    5.4638   -1.5842   21.3208 H   0  0  0  0  0  0  0  0  0  0  0  0
  1  2  1  0
  2  3  2  3
  3  4  1  0
  4  5  2  0
  4  6  1  0
  6  7  1  0
  7  8  2  0
  8  9  1  0
  9 10  2  0
 10 11  1  0
 11 12  1  0
 12 13  1  0
 12 14  1  0
 12 15  1  0
 11 16  2  0
 16 17  1  0
 10 18  1  0
  9 19  1  0
  8 20  1  0
  6 21  1  0
  3 22  1  0
  2 23  1  0
 23 24  2  0
 24 25  1  0
 25 26  2  0
 26 27  1  0
 27 28  2  0
 28 29  1  0
 26 30  1  0
 25 31  1  0
 24 32  1  0
  1 33  1  0
  1 34  1  0
  1 35  1  0
 16  7  1  0
 28 23  1  0
M  END
>  <cnnaffinity>  (1) 
-5.04511

>  <filename>  (1) 
[H]C(C(=O)N([H])c1c([H])c([H])c([H])c(C(F)(F)F)c1[H])=C(c1c([H])nc([H])c([H])c1[H])C([H])([H])[H]

$$$$
