
     RDKit          3D

 48 52  0  0  0  0  0  0  0  0999 V2000
    8.8073    7.0124   26.6615 C   0  0  0  0  0  0  0  0  0  0  0  0
    7.6185    6.4106   27.0831 C   0  0  0  0  0  0  0  0  0  0  0  0
    7.0226    5.4604   26.2443 C   0  0  0  0  0  0  0  0  0  0  0  0
    7.6437    5.1355   25.0261 C   0  0  0  0  0  0  0  0  0  0  0  0
    7.0507    4.1207   24.0659 C   0  0  0  0  0  0  0  0  0  0  0  0
    7.3222    2.6449   24.4805 C   0  0  0  0  0  0  0  0  0  0  0  0
    7.6126    1.7182   23.3789 N   0  0  0  0  0  0  0  0  0  0  0  0
    6.6096    1.0876   22.7060 N   0  0  0  0  0  0  0  0  0  0  0  0
    7.2608    0.2430   21.9239 C   0  0  0  0  0  0  0  0  0  0  0  0
    6.6498   -0.6586   20.8940 C   0  0  0  0  0  0  0  0  0  0  0  0
    6.2439    0.0345   19.5899 C   0  0  0  0  0  0  0  0  0  0  0  0
    5.1896    0.9595   19.5879 C   0  0  0  0  0  0  0  0  0  0  0  0
    4.7528    1.4854   18.3707 C   0  0  0  0  0  0  0  0  0  0  0  0
    5.4291    1.1242   17.2063 C   0  0  0  0  0  0  0  0  0  0  0  0
    6.4905    0.3061   17.1878 N   0  0  0  0  0  0  0  0  0  0  0  0
    6.8842   -0.2118   18.3581 C   0  0  0  0  0  0  0  0  0  0  0  0
    7.7666   -0.8536   18.3154 H   0  0  0  0  0  0  0  0  0  0  0  0
    5.1065    1.5255   16.2519 H   0  0  0  0  0  0  0  0  0  0  0  0
    3.9245    2.1847   18.3089 H   0  0  0  0  0  0  0  0  0  0  0  0
    4.7348    1.2771   20.5263 H   0  0  0  0  0  0  0  0  0  0  0  0
    5.7861   -1.1343   21.3712 H   0  0  0  0  0  0  0  0  0  0  0  0
    7.3878   -1.4438   20.6886 H   0  0  0  0  0  0  0  0  0  0  0  0
    8.5941    0.2521   22.0740 N   0  0  0  0  0  0  0  0  0  0  0  0
    8.8038    1.2293   22.9434 C   0  0  0  0  0  0  0  0  0  0  0  0
   10.1708    1.7069   23.1972 C   0  0  0  0  0  0  0  0  0  0  0  0
   10.5138    3.0929   23.1902 C   0  0  0  0  0  0  0  0  0  0  0  0
   11.8326    3.4978   23.0805 C   0  0  0  0  0  0  0  0  0  0  0  0
   12.8177    2.4863   22.9937 C   0  0  0  0  0  0  0  0  0  0  0  0
   14.1539    2.5416   22.7912 N   0  0  0  0  0  0  0  0  0  0  0  0
   14.7358    1.3191   22.7354 N   0  0  0  0  0  0  0  0  0  0  0  0
   13.7636    0.4521   22.8956 C   0  0  0  0  0  0  0  0  0  0  0  0
   12.5067    1.1117   23.0662 C   0  0  0  0  0  0  0  0  0  0  0  0
   11.1614    0.7243   23.1656 C   0  0  0  0  0  0  0  0  0  0  0  0
   10.8544   -0.3179   23.1463 H   0  0  0  0  0  0  0  0  0  0  0  0
   13.9819   -0.6064   22.8585 H   0  0  0  0  0  0  0  0  0  0  0  0
   14.7041    3.3674   22.6102 H   0  0  0  0  0  0  0  0  0  0  0  0
   12.1035    4.5446   23.0153 H   0  0  0  0  0  0  0  0  0  0  0  0
    9.7338    3.8521   23.2388 H   0  0  0  0  0  0  0  0  0  0  0  0
    8.1696    2.5789   25.1711 H   0  0  0  0  0  0  0  0  0  0  0  0
    6.4440    2.2590   25.0017 H   0  0  0  0  0  0  0  0  0  0  0  0
    7.4572    4.3255   23.0707 H   0  0  0  0  0  0  0  0  0  0  0  0
    5.9676    4.2786   23.9928 H   0  0  0  0  0  0  0  0  0  0  0  0
    8.8058    5.6904   24.6456 N   0  0  0  0  0  0  0  0  0  0  0  0
    9.3452    6.6338   25.4306 C   0  0  0  0  0  0  0  0  0  0  0  0
   10.2420    7.1153   25.0430 H   0  0  0  0  0  0  0  0  0  0  0  0
    6.0766    4.9917   26.5052 H   0  0  0  0  0  0  0  0  0  0  0  0
    7.1525    6.6931   28.0270 H   0  0  0  0  0  0  0  0  0  0  0  0
    9.3129    7.7610   27.2614 H   0  0  0  0  0  0  0  0  0  0  0  0
  1  2  2  0
  2  3  1  0
  3  4  2  0
  4  5  1  0
  5  6  1  0
  6  7  1  0
  7  8  1  0
  8  9  2  0
  9 10  1  0
 10 11  1  0
 11 12  2  0
 12 13  1  0
 13 14  2  0
 14 15  1  0
 15 16  2  0
 16 17  1  0
 14 18  1  0
 13 19  1  0
 12 20  1  0
 10 21  1  0
 10 22  1  0
  9 23  1  0
 23 24  2  0
 24 25  1  0
 25 26  2  0
 26 27  1  0
 27 28  2  0
 28 29  1  0
 29 30  1  0
 30 31  2  0
 31 32  1  0
 32 33  2  0
 33 34  1  0
 31 35  1  0
 29 36  1  0
 27 37  1  0
 26 38  1  0
  6 39  1  0
  6 40  1  0
  5 41  1  0
  5 42  1  0
  4 43  1  0
 43 44  2  0
 44 45  1  0
  3 46  1  0
  2 47  1  0
  1 48  1  0
 44  1  1  0
 24  7  1  0
 33 25  1  0
 16 11  1  0
 32 28  1  0
M  END
>  <cnnaffinity>  (1) 
-6.21678

>  <filename>  (1) 
[H]c1nc(C([H])([H])C([H])([H])n2nc(C([H])([H])c3c([H])nc([H])c([H])c3[H])nc2-c2c([H])c([H])c3c(c([H])nn3[H])c2[H])c([H])c([H])c1[H]

$$$$
