
     RDKit          3D

 42 46  0  0  0  0  0  0  0  0999 V2000
    9.5190    5.9705   26.5043 F   0  0  0  0  0  0  0  0  0  0  0  0
    9.2724    4.9732   25.6486 C   0  0  0  0  0  0  0  0  0  0  0  0
    9.9786    4.9089   24.4418 C   0  0  0  0  0  0  0  0  0  0  0  0
    9.7972    3.9167   23.5788 N   0  0  0  0  0  0  0  0  0  0  0  0
    8.8897    2.9464   23.8394 C   0  0  0  0  0  0  0  0  0  0  0  0
    8.7471    1.8606   22.8169 C   0  0  0  0  0  0  0  0  0  0  0  0
    7.7533    0.9999   22.6522 N   0  0  0  0  0  0  0  0  0  0  0  0
    8.1202    0.3127   21.5475 C   0  0  0  0  0  0  0  0  0  0  0  0
    7.2459   -0.7296   20.9144 C   0  0  0  0  0  0  0  0  0  0  0  0
    6.4704   -0.1304   19.7481 C   0  0  0  0  0  0  0  0  0  0  0  0
    5.2954    0.5903   19.9846 C   0  0  0  0  0  0  0  0  0  0  0  0
    4.7299    1.3245   18.9406 C   0  0  0  0  0  0  0  0  0  0  0  0
    5.3600    1.3063   17.6925 C   0  0  0  0  0  0  0  0  0  0  0  0
    6.4708    0.5993   17.4329 N   0  0  0  0  0  0  0  0  0  0  0  0
    7.0025   -0.0954   18.4464 C   0  0  0  0  0  0  0  0  0  0  0  0
    7.9169   -0.6472   18.2213 H   0  0  0  0  0  0  0  0  0  0  0  0
    4.9577    1.8891   16.8661 H   0  0  0  0  0  0  0  0  0  0  0  0
    3.8399    1.9256   19.0888 H   0  0  0  0  0  0  0  0  0  0  0  0
    4.8448    0.5790   20.9796 H   0  0  0  0  0  0  0  0  0  0  0  0
    7.8944   -1.5413   20.5730 H   0  0  0  0  0  0  0  0  0  0  0  0
    6.5779   -1.1141   21.6960 H   0  0  0  0  0  0  0  0  0  0  0  0
    9.2768    0.6671   21.0231 N   0  0  0  0  0  0  0  0  0  0  0  0
    9.6902    1.6516   21.8396 N   0  0  0  0  0  0  0  0  0  0  0  0
   11.0388    2.1145   21.8016 C   0  0  0  0  0  0  0  0  0  0  0  0
   11.5599    3.0060   20.8744 C   0  0  0  0  0  0  0  0  0  0  0  0
   12.6929    3.7942   21.1845 C   0  0  0  0  0  0  0  0  0  0  0  0
   13.4501    3.5161   22.3202 C   0  0  0  0  0  0  0  0  0  0  0  0
   13.0579    2.4278   23.1196 C   0  0  0  0  0  0  0  0  0  0  0  0
   11.8499    1.7690   22.8753 C   0  0  0  0  0  0  0  0  0  0  0  0
   11.7242    0.8367   23.8758 N   0  0  0  0  0  0  0  0  0  0  0  0
   12.8413    0.9462   24.6419 C   0  0  0  0  0  0  0  0  0  0  0  0
   13.6565    1.8623   24.2167 N   0  0  0  0  0  0  0  0  0  0  0  0
   13.0188    0.3286   25.5114 H   0  0  0  0  0  0  0  0  0  0  0  0
   10.9648    0.1916   23.9872 H   0  0  0  0  0  0  0  0  0  0  0  0
   14.3506    4.0688   22.5690 H   0  0  0  0  0  0  0  0  0  0  0  0
   12.9819    4.6076   20.5220 H   0  0  0  0  0  0  0  0  0  0  0  0
   11.0772    3.1203   19.9228 H   0  0  0  0  0  0  0  0  0  0  0  0
    8.1241    2.9879   25.0270 C   0  0  0  0  0  0  0  0  0  0  0  0
    7.2157    2.0550   25.3021 F   0  0  0  0  0  0  0  0  0  0  0  0
    8.3191    4.0124   25.9592 C   0  0  0  0  0  0  0  0  0  0  0  0
    7.7539    4.0563   26.8854 H   0  0  0  0  0  0  0  0  0  0  0  0
   10.7038    5.6743   24.1824 H   0  0  0  0  0  0  0  0  0  0  0  0
  1  2  1  0
  2  3  2  0
  3  4  1  0
  4  5  2  0
  5  6  1  0
  6  7  2  0
  7  8  1  0
  8  9  1  0
  9 10  1  0
 10 11  2  0
 11 12  1  0
 12 13  2  0
 13 14  1  0
 14 15  2  0
 15 16  1  0
 13 17  1  0
 12 18  1  0
 11 19  1  0
  9 20  1  0
  9 21  1  0
  8 22  2  0
 22 23  1  0
 23 24  1  0
 24 25  2  0
 25 26  1  0
 26 27  2  0
 27 28  1  0
 28 29  2  0
 29 30  1  0
 30 31  1  0
 31 32  2  0
 31 33  1  0
 30 34  1  0
 27 35  1  0
 26 36  1  0
 25 37  1  0
  5 38  1  0
 38 39  1  0
 38 40  2  0
 40 41  1  0
  3 42  1  0
 40  2  1  0
 23  6  1  0
 29 24  1  0
 15 10  1  0
 32 28  1  0
M  END
>  <cnnaffinity>  (1) 
-6.50812

>  <filename>  (1) 
[H]c1nc([H])c(C([H])([H])c2nc(-c3nc([H])c(F)c([H])c3F)n(-c3c([H])c([H])c([H])c4nc([H])n([H])c34)n2)c([H])c1[H]

$$$$
