
     RDKit          3D

 34 35  0  0  0  0  0  0  0  0999 V2000
    4.9451    1.8381   16.9897 H   0  0  0  0  0  0  0  0  0  0  0  0
    5.3982    1.3033   17.8206 C   0  0  0  0  0  0  0  0  0  0  0  0
    6.5595    0.6872   17.5552 N   0  0  0  0  0  0  0  0  0  0  0  0
    7.1542    0.0398   18.5614 C   0  0  0  0  0  0  0  0  0  0  0  0
    8.1113   -0.4338   18.3502 H   0  0  0  0  0  0  0  0  0  0  0  0
    6.6092   -0.0484   19.8472 C   0  0  0  0  0  0  0  0  0  0  0  0
    7.6046   -0.8419   21.0897 S   0  0  0  0  0  0  0  0  0  0  0  0
    8.4449    0.4871   21.6678 N   0  0  0  0  0  0  0  0  0  0  0  0
    9.0758    0.9706   21.0500 H   0  0  0  0  0  0  0  0  0  0  0  0
    7.7764    1.4162   22.5444 C   0  0  0  0  0  0  0  0  0  0  0  0
    7.1819    0.8641   23.2867 H   0  0  0  0  0  0  0  0  0  0  0  0
    7.0692    2.0604   22.0027 H   0  0  0  0  0  0  0  0  0  0  0  0
    8.7609    2.2119   23.2068 N   0  0  0  0  0  0  0  0  0  0  0  0
    9.6446    1.4290   24.0815 C   0  0  0  0  0  0  0  0  0  0  0  0
   10.3137    0.7550   23.5119 H   0  0  0  0  0  0  0  0  0  0  0  0
    9.0238    0.7979   24.7357 H   0  0  0  0  0  0  0  0  0  0  0  0
   10.4861    2.3743   24.9536 C   0  0  0  0  0  0  0  0  0  0  0  0
    9.7806    2.9246   25.5929 H   0  0  0  0  0  0  0  0  0  0  0  0
   11.1546    1.7957   25.6048 H   0  0  0  0  0  0  0  0  0  0  0  0
   11.2684    3.3824   24.2090 N   0  0  0  0  0  0  0  0  0  0  0  0
   12.4259    2.8391   23.5077 C   0  0  0  0  0  0  0  0  0  0  0  0
   13.0719    2.3129   24.2179 H   0  0  0  0  0  0  0  0  0  0  0  0
   12.1945    2.1474   22.6767 H   0  0  0  0  0  0  0  0  0  0  0  0
   13.0090    3.6703   23.0981 H   0  0  0  0  0  0  0  0  0  0  0  0
   10.3479    4.1192   23.3173 C   0  0  0  0  0  0  0  0  0  0  0  0
    9.6733    4.7018   23.9575 H   0  0  0  0  0  0  0  0  0  0  0  0
   10.9233    4.8349   22.7119 H   0  0  0  0  0  0  0  0  0  0  0  0
    9.4912    3.2015   22.4003 C   0  0  0  0  0  0  0  0  0  0  0  0
    8.7759    3.8112   21.8283 H   0  0  0  0  0  0  0  0  0  0  0  0
   10.1843    2.7380   21.6696 H   0  0  0  0  0  0  0  0  0  0  0  0
    5.4003    0.6006   20.1234 C   0  0  0  0  0  0  0  0  0  0  0  0
    4.9712    0.5928   21.1238 H   0  0  0  0  0  0  0  0  0  0  0  0
    4.7816    1.2904   19.0757 C   0  0  0  0  0  0  0  0  0  0  0  0
    3.8570    1.8432   19.2329 H   0  0  0  0  0  0  0  0  0  0  0  0
  1  2  1  0
  2  3  2  0
  3  4  1  0
  4  5  1  0
  4  6  2  0
  6  7  1  0
  7  8  1  0
  8  9  1  0
  8 10  1  0
 10 11  1  0
 10 12  1  0
 10 13  1  0
 13 14  1  0
 14 15  1  0
 14 16  1  0
 14 17  1  0
 17 18  1  0
 17 19  1  0
 17 20  1  0
 20 21  1  0
 21 22  1  0
 21 23  1  0
 21 24  1  0
 20 25  1  0
 25 26  1  0
 25 27  1  0
 25 28  1  0
 28 29  1  0
 28 30  1  0
  6 31  1  0
 31 32  1  0
 31 33  2  0
 33 34  1  0
 33  2  1  0
 28 13  1  0
M  END
>  <cnnaffinity>  (1) 
-4.11046

>  <filename>  (1) 
[H]c1nc([H])c(SN([H])C([H])([H])N2C([H])([H])C([H])([H])N(C([H])([H])[H])C([H])([H])C2([H])[H])c([H])c1[H]

$$$$
