
     RDKit          3D

 40 42  0  0  0  0  0  0  0  0999 V2000
    6.5417   -0.1198   24.4594 H   0  0  0  0  0  0  0  0  0  0  0  0
    7.4928   -0.4486   24.8841 C   0  0  0  0  0  0  0  0  0  0  0  0
    8.2679   -1.2978   24.1975 C   0  0  0  0  0  0  0  0  0  0  0  0
    9.1600   -1.6875   24.6843 H   0  0  0  0  0  0  0  0  0  0  0  0
    8.1416   -1.6548   22.7244 C   0  0  0  0  0  0  0  0  0  0  0  0
    8.6821   -2.6048   22.5753 H   0  0  0  0  0  0  0  0  0  0  0  0
    6.6820   -1.8175   22.2516 C   0  0  0  0  0  0  0  0  0  0  0  0
    6.2121   -2.6866   22.7223 H   0  0  0  0  0  0  0  0  0  0  0  0
    6.1255   -0.9290   22.5607 H   0  0  0  0  0  0  0  0  0  0  0  0
    6.5427   -1.9107   20.7288 C   0  0  0  0  0  0  0  0  0  0  0  0
    6.9620   -2.8657   20.3637 H   0  0  0  0  0  0  0  0  0  0  0  0
    5.4873   -1.9140   20.4317 H   0  0  0  0  0  0  0  0  0  0  0  0
    7.2142   -0.7906   20.0876 N   0  0  0  0  0  0  0  0  0  0  0  0
    6.5868    0.0159   19.1219 C   0  0  0  0  0  0  0  0  0  0  0  0
    7.1658    0.2715   17.8515 C   0  0  0  0  0  0  0  0  0  0  0  0
    8.1023   -0.2260   17.6038 H   0  0  0  0  0  0  0  0  0  0  0  0
    6.6287    1.0532   16.9041 N   0  0  0  0  0  0  0  0  0  0  0  0
    5.4636    1.6560   17.1898 C   0  0  0  0  0  0  0  0  0  0  0  0
    5.0523    2.2992   16.4150 H   0  0  0  0  0  0  0  0  0  0  0  0
    4.7884    1.4723   18.4023 C   0  0  0  0  0  0  0  0  0  0  0  0
    3.8476    1.9872   18.5709 H   0  0  0  0  0  0  0  0  0  0  0  0
    5.3429    0.6313   19.3728 C   0  0  0  0  0  0  0  0  0  0  0  0
    4.8440    0.4626   20.3257 H   0  0  0  0  0  0  0  0  0  0  0  0
    8.6345   -0.6847   20.3966 C   0  0  0  0  0  0  0  0  0  0  0  0
    9.0483    0.1912   19.8806 H   0  0  0  0  0  0  0  0  0  0  0  0
    9.1778   -1.5754   20.0329 H   0  0  0  0  0  0  0  0  0  0  0  0
    8.8472   -0.5483   21.9076 C   0  0  0  0  0  0  0  0  0  0  0  0
    8.4633    0.4287   22.2324 H   0  0  0  0  0  0  0  0  0  0  0  0
    9.9189   -0.5623   22.1284 H   0  0  0  0  0  0  0  0  0  0  0  0
    7.7595    0.0998   26.2347 C   0  0  0  0  0  0  0  0  0  0  0  0
    8.7315   -0.4501   27.0915 C   0  0  0  0  0  0  0  0  0  0  0  0
    9.4438   -1.1742   26.7067 H   0  0  0  0  0  0  0  0  0  0  0  0
    8.8026   -0.0521   28.4261 C   0  0  0  0  0  0  0  0  0  0  0  0
    9.5088   -0.5313   29.1005 H   0  0  0  0  0  0  0  0  0  0  0  0
    7.9577    0.9561   28.9064 C   0  0  0  0  0  0  0  0  0  0  0  0
    8.0172    1.2535   29.9468 H   0  0  0  0  0  0  0  0  0  0  0  0
    7.0394    1.5722   28.0466 C   0  0  0  0  0  0  0  0  0  0  0  0
    6.3959    2.3803   28.3907 H   0  0  0  0  0  0  0  0  0  0  0  0
    6.9480    1.1441   26.7203 C   0  0  0  0  0  0  0  0  0  0  0  0
    6.2457    1.6246   26.0460 H   0  0  0  0  0  0  0  0  0  0  0  0
  1  2  1  0
  2  3  2  3
  3  4  1  0
  3  5  1  0
  5  6  1  0
  5  7  1  0
  7  8  1  0
  7  9  1  0
  7 10  1  0
 10 11  1  0
 10 12  1  0
 10 13  1  0
 13 14  1  0
 14 15  2  0
 15 16  1  0
 15 17  1  0
 17 18  2  0
 18 19  1  0
 18 20  1  0
 20 21  1  0
 20 22  2  0
 22 23  1  0
 13 24  1  0
 24 25  1  0
 24 26  1  0
 24 27  1  0
 27 28  1  0
 27 29  1  0
  2 30  1  0
 30 31  2  0
 31 32  1  0
 31 33  1  0
 33 34  1  0
 33 35  2  0
 35 36  1  0
 35 37  1  0
 37 38  1  0
 37 39  2  0
 39 40  1  0
 27  5  1  0
 39 30  1  0
 22 14  1  0
M  END
>  <cnnaffinity>  (1) 
-5.03912

>  <filename>  (1) 
[H]C(=C([H])C1([H])C([H])([H])C([H])([H])N(c2c([H])nc([H])c([H])c2[H])C([H])([H])C1([H])[H])c1c([H])c([H])c([H])c([H])c1[H]

$$$$
