
     RDKit          3D

 41 43  0  0  0  0  0  0  0  0999 V2000
    5.0563    1.8267   16.8499 H   0  0  0  0  0  0  0  0  0  0  0  0
    5.4919    1.3673   17.7354 C   0  0  0  0  0  0  0  0  0  0  0  0
    6.7079    0.8251   17.5834 N   0  0  0  0  0  0  0  0  0  0  0  0
    7.2712    0.2729   18.6685 C   0  0  0  0  0  0  0  0  0  0  0  0
    8.2646   -0.1467   18.5050 H   0  0  0  0  0  0  0  0  0  0  0  0
    6.6515    0.1772   19.9208 C   0  0  0  0  0  0  0  0  0  0  0  0
    7.3970   -0.5189   21.0424 C   0  0  0  0  0  0  0  0  0  0  0  0
    8.5336    0.2485   21.4919 N   0  0  0  0  0  0  0  0  0  0  0  0
    9.3492    0.1326   20.9051 H   0  0  0  0  0  0  0  0  0  0  0  0
    8.4366    1.5471   22.0246 C   0  0  0  0  0  0  0  0  0  0  0  0
    7.2652    2.0633   22.5859 C   0  0  0  0  0  0  0  0  0  0  0  0
    6.3710    1.4487   22.5813 H   0  0  0  0  0  0  0  0  0  0  0  0
    7.1945    3.3611   23.1155 C   0  0  0  0  0  0  0  0  0  0  0  0
    6.2717    3.7223   23.5612 H   0  0  0  0  0  0  0  0  0  0  0  0
    8.3208    4.1902   23.0482 C   0  0  0  0  0  0  0  0  0  0  0  0
    8.3627    5.4842   23.4704 O   0  0  0  0  0  0  0  0  0  0  0  0
    7.1560    6.1854   23.7172 C   0  0  0  0  0  0  0  0  0  0  0  0
    6.6430    5.8097   24.6134 H   0  0  0  0  0  0  0  0  0  0  0  0
    6.4640    6.1248   22.8662 H   0  0  0  0  0  0  0  0  0  0  0  0
    7.4469    7.2271   23.8728 H   0  0  0  0  0  0  0  0  0  0  0  0
    9.5273    3.6912   22.5231 C   0  0  0  0  0  0  0  0  0  0  0  0
   10.3922    4.3463   22.4860 H   0  0  0  0  0  0  0  0  0  0  0  0
    9.5955    2.3919   22.0288 C   0  0  0  0  0  0  0  0  0  0  0  0
   10.7371    1.8353   21.5220 O   0  0  0  0  0  0  0  0  0  0  0  0
   11.7940    2.6303   21.0201 C   0  0  0  0  0  0  0  0  0  0  0  0
   11.5329    3.1810   20.1067 H   0  0  0  0  0  0  0  0  0  0  0  0
   12.2283    3.3231   21.7505 H   0  0  0  0  0  0  0  0  0  0  0  0
   12.5430    1.8911   20.7793 H   0  0  0  0  0  0  0  0  0  0  0  0
    6.5571   -1.1161   22.2003 C   0  0  0  0  0  0  0  0  0  0  0  0
    5.5668   -1.3077   21.7884 H   0  0  0  0  0  0  0  0  0  0  0  0
    6.5033   -0.5655   23.1439 H   0  0  0  0  0  0  0  0  0  0  0  0
    7.3703   -2.4249   22.1434 C   0  0  0  0  0  0  0  0  0  0  0  0
    6.7896   -3.3512   22.1805 H   0  0  0  0  0  0  0  0  0  0  0  0
    8.1777   -2.4837   22.8773 H   0  0  0  0  0  0  0  0  0  0  0  0
    7.8376   -1.9738   20.7417 C   0  0  0  0  0  0  0  0  0  0  0  0
    8.8857   -2.1121   20.4557 H   0  0  0  0  0  0  0  0  0  0  0  0
    7.1604   -2.3758   19.9846 H   0  0  0  0  0  0  0  0  0  0  0  0
    5.3855    0.7675   20.0623 C   0  0  0  0  0  0  0  0  0  0  0  0
    4.8853    0.7707   21.0329 H   0  0  0  0  0  0  0  0  0  0  0  0
    4.7936    1.3695   18.9486 C   0  0  0  0  0  0  0  0  0  0  0  0
    3.8250    1.8514   19.0183 H   0  0  0  0  0  0  0  0  0  0  0  0
  1  2  1  0
  2  3  2  0
  3  4  1  0
  4  5  1  0
  4  6  2  0
  6  7  1  0
  7  8  1  0
  8  9  1  0
  8 10  1  0
 10 11  2  0
 11 12  1  0
 11 13  1  0
 13 14  1  0
 13 15  2  0
 15 16  1  0
 16 17  1  0
 17 18  1  0
 17 19  1  0
 17 20  1  0
 15 21  1  0
 21 22  1  0
 21 23  2  0
 23 24  1  0
 24 25  1  0
 25 26  1  0
 25 27  1  0
 25 28  1  0
  7 29  1  0
 29 30  1  0
 29 31  1  0
 29 32  1  0
 32 33  1  0
 32 34  1  0
 32 35  1  0
 35 36  1  0
 35 37  1  0
  6 38  1  0
 38 39  1  0
 38 40  2  0
 40 41  1  0
 40  2  1  0
 35  7  1  0
 23 10  1  0
M  END
>  <cnnaffinity>  (1) 
-5.06973

>  <filename>  (1) 
[H]c1nc([H])c(C2(N([H])c3c([H])c([H])c(OC([H])([H])[H])c([H])c3OC([H])([H])[H])C([H])([H])C([H])([H])C2([H])[H])c([H])c1[H]

$$$$
