
     RDKit          3D

 40 44  0  0  0  0  0  0  0  0999 V2000
    4.9738    1.7855   16.9714 H   0  0  0  0  0  0  0  0  0  0  0  0
    5.4087    1.2852   17.8360 C   0  0  0  0  0  0  0  0  0  0  0  0
    6.5507    0.6132   17.6226 N   0  0  0  0  0  0  0  0  0  0  0  0
    7.1137   -0.0009   18.6660 C   0  0  0  0  0  0  0  0  0  0  0  0
    8.0264   -0.5570   18.4548 H   0  0  0  0  0  0  0  0  0  0  0  0
    6.6046    0.0618   19.9727 C   0  0  0  0  0  0  0  0  0  0  0  0
    7.3526   -0.5780   21.0473 C   0  0  0  0  0  0  0  0  0  0  0  0
    7.7720   -1.8788   20.9191 N   0  0  0  0  0  0  0  0  0  0  0  0
    8.3818   -2.1194   22.0413 C   0  0  0  0  0  0  0  0  0  0  0  0
    8.4946   -1.0286   22.8438 N   0  0  0  0  0  0  0  0  0  0  0  0
    7.7606   -0.0275   22.2548 C   0  0  0  0  0  0  0  0  0  0  0  0
    7.5815    1.3302   22.8584 C   0  0  0  0  0  0  0  0  0  0  0  0
    6.9018    1.9012   22.2176 H   0  0  0  0  0  0  0  0  0  0  0  0
    8.5428    1.8606   22.8815 H   0  0  0  0  0  0  0  0  0  0  0  0
    7.0667    1.3181   24.2269 N   0  0  0  0  0  0  0  0  0  0  0  0
    7.8173    1.5659   25.3663 C   0  0  0  0  0  0  0  0  0  0  0  0
    8.9821    1.8979   25.3508 O   0  0  0  0  0  0  0  0  0  0  0  0
    6.9305    1.3067   26.5393 C   0  0  0  0  0  0  0  0  0  0  0  0
    7.1666    1.4330   27.9078 C   0  0  0  0  0  0  0  0  0  0  0  0
    8.1268    1.7877   28.2707 H   0  0  0  0  0  0  0  0  0  0  0  0
    6.1473    1.0463   28.7833 C   0  0  0  0  0  0  0  0  0  0  0  0
    6.2979    1.1342   29.8563 H   0  0  0  0  0  0  0  0  0  0  0  0
    4.9378    0.5132   28.2884 C   0  0  0  0  0  0  0  0  0  0  0  0
    4.1877    0.1611   28.9912 H   0  0  0  0  0  0  0  0  0  0  0  0
    4.7031    0.4174   26.9131 C   0  0  0  0  0  0  0  0  0  0  0  0
    3.7752   -0.0000   26.5333 H   0  0  0  0  0  0  0  0  0  0  0  0
    5.7070    0.8586   26.0479 C   0  0  0  0  0  0  0  0  0  0  0  0
    5.7540    1.0120   24.5592 C   0  0  0  0  0  0  0  0  0  0  0  0
    4.8482    0.9911   23.7623 O   0  0  0  0  0  0  0  0  0  0  0  0
    9.2137   -1.2142   24.0901 C   0  0  0  0  0  0  0  0  0  0  0  0
    9.8188   -0.3405   24.3352 H   0  0  0  0  0  0  0  0  0  0  0  0
    8.5040   -1.4031   24.8981 H   0  0  0  0  0  0  0  0  0  0  0  0
   10.0802   -2.4575   23.8329 C   0  0  0  0  0  0  0  0  0  0  0  0
   10.9764   -2.1917   23.2646 H   0  0  0  0  0  0  0  0  0  0  0  0
   10.3780   -2.9752   24.7470 H   0  0  0  0  0  0  0  0  0  0  0  0
    9.0609   -3.5571   22.7812 S   0  0  0  0  0  0  0  0  0  0  0  0
    5.3911    0.7356   20.1776 C   0  0  0  0  0  0  0  0  0  0  0  0
    4.9419    0.7649   21.1726 H   0  0  0  0  0  0  0  0  0  0  0  0
    4.7801    1.3470   19.0827 C   0  0  0  0  0  0  0  0  0  0  0  0
    3.8426    1.8783   19.1845 H   0  0  0  0  0  0  0  0  0  0  0  0
  1  2  1  0
  2  3  2  0
  3  4  1  0
  4  5  1  0
  4  6  2  0
  6  7  1  0
  7  8  1  0
  8  9  2  0
  9 10  1  0
 10 11  1  0
 11 12  1  0
 12 13  1  0
 12 14  1  0
 12 15  1  0
 15 16  1  0
 16 17  2  0
 16 18  1  0
 18 19  2  0
 19 20  1  0
 19 21  1  0
 21 22  1  0
 21 23  2  0
 23 24  1  0
 23 25  1  0
 25 26  1  0
 25 27  2  0
 27 28  1  0
 28 29  2  0
 10 30  1  0
 30 31  1  0
 30 32  1  0
 30 33  1  0
 33 34  1  0
 33 35  1  0
 33 36  1  0
  6 37  1  0
 37 38  1  0
 37 39  2  0
 39 40  1  0
 39  2  1  0
 11  7  2  0
 28 15  1  0
 36  9  1  0
 27 18  1  0
M  END
>  <cnnaffinity>  (1) 
-5.6102

>  <filename>  (1) 
[H]c1nc([H])c(-c2nc3n(c2C([H])([H])N2C(=O)c4c([H])c([H])c([H])c([H])c4C2=O)C([H])([H])C([H])([H])S3)c([H])c1[H]

$$$$
