
     RDKit          3D

 34 36  0  0  0  0  0  0  0  0999 V2000
    4.9280    1.8053   16.9695 H   0  0  0  0  0  0  0  0  0  0  0  0
    5.3918    1.2952   17.8121 C   0  0  0  0  0  0  0  0  0  0  0  0
    6.5508    0.6802   17.5532 N   0  0  0  0  0  0  0  0  0  0  0  0
    7.1618    0.0580   18.5735 C   0  0  0  0  0  0  0  0  0  0  0  0
    8.1133   -0.4085   18.3240 H   0  0  0  0  0  0  0  0  0  0  0  0
    6.6628   -0.0012   19.8823 C   0  0  0  0  0  0  0  0  0  0  0  0
    7.3546   -0.7662   21.0268 C   0  0  0  0  0  0  0  0  0  0  0  0
    7.4144    0.0908   22.2847 C   0  0  0  0  0  0  0  0  0  0  0  0
    7.1126   -0.2115   23.5838 C   0  0  0  0  0  0  0  0  0  0  0  0
    6.7206   -1.1633   23.9172 H   0  0  0  0  0  0  0  0  0  0  0  0
    7.4132    0.9450   24.3741 C   0  0  0  0  0  0  0  0  0  0  0  0
    7.3223    1.2245   25.7471 C   0  0  0  0  0  0  0  0  0  0  0  0
    6.9587    0.4450   26.4109 H   0  0  0  0  0  0  0  0  0  0  0  0
    7.7079    2.4784   26.2034 C   0  0  0  0  0  0  0  0  0  0  0  0
    7.6437    2.6909   27.2649 H   0  0  0  0  0  0  0  0  0  0  0  0
    8.1818    3.4687   25.3006 C   0  0  0  0  0  0  0  0  0  0  0  0
    8.4711    4.4405   25.6989 H   0  0  0  0  0  0  0  0  0  0  0  0
    8.2862    3.2215   23.9357 C   0  0  0  0  0  0  0  0  0  0  0  0
    8.6486    3.9873   23.2502 H   0  0  0  0  0  0  0  0  0  0  0  0
    7.9079    1.9377   23.4870 C   0  0  0  0  0  0  0  0  0  0  0  0
    7.9351    1.3750   22.2362 N   0  0  0  0  0  0  0  0  0  0  0  0
    8.1084    1.8644   21.3759 H   0  0  0  0  0  0  0  0  0  0  0  0
    8.8126   -1.1754   20.7103 C   0  0  0  0  0  0  0  0  0  0  0  0
    8.8678   -1.9042   19.9056 H   0  0  0  0  0  0  0  0  0  0  0  0
    9.4253   -0.3142   20.4218 H   0  0  0  0  0  0  0  0  0  0  0  0
    9.2588   -1.6299   21.6028 H   0  0  0  0  0  0  0  0  0  0  0  0
    6.5238   -2.0409   21.3058 C   0  0  0  0  0  0  0  0  0  0  0  0
    6.9919   -2.6512   22.0875 H   0  0  0  0  0  0  0  0  0  0  0  0
    6.4146   -2.6461   20.3982 H   0  0  0  0  0  0  0  0  0  0  0  0
    5.5202   -1.7680   21.6462 H   0  0  0  0  0  0  0  0  0  0  0  0
    5.4360    0.6415   20.1262 C   0  0  0  0  0  0  0  0  0  0  0  0
    5.0258    0.6444   21.1411 H   0  0  0  0  0  0  0  0  0  0  0  0
    4.7974    1.3053   19.0781 C   0  0  0  0  0  0  0  0  0  0  0  0
    3.8718    1.8403   19.2326 H   0  0  0  0  0  0  0  0  0  0  0  0
  1  2  1  0
  2  3  2  0
  3  4  1  0
  4  5  1  0
  4  6  2  0
  6  7  1  0
  7  8  1  0
  8  9  2  0
  9 10  1  0
  9 11  1  0
 11 12  2  0
 12 13  1  0
 12 14  1  0
 14 15  1  0
 14 16  2  0
 16 17  1  0
 16 18  1  0
 18 19  1  0
 18 20  2  0
 20 21  1  0
 21 22  1  0
  7 23  1  0
 23 24  1  0
 23 25  1  0
 23 26  1  0
  7 27  1  0
 27 28  1  0
 27 29  1  0
 27 30  1  0
  6 31  1  0
 31 32  1  0
 31 33  2  0
 33 34  1  0
 33  2  1  0
 21  8  1  0
 20 11  1  0
M  END
>  <cnnaffinity>  (1) 
-5.28844

>  <filename>  (1) 
[H]c1nc([H])c(C(c2c([H])c3c([H])c([H])c([H])c([H])c3n2[H])(C([H])([H])[H])C([H])([H])[H])c([H])c1[H]

$$$$
