
     RDKit          3D

 32 34  0  0  0  0  0  0  0  0999 V2000
    7.5755    0.7537   23.0436 O   0  0  0  0  0  0  0  0  0  0  0  0
    8.0719    0.4756   21.9763 C   0  0  0  0  0  0  0  0  0  0  0  0
    9.1988    1.0853   21.4583 N   0  0  0  0  0  0  0  0  0  0  0  0
    9.8647    2.1732   22.0400 C   0  0  0  0  0  0  0  0  0  0  0  0
   11.2415    2.1458   22.1830 C   0  0  0  0  0  0  0  0  0  0  0  0
   12.1190    0.6738   21.8798 Cl  0  0  0  0  0  0  0  0  0  0  0  0
   11.9345    3.3225   22.5709 C   0  0  0  0  0  0  0  0  0  0  0  0
   13.3065    3.3476   22.5792 N   0  0  0  0  0  0  0  0  0  0  0  0
   13.8687    4.5043   22.8346 C   0  0  0  0  0  0  0  0  0  0  0  0
   13.1092    5.6839   23.1663 C   0  0  0  0  0  0  0  0  0  0  0  0
   11.7934    5.6965   23.2223 N   0  0  0  0  0  0  0  0  0  0  0  0
   11.1727    4.5111   22.8928 C   0  0  0  0  0  0  0  0  0  0  0  0
    9.7573    4.4726   22.8184 C   0  0  0  0  0  0  0  0  0  0  0  0
    9.1261    3.3309   22.3775 C   0  0  0  0  0  0  0  0  0  0  0  0
    8.0543    3.2840   22.2335 H   0  0  0  0  0  0  0  0  0  0  0  0
    9.2205    5.3849   23.0456 H   0  0  0  0  0  0  0  0  0  0  0  0
   13.6165    6.6234   23.3651 H   0  0  0  0  0  0  0  0  0  0  0  0
   14.9500    4.5659   22.7685 H   0  0  0  0  0  0  0  0  0  0  0  0
    9.7906    0.4974   20.8868 H   0  0  0  0  0  0  0  0  0  0  0  0
    7.4644   -0.6014   20.9678 C   0  0  0  0  0  0  0  0  0  0  0  0
    8.5110   -1.3242   20.4183 F   0  0  0  0  0  0  0  0  0  0  0  0
    6.7128   -1.4895   21.6600 F   0  0  0  0  0  0  0  0  0  0  0  0
    6.6559    0.0043   19.8331 C   0  0  0  0  0  0  0  0  0  0  0  0
    5.4458    0.6623   20.0943 C   0  0  0  0  0  0  0  0  0  0  0  0
    4.8204    1.3226   19.0385 C   0  0  0  0  0  0  0  0  0  0  0  0
    5.4148    1.2936   17.7725 C   0  0  0  0  0  0  0  0  0  0  0  0
    6.5368    0.6102   17.4973 N   0  0  0  0  0  0  0  0  0  0  0  0
    7.1253   -0.0322   18.5076 C   0  0  0  0  0  0  0  0  0  0  0  0
    8.0082   -0.6160   18.2560 H   0  0  0  0  0  0  0  0  0  0  0  0
    4.9696    1.8371   16.9429 H   0  0  0  0  0  0  0  0  0  0  0  0
    3.8914    1.8620   19.1845 H   0  0  0  0  0  0  0  0  0  0  0  0
    5.0030    0.6387   21.0916 H   0  0  0  0  0  0  0  0  0  0  0  0
  1  2  2  0
  2  3  1  0
  3  4  1  0
  4  5  2  0
  5  6  1  0
  5  7  1  0
  7  8  2  0
  8  9  1  0
  9 10  2  0
 10 11  1  0
 11 12  2  0
 12 13  1  0
 13 14  2  0
 14 15  1  0
 13 16  1  0
 10 17  1  0
  9 18  1  0
  3 19  1  0
  2 20  1  0
 20 21  1  0
 20 22  1  0
 20 23  1  0
 23 24  2  0
 24 25  1  0
 25 26  2  0
 26 27  1  0
 27 28  2  0
 28 29  1  0
 26 30  1  0
 25 31  1  0
 24 32  1  0
 14  4  1  0
 28 23  1  0
 12  7  1  0
M  END
>  <cnnaffinity>  (1) 
-5.34585

>  <filename>  (1) 
[H]c1nc2c([H])c([H])c(N([H])C(=O)C(F)(F)c3c([H])nc([H])c([H])c3[H])c(Cl)c2nc1[H]

$$$$
