
     RDKit          3D

 42 45  0  0  0  0  0  0  0  0999 V2000
   -0.5088   -8.0245   24.0143 C   0  0  0  0  0  0  0  0  0  0  0  0
    0.7080   -7.1748   24.2343 C   0  0  0  0  0  0  0  0  0  0  0  0
    1.4961   -6.9372   25.3306 C   0  0  0  0  0  0  0  0  0  0  0  0
    2.5007   -5.9834   24.9660 C   0  0  0  0  0  0  0  0  0  0  0  0
    3.5025   -5.4204   25.6967 N   0  0  0  0  0  0  0  0  0  0  0  0
    4.3160   -4.5930   25.0509 C   0  0  0  0  0  0  0  0  0  0  0  0
    4.2169   -4.3188   23.6621 C   0  0  0  0  0  0  0  0  0  0  0  0
    5.2502   -3.5115   23.0077 C   0  0  0  0  0  0  0  0  0  0  0  0
    5.8884   -2.4499   23.4636 N   0  0  0  0  0  0  0  0  0  0  0  0
    6.4027   -1.9000   22.3244 C   0  0  0  0  0  0  0  0  0  0  0  0
    7.0154   -0.5242   22.2294 C   0  0  0  0  0  0  0  0  0  0  0  0
    6.7257    0.1543   20.8901 C   0  0  0  0  0  0  0  0  0  0  0  0
    5.4606    0.7145   20.6780 C   0  0  0  0  0  0  0  0  0  0  0  0
    5.1522    1.2910   19.4434 C   0  0  0  0  0  0  0  0  0  0  0  0
    6.1195    1.2540   18.4386 C   0  0  0  0  0  0  0  0  0  0  0  0
    7.3264    0.6972   18.5987 N   0  0  0  0  0  0  0  0  0  0  0  0
    7.6112    0.1674   19.7976 C   0  0  0  0  0  0  0  0  0  0  0  0
    8.6046   -0.2699   19.8851 H   0  0  0  0  0  0  0  0  0  0  0  0
    5.9296    1.7045   17.4662 H   0  0  0  0  0  0  0  0  0  0  0  0
    4.1952    1.7655   19.2583 H   0  0  0  0  0  0  0  0  0  0  0  0
    4.7269    0.6884   21.4809 H   0  0  0  0  0  0  0  0  0  0  0  0
    8.0889   -0.5783   22.4485 H   0  0  0  0  0  0  0  0  0  0  0  0
    6.5695    0.0469   23.0504 H   0  0  0  0  0  0  0  0  0  0  0  0
    6.2660   -2.6449   21.2474 N   0  0  0  0  0  0  0  0  0  0  0  0
    5.5232   -3.6915   21.6759 N   0  0  0  0  0  0  0  0  0  0  0  0
    5.7818   -4.9273   20.9447 C   0  0  0  0  0  0  0  0  0  0  0  0
    7.1728   -5.4749   21.2505 C   0  0  0  0  0  0  0  0  0  0  0  0
    7.2397   -6.0304   22.4756 F   0  0  0  0  0  0  0  0  0  0  0  0
    7.4185   -6.4377   20.3560 F   0  0  0  0  0  0  0  0  0  0  0  0
    8.1575   -4.5828   21.1527 F   0  0  0  0  0  0  0  0  0  0  0  0
    5.7375   -4.6809   19.8825 H   0  0  0  0  0  0  0  0  0  0  0  0
    5.0625   -5.7129   21.1802 H   0  0  0  0  0  0  0  0  0  0  0  0
    3.1334   -4.8278   22.9341 C   0  0  0  0  0  0  0  0  0  0  0  0
    2.2686   -5.6799   23.5953 C   0  0  0  0  0  0  0  0  0  0  0  0
    1.1798   -6.4172   23.1841 N   0  0  0  0  0  0  0  0  0  0  0  0
    0.6750   -6.3108   22.3163 H   0  0  0  0  0  0  0  0  0  0  0  0
    2.9525   -4.5398   21.9066 H   0  0  0  0  0  0  0  0  0  0  0  0
    5.1125   -4.1323   25.6320 H   0  0  0  0  0  0  0  0  0  0  0  0
    1.4005   -7.3600   26.3186 H   0  0  0  0  0  0  0  0  0  0  0  0
   -0.5670   -8.3396   22.9651 H   0  0  0  0  0  0  0  0  0  0  0  0
   -0.5041   -8.9221   24.6393 H   0  0  0  0  0  0  0  0  0  0  0  0
   -1.4291   -7.4690   24.2322 H   0  0  0  0  0  0  0  0  0  0  0  0
  1  2  1  0
  2  3  2  0
  3  4  1  0
  4  5  2  0
  5  6  1  0
  6  7  2  0
  7  8  1  0
  8  9  2  0
  9 10  1  0
 10 11  1  0
 11 12  1  0
 12 13  2  0
 13 14  1  0
 14 15  2  0
 15 16  1  0
 16 17  2  0
 17 18  1  0
 15 19  1  0
 14 20  1  0
 13 21  1  0
 11 22  1  0
 11 23  1  0
 10 24  2  0
 24 25  1  0
 25 26  1  0
 26 27  1  0
 27 28  1  0
 27 29  1  0
 27 30  1  0
 26 31  1  0
 26 32  1  0
  7 33  1  0
 33 34  2  0
 34 35  1  0
 35 36  1  0
 33 37  1  0
  6 38  1  0
  3 39  1  0
  1 40  1  0
  1 41  1  0
  1 42  1  0
 35  2  1  0
 34  4  1  0
 25  8  1  0
 17 12  1  0
M  END
>  <cnnaffinity>  (1) 
-6.11244

>  <filename>  (1) 
[H]c1nc([H])c(C([H])([H])c2nc(-c3c([H])nc4c([H])c(C([H])([H])[H])n([H])c4c3[H])n(C([H])([H])C(F)(F)F)n2)c([H])c1[H]

$$$$
