
     RDKit          3D

 42 46  0  0  0  0  0  0  0  0999 V2000
    4.8216    1.3022   19.0115 C   0  0  0  0  0  0  0  0  0  0  0  0
    5.4126    1.2959   17.7430 C   0  0  0  0  0  0  0  0  0  0  0  0
    6.5419    0.6305   17.4562 N   0  0  0  0  0  0  0  0  0  0  0  0
    7.1378   -0.0326   18.4574 C   0  0  0  0  0  0  0  0  0  0  0  0
    6.6539   -0.0633   19.7764 C   0  0  0  0  0  0  0  0  0  0  0  0
    7.4126   -0.6585   20.9534 C   0  0  0  0  0  0  0  0  0  0  0  0
    8.1280    0.4140   21.7332 C   0  0  0  0  0  0  0  0  0  0  0  0
    9.2669    0.8857   21.2689 N   0  0  0  0  0  0  0  0  0  0  0  0
    9.6068    1.8289   22.1926 N   0  0  0  0  0  0  0  0  0  0  0  0
   10.9515    2.3011   22.3326 C   0  0  0  0  0  0  0  0  0  0  0  0
   11.2079    3.6537   22.4524 C   0  0  0  0  0  0  0  0  0  0  0  0
   12.5288    4.1223   22.6739 C   0  0  0  0  0  0  0  0  0  0  0  0
   13.5718    3.2340   22.7697 C   0  0  0  0  0  0  0  0  0  0  0  0
   13.3495    1.8298   22.6489 C   0  0  0  0  0  0  0  0  0  0  0  0
   14.4388    1.0026   22.7474 N   0  0  0  0  0  0  0  0  0  0  0  0
   14.2351   -0.2792   22.5837 C   0  0  0  0  0  0  0  0  0  0  0  0
   12.9693   -0.8796   22.3552 C   0  0  0  0  0  0  0  0  0  0  0  0
   11.8621   -0.0772   22.2736 C   0  0  0  0  0  0  0  0  0  0  0  0
   12.0213    1.3412   22.4111 C   0  0  0  0  0  0  0  0  0  0  0  0
   10.8655   -0.4796   22.1027 H   0  0  0  0  0  0  0  0  0  0  0  0
   12.9057   -1.9570   22.2561 H   0  0  0  0  0  0  0  0  0  0  0  0
   15.1043   -0.9222   22.6325 H   0  0  0  0  0  0  0  0  0  0  0  0
   14.5958    3.5535   22.9087 H   0  0  0  0  0  0  0  0  0  0  0  0
   12.7126    5.1923   22.7562 H   0  0  0  0  0  0  0  0  0  0  0  0
   10.4026    4.3750   22.3697 H   0  0  0  0  0  0  0  0  0  0  0  0
    8.6206    1.8969   23.1335 C   0  0  0  0  0  0  0  0  0  0  0  0
    8.7400    2.8915   24.2202 C   0  0  0  0  0  0  0  0  0  0  0  0
    7.5705    3.6004   24.8463 C   0  0  0  0  0  0  0  0  0  0  0  0
    8.4854    4.3577   23.9368 C   0  0  0  0  0  0  0  0  0  0  0  0
    8.1221    4.6177   22.9417 H   0  0  0  0  0  0  0  0  0  0  0  0
    9.1918    5.0599   24.3771 H   0  0  0  0  0  0  0  0  0  0  0  0
    6.5829    3.3411   24.4730 H   0  0  0  0  0  0  0  0  0  0  0  0
    7.6076    3.8164   25.9115 H   0  0  0  0  0  0  0  0  0  0  0  0
    9.6092    2.6948   24.8455 H   0  0  0  0  0  0  0  0  0  0  0  0
    7.6849    0.9944   22.8769 N   0  0  0  0  0  0  0  0  0  0  0  0
    6.7211   -1.1703   21.6287 H   0  0  0  0  0  0  0  0  0  0  0  0
    8.1551   -1.3889   20.6172 H   0  0  0  0  0  0  0  0  0  0  0  0
    5.4628    0.6184   20.0442 C   0  0  0  0  0  0  0  0  0  0  0  0
    5.0801    0.6248   21.0676 H   0  0  0  0  0  0  0  0  0  0  0  0
    8.0566   -0.5617   18.2000 H   0  0  0  0  0  0  0  0  0  0  0  0
    4.9580    1.8434   16.9188 H   0  0  0  0  0  0  0  0  0  0  0  0
    3.9038    1.8549   19.1803 H   0  0  0  0  0  0  0  0  0  0  0  0
  1  2  2  0
  2  3  1  0
  3  4  2  0
  4  5  1  0
  5  6  1  0
  6  7  1  0
  7  8  2  0
  8  9  1  0
  9 10  1  0
 10 11  2  0
 11 12  1  0
 12 13  2  0
 13 14  1  0
 14 15  2  0
 15 16  1  0
 16 17  2  0
 17 18  1  0
 18 19  2  0
 18 20  1  0
 17 21  1  0
 16 22  1  0
 13 23  1  0
 12 24  1  0
 11 25  1  0
  9 26  1  0
 26 27  1  0
 27 28  1  0
 28 29  1  0
 29 30  1  0
 29 31  1  0
 28 32  1  0
 28 33  1  0
 27 34  1  0
 26 35  2  0
  6 36  1  0
  6 37  1  0
  5 38  2  0
 38 39  1  0
  4 40  1  0
  2 41  1  0
  1 42  1  0
 38  1  1  0
 35  7  1  0
 19 10  1  0
 29 27  1  0
 19 14  1  0
M  END
>  <cnnaffinity>  (1) 
-6.5412

>  <filename>  (1) 
[H]c1nc([H])c(C([H])([H])c2nc(C3([H])C([H])([H])C3([H])[H])n(-c3c([H])c([H])c([H])c4nc([H])c([H])c([H])c34)n2)c([H])c1[H]

$$$$
