
     RDKit          3D

 39 41  0  0  0  0  0  0  0  0999 V2000
    5.6881    1.7359   23.3840 O   0  0  0  0  0  0  0  0  0  0  0  0
    6.9194    1.2581   22.7414 S   0  0  0  0  0  0  0  0  0  0  0  0
    7.2794    1.9838   21.5145 O   0  0  0  0  0  0  0  0  0  0  0  0
    6.6083   -0.3659   22.3881 N   0  0  0  0  0  0  0  0  0  0  0  0
    7.2155   -0.7887   21.1463 C   0  0  0  0  0  0  0  0  0  0  0  0
    6.5420   -0.0458   20.0126 C   0  0  0  0  0  0  0  0  0  0  0  0
    5.3339    0.6520   20.1612 C   0  0  0  0  0  0  0  0  0  0  0  0
    4.8292    1.3266   19.0545 C   0  0  0  0  0  0  0  0  0  0  0  0
    5.5076    1.2852   17.8362 C   0  0  0  0  0  0  0  0  0  0  0  0
    6.6567    0.6050   17.6824 N   0  0  0  0  0  0  0  0  0  0  0  0
    7.1575   -0.0327   18.7555 C   0  0  0  0  0  0  0  0  0  0  0  0
    8.0955   -0.5630   18.6296 H   0  0  0  0  0  0  0  0  0  0  0  0
    5.0918    1.8235   16.9886 H   0  0  0  0  0  0  0  0  0  0  0  0
    3.9172    1.9032   19.1320 H   0  0  0  0  0  0  0  0  0  0  0  0
    4.8177    0.6924   21.1201 H   0  0  0  0  0  0  0  0  0  0  0  0
    8.7307   -0.5360   21.2011 C   0  0  0  0  0  0  0  0  0  0  0  0
    9.3878   -1.8540   20.8300 C   0  0  0  0  0  0  0  0  0  0  0  0
    8.4270   -2.9063   21.3532 C   0  0  0  0  0  0  0  0  0  0  0  0
    7.0591   -2.3090   21.0208 C   0  0  0  0  0  0  0  0  0  0  0  0
    6.7851   -2.5681   19.9955 H   0  0  0  0  0  0  0  0  0  0  0  0
    6.2827   -2.6997   21.6840 H   0  0  0  0  0  0  0  0  0  0  0  0
    8.5437   -3.0200   22.4369 H   0  0  0  0  0  0  0  0  0  0  0  0
    8.5811   -3.8832   20.8852 H   0  0  0  0  0  0  0  0  0  0  0  0
    9.4433   -1.9114   19.7445 H   0  0  0  0  0  0  0  0  0  0  0  0
   10.3972   -1.9567   21.2403 H   0  0  0  0  0  0  0  0  0  0  0  0
    9.0327   -0.2440   22.2113 H   0  0  0  0  0  0  0  0  0  0  0  0
    9.0315    0.2592   20.5145 H   0  0  0  0  0  0  0  0  0  0  0  0
    5.6044   -0.4488   22.3401 H   0  0  0  0  0  0  0  0  0  0  0  0
    8.2634    1.1280   23.9569 C   0  0  0  0  0  0  0  0  0  0  0  0
    8.2054    0.0967   24.9106 C   0  0  0  0  0  0  0  0  0  0  0  0
    9.2379   -0.0764   25.8295 C   0  0  0  0  0  0  0  0  0  0  0  0
    9.1848   -1.5616   27.0399 Br  0  0  0  0  0  0  0  0  0  0  0  0
   10.2917    0.8412   25.8535 C   0  0  0  0  0  0  0  0  0  0  0  0
   10.3566    1.8830   24.9203 C   0  0  0  0  0  0  0  0  0  0  0  0
    9.3549    2.0159   23.9578 C   0  0  0  0  0  0  0  0  0  0  0  0
    9.4699    2.7975   23.2081 H   0  0  0  0  0  0  0  0  0  0  0  0
   11.1847    2.5880   24.9211 H   0  0  0  0  0  0  0  0  0  0  0  0
   11.0375    0.7419   26.6302 H   0  0  0  0  0  0  0  0  0  0  0  0
    7.3718   -0.6066   24.9538 H   0  0  0  0  0  0  0  0  0  0  0  0
  1  2  2  0
  2  3  2  0
  2  4  1  0
  4  5  1  0
  5  6  1  0
  6  7  2  0
  7  8  1  0
  8  9  2  0
  9 10  1  0
 10 11  2  0
 11 12  1  0
  9 13  1  0
  8 14  1  0
  7 15  1  0
  5 16  1  0
 16 17  1  0
 17 18  1  0
 18 19  1  0
 19 20  1  0
 19 21  1  0
 18 22  1  0
 18 23  1  0
 17 24  1  0
 17 25  1  0
 16 26  1  0
 16 27  1  0
  4 28  1  0
  2 29  1  0
 29 30  2  0
 30 31  1  0
 31 32  1  0
 31 33  2  0
 33 34  1  0
 34 35  2  0
 35 36  1  0
 34 37  1  0
 33 38  1  0
 30 39  1  0
 19  5  1  0
 35 29  1  0
 11  6  1  0
M  END
>  <cnnaffinity>  (1) 
-5.11865

>  <filename>  (1) 
[H]c1nc([H])c(C2(N([H])S(=O)(=O)c3c([H])c([H])c([H])c(Br)c3[H])C([H])([H])C([H])([H])C([H])([H])C2([H])[H])c([H])c1[H]

$$$$
