
     RDKit          3D

 44 47  0  0  0  0  0  0  0  0999 V2000
    4.9094    1.8977   16.9160 H   0  0  0  0  0  0  0  0  0  0  0  0
    5.3721    1.3277   17.7223 C   0  0  0  0  0  0  0  0  0  0  0  0
    6.5101    0.6804   17.4234 N   0  0  0  0  0  0  0  0  0  0  0  0
    7.1262    0.0184   18.4101 C   0  0  0  0  0  0  0  0  0  0  0  0
    8.0569   -0.4639   18.1191 H   0  0  0  0  0  0  0  0  0  0  0  0
    6.6623   -0.0483   19.7413 C   0  0  0  0  0  0  0  0  0  0  0  0
    7.4592   -0.6328   20.8462 C   0  0  0  0  0  0  0  0  0  0  0  0
    7.6838   -0.1369   22.1171 C   0  0  0  0  0  0  0  0  0  0  0  0
    8.5602   -1.0320   22.7298 C   0  0  0  0  0  0  0  0  0  0  0  0
    8.8896   -2.0402   21.9463 N   0  0  0  0  0  0  0  0  0  0  0  0
    8.2157   -1.7707   20.8009 N   0  0  0  0  0  0  0  0  0  0  0  0
    8.2694   -2.4372   20.0445 H   0  0  0  0  0  0  0  0  0  0  0  0
    8.8952   -0.6534   24.1421 C   0  0  0  0  0  0  0  0  0  0  0  0
    9.9713   -0.5151   24.2907 H   0  0  0  0  0  0  0  0  0  0  0  0
    8.5464   -1.3929   24.8677 H   0  0  0  0  0  0  0  0  0  0  0  0
    8.1266    0.6824   24.3355 C   0  0  2  0  0  0  0  0  0  0  0  0
    8.8619    1.4961   24.4343 H   0  0  0  0  0  0  0  0  0  0  0  0
    7.3162    0.5879   25.5017 O   0  0  0  0  0  0  0  0  0  0  0  0
    6.8696    1.8079   26.0703 C   0  0  0  0  0  0  0  0  0  0  0  0
    6.8569    2.6211   25.3207 H   0  0  0  0  0  0  0  0  0  0  0  0
    7.8100    2.2090   27.2039 C   0  0  0  0  0  0  0  0  0  0  0  0
    7.8678    1.3807   27.9197 H   0  0  0  0  0  0  0  0  0  0  0  0
    8.8231    2.3766   26.8151 H   0  0  0  0  0  0  0  0  0  0  0  0
    7.2861    3.4627   27.8919 C   0  0  0  0  0  0  0  0  0  0  0  0
    7.8628    3.6567   28.7957 H   0  0  0  0  0  0  0  0  0  0  0  0
    7.3983    4.3348   27.2069 H   0  0  0  0  0  0  0  0  0  0  0  0
    5.9167    3.2908   28.3615 N   0  0  0  0  0  0  0  0  0  0  0  0
    5.5092    4.4221   29.1799 C   0  0  0  0  0  0  0  0  0  0  0  0
    4.5258    4.2495   29.6285 H   0  0  0  0  0  0  0  0  0  0  0  0
    6.2208    4.5480   30.0071 H   0  0  0  0  0  0  0  0  0  0  0  0
    5.4804    5.3797   28.6253 H   0  0  0  0  0  0  0  0  0  0  0  0
    4.9834    2.9304   27.2968 C   0  0  0  0  0  0  0  0  0  0  0  0
    4.8780    3.7416   26.5432 H   0  0  0  0  0  0  0  0  0  0  0  0
    3.9911    2.7693   27.7384 H   0  0  0  0  0  0  0  0  0  0  0  0
    5.4446    1.6398   26.6058 C   0  0  0  0  0  0  0  0  0  0  0  0
    4.7702    1.3763   25.7797 H   0  0  0  0  0  0  0  0  0  0  0  0
    5.4281    0.8125   27.3286 H   0  0  0  0  0  0  0  0  0  0  0  0
    7.2608    0.9454   23.0599 C   0  0  0  0  0  0  0  0  0  0  0  0
    6.2006    0.8549   23.3303 H   0  0  0  0  0  0  0  0  0  0  0  0
    7.4157    1.9559   22.6631 H   0  0  0  0  0  0  0  0  0  0  0  0
    5.4393    0.5924   20.0128 C   0  0  0  0  0  0  0  0  0  0  0  0
    5.0013    0.5393   21.0106 H   0  0  0  0  0  0  0  0  0  0  0  0
    4.7920    1.2914   18.9936 C   0  0  0  0  0  0  0  0  0  0  0  0
    3.8719    1.8345   19.1753 H   0  0  0  0  0  0  0  0  0  0  0  0
  1  2  1  0
  2  3  2  0
  3  4  1  0
  4  5  1  0
  4  6  2  0
  6  7  1  0
  7  8  2  0
  8  9  1  0
  9 10  2  0
 10 11  1  0
 11 12  1  0
  9 13  1  0
 13 14  1  0
 13 15  1  0
 13 16  1  0
 16 17  1  1
 16 18  1  0
 18 19  1  0
 19 20  1  0
 19 21  1  0
 21 22  1  0
 21 23  1  0
 21 24  1  0
 24 25  1  0
 24 26  1  0
 24 27  1  0
 27 28  1  0
 28 29  1  0
 28 30  1  0
 28 31  1  0
 27 32  1  0
 32 33  1  0
 32 34  1  0
 32 35  1  0
 35 36  1  0
 35 37  1  0
 16 38  1  0
 38 39  1  0
 38 40  1  0
  6 41  1  0
 41 42  1  0
 41 43  2  0
 43 44  1  0
 43  2  1  0
 11  7  1  0
 35 19  1  0
 38  8  1  0
M  END
>  <cnnaffinity>  (1) 
-4.79837

>  <filename>  (1) 
[H]c1nc([H])c(-c2c3c(nn2[H])C([H])([H])[C@]([H])(OC2([H])C([H])([H])C([H])([H])N(C([H])([H])[H])C([H])([H])C2([H])[H])C3([H])[H])c([H])c1[H]

$$$$
