
     RDKit          3D

 29 31  0  0  0  0  0  0  0  0999 V2000
    8.7165   -0.4058   25.2136 H   0  0  0  0  0  0  0  0  0  0  0  0
    8.0594    0.0707   24.4842 C   0  0  0  0  0  0  0  0  0  0  0  0
    7.3557    1.1744   24.8388 C   0  0  0  0  0  0  0  0  0  0  0  0
    6.1615    2.0378   23.8746 S   0  0  0  0  0  0  0  0  0  0  0  0
    5.8476    3.1683   25.2089 C   0  0  0  0  0  0  0  0  0  0  0  0
    5.0720    4.0824   25.2214 O   0  0  0  0  0  0  0  0  0  0  0  0
    6.6342    2.8531   26.2771 N   0  0  0  0  0  0  0  0  0  0  0  0
    6.5732    3.3955   27.1179 H   0  0  0  0  0  0  0  0  0  0  0  0
    7.4820    1.7919   26.2012 C   0  0  0  0  0  0  0  0  0  0  0  0
    8.1887    1.4563   27.1185 O   0  0  0  0  0  0  0  0  0  0  0  0
    8.0079   -0.5901   23.2037 C   0  0  0  0  0  0  0  0  0  0  0  0
    7.3520   -0.0142   22.2200 N   0  0  0  0  0  0  0  0  0  0  0  0
    7.3688   -0.6117   21.0078 N   0  0  0  0  0  0  0  0  0  0  0  0
    6.6726    0.0428   19.9359 C   0  0  0  0  0  0  0  0  0  0  0  0
    7.1773    0.0614   18.6192 C   0  0  0  0  0  0  0  0  0  0  0  0
    8.1302   -0.4115   18.3827 H   0  0  0  0  0  0  0  0  0  0  0  0
    6.5644    0.6680   17.5968 N   0  0  0  0  0  0  0  0  0  0  0  0
    5.3979    1.2857   17.8439 C   0  0  0  0  0  0  0  0  0  0  0  0
    4.9284    1.7830   16.9971 H   0  0  0  0  0  0  0  0  0  0  0  0
    4.8035    1.3024   19.1107 C   0  0  0  0  0  0  0  0  0  0  0  0
    3.8729    1.8367   19.2556 H   0  0  0  0  0  0  0  0  0  0  0  0
    5.4462    0.6672   20.1792 C   0  0  0  0  0  0  0  0  0  0  0  0
    5.0593    0.6379   21.1978 H   0  0  0  0  0  0  0  0  0  0  0  0
    7.9191   -1.8482   20.8160 C   0  0  0  0  0  0  0  0  0  0  0  0
    7.6940   -2.1867   19.8245 H   0  0  0  0  0  0  0  0  0  0  0  0
    8.5862   -2.5261   21.7642 C   0  0  0  0  0  0  0  0  0  0  0  0
    9.0457   -3.4911   21.6160 H   0  0  0  0  0  0  0  0  0  0  0  0
    8.7011   -1.9382   23.0894 C   0  0  0  0  0  0  0  0  0  0  0  0
    9.2813   -2.4830   24.0201 O   0  0  0  0  0  0  0  0  0  0  0  0
  1  2  1  0
  2  3  2  3
  3  4  1  0
  4  5  1  0
  5  6  2  0
  5  7  1  0
  7  8  1  0
  7  9  1  0
  9 10  2  0
  2 11  1  0
 11 12  2  0
 12 13  1  0
 13 14  1  0
 14 15  2  0
 15 16  1  0
 15 17  1  0
 17 18  2  0
 18 19  1  0
 18 20  1  0
 20 21  1  0
 20 22  2  0
 22 23  1  0
 13 24  1  0
 24 25  1  0
 24 26  2  0
 26 27  1  0
 26 28  1  0
 28 29  2  0
  9  3  1  0
 28 11  1  0
 22 14  1  0
M  END
>  <cnnaffinity>  (1) 
-5.57157

>  <filename>  (1) 
[H]C(=C1SC(=O)N([H])C1=O)c1nn(-c2c([H])nc([H])c([H])c2[H])c([H])c([H])c1=O

$$$$
