
     RDKit          3D

 32 33  0  0  0  0  0  0  0  0999 V2000
   13.0701    5.8164   23.3003 C   0  0  0  0  0  0  0  0  0  0  0  0
   11.6576    5.7258   23.5464 O   0  0  0  0  0  0  0  0  0  0  0  0
   11.0955    4.5337   23.1592 C   0  0  0  0  0  0  0  0  0  0  0  0
    9.7413    4.4930   22.8354 C   0  0  0  0  0  0  0  0  0  0  0  0
    9.1376    3.2927   22.4129 C   0  0  0  0  0  0  0  0  0  0  0  0
    9.8926    2.1143   22.3109 C   0  0  0  0  0  0  0  0  0  0  0  0
    9.3347    0.9101   21.8624 N   0  0  0  0  0  0  0  0  0  0  0  0
    7.9828    0.5623   21.9147 C   0  0  0  0  0  0  0  0  0  0  0  0
    7.2334    1.2841   22.5717 O   0  0  0  0  0  0  0  0  0  0  0  0
    7.4170   -0.5863   21.0091 C   0  0  0  0  0  0  0  0  0  0  0  0
    6.5797   -1.4376   21.6759 F   0  0  0  0  0  0  0  0  0  0  0  0
    8.4201   -1.3719   20.5114 F   0  0  0  0  0  0  0  0  0  0  0  0
    6.6585    0.0242   19.8510 C   0  0  0  0  0  0  0  0  0  0  0  0
    5.4867    0.7479   20.0780 C   0  0  0  0  0  0  0  0  0  0  0  0
    4.8746    1.3495   18.9838 C   0  0  0  0  0  0  0  0  0  0  0  0
    5.4393    1.2242   17.7117 C   0  0  0  0  0  0  0  0  0  0  0  0
    6.5689    0.5290   17.4950 N   0  0  0  0  0  0  0  0  0  0  0  0
    7.1637   -0.0567   18.5461 C   0  0  0  0  0  0  0  0  0  0  0  0
    8.1006   -0.5807   18.3842 H   0  0  0  0  0  0  0  0  0  0  0  0
    4.9534    1.7119   16.8707 H   0  0  0  0  0  0  0  0  0  0  0  0
    3.9766    1.9404   19.1138 H   0  0  0  0  0  0  0  0  0  0  0  0
    5.0776    0.8666   21.0819 H   0  0  0  0  0  0  0  0  0  0  0  0
    9.9865    0.2165   21.4953 H   0  0  0  0  0  0  0  0  0  0  0  0
   11.2564    2.1485   22.6276 C   0  0  0  0  0  0  0  0  0  0  0  0
   12.3170    0.5496   22.5522 Br  0  0  0  0  0  0  0  0  0  0  0  0
   11.8430    3.3478   23.0540 C   0  0  0  0  0  0  0  0  0  0  0  0
   12.8958    3.3586   23.3006 H   0  0  0  0  0  0  0  0  0  0  0  0
    8.0877    3.2817   22.1383 H   0  0  0  0  0  0  0  0  0  0  0  0
    9.1815    5.4204   22.9026 H   0  0  0  0  0  0  0  0  0  0  0  0
   13.6189    5.1351   23.9675 H   0  0  0  0  0  0  0  0  0  0  0  0
   13.2856    5.5406   22.2597 H   0  0  0  0  0  0  0  0  0  0  0  0
   13.4141    6.8445   23.4616 H   0  0  0  0  0  0  0  0  0  0  0  0
  1  2  1  0
  2  3  1  0
  3  4  2  0
  4  5  1  0
  5  6  2  0
  6  7  1  0
  7  8  1  0
  8  9  2  0
  8 10  1  0
 10 11  1  0
 10 12  1  0
 10 13  1  0
 13 14  2  0
 14 15  1  0
 15 16  2  0
 16 17  1  0
 17 18  2  0
 18 19  1  0
 16 20  1  0
 15 21  1  0
 14 22  1  0
  7 23  1  0
  6 24  1  0
 24 25  1  0
 24 26  2  0
 26 27  1  0
  5 28  1  0
  4 29  1  0
  1 30  1  0
  1 31  1  0
  1 32  1  0
 26  3  1  0
 18 13  1  0
M  END
>  <cnnaffinity>  (1) 
-4.99646

>  <filename>  (1) 
[H]c1nc([H])c(C(F)(F)C(=O)N([H])c2c([H])c([H])c(OC([H])([H])[H])c([H])c2Br)c([H])c1[H]

$$$$
