
     RDKit          3D

 32 34  0  0  0  0  0  0  0  0999 V2000
    5.1882    1.7855   16.7337 H   0  0  0  0  0  0  0  0  0  0  0  0
    5.5451    1.2984   17.6389 C   0  0  0  0  0  0  0  0  0  0  0  0
    6.5738    0.4524   17.4882 N   0  0  0  0  0  0  0  0  0  0  0  0
    7.0090   -0.1754   18.5859 C   0  0  0  0  0  0  0  0  0  0  0  0
    7.8113   -0.8928   18.4199 H   0  0  0  0  0  0  0  0  0  0  0  0
    6.5011    0.0166   19.9035 C   0  0  0  0  0  0  0  0  0  0  0  0
    7.1074   -0.7186   21.0643 C   0  0  0  0  0  0  0  0  0  0  0  0
    7.1640   -0.1390   22.2804 N   0  0  0  0  0  0  0  0  0  0  0  0
    7.9168   -0.8109   23.1731 N   0  0  0  0  0  0  0  0  0  0  0  0
    7.8027   -0.4004   24.4413 N   0  0  0  0  0  0  0  0  0  0  0  0
    7.2332    0.4411   24.3737 H   0  0  0  0  0  0  0  0  0  0  0  0
    8.9112   -0.3319   25.3875 C   0  0  0  0  0  0  0  0  0  0  0  0
   10.1698    0.1252   24.9815 C   0  0  0  0  0  0  0  0  0  0  0  0
   10.2632    0.3156   23.9158 H   0  0  0  0  0  0  0  0  0  0  0  0
   11.2027    0.3403   25.9073 C   0  0  0  0  0  0  0  0  0  0  0  0
   12.1643    0.7076   25.5617 H   0  0  0  0  0  0  0  0  0  0  0  0
   10.9504    0.0747   27.2576 C   0  0  0  0  0  0  0  0  0  0  0  0
   12.1221    0.6373   28.6203 Cl  0  0  0  0  0  0  0  0  0  0  0  0
    9.7242   -0.4557   27.6766 C   0  0  0  0  0  0  0  0  0  0  0  0
    9.5692   -0.6294   28.7372 H   0  0  0  0  0  0  0  0  0  0  0  0
    8.6982   -0.6445   26.7410 C   0  0  0  0  0  0  0  0  0  0  0  0
    7.7166   -0.9867   27.0561 H   0  0  0  0  0  0  0  0  0  0  0  0
    8.7565   -1.8376   22.8169 C   0  0  0  0  0  0  0  0  0  0  0  0
    9.4555   -2.1238   23.5854 H   0  0  0  0  0  0  0  0  0  0  0  0
    8.6781   -2.4074   21.5668 C   0  0  0  0  0  0  0  0  0  0  0  0
    9.1633   -3.3310   21.2609 H   0  0  0  0  0  0  0  0  0  0  0  0
    7.3638   -2.2182   20.7551 C   0  0  0  0  0  0  0  0  0  0  0  0
    7.4015   -2.1673   20.7662 O   0  0  0  0  0  0  0  0  0  0  0  0
    5.4239    0.9263   20.0190 C   0  0  0  0  0  0  0  0  0  0  0  0
    4.9733    1.1283   20.9919 H   0  0  0  0  0  0  0  0  0  0  0  0
    4.9335    1.5489   18.8705 C   0  0  0  0  0  0  0  0  0  0  0  0
    4.0863    2.2250   18.9137 H   0  0  0  0  0  0  0  0  0  0  0  0
  1  2  1  0
  2  3  2  0
  3  4  1  0
  4  5  1  0
  4  6  2  0
  6  7  1  0
  7  8  2  0
  8  9  1  0
  9 10  1  0
 10 11  1  0
 10 12  1  0
 12 13  2  0
 13 14  1  0
 13 15  1  0
 15 16  1  0
 15 17  2  0
 17 18  1  0
 17 19  1  0
 19 20  1  0
 19 21  2  0
 21 22  1  0
  9 23  1  0
 23 24  1  0
 23 25  2  0
 25 26  1  0
 25 27  1  0
 27 28  2  0
  6 29  1  0
 29 30  1  0
 29 31  2  0
 31 32  1  0
 31  2  1  0
 27  7  1  0
 21 12  1  0
M  END
>  <cnnaffinity>  (1) 
-5.04888

>  <filename>  (1) 
[H]c1nc([H])c(-c2nn(N([H])c3c([H])c([H])c(Cl)c([H])c3[H])c([H])c([H])c2=O)c([H])c1[H]

$$$$
