
     RDKit          3D

 39 42  0  0  0  0  0  0  0  0999 V2000
   11.3063   -1.5513   22.3103 C   0  0  0  0  0  0  0  0  0  0  0  0
   10.0495   -2.3915   22.1401 C   0  0  0  0  0  0  0  0  0  0  0  0
    8.8239   -1.6319   21.9830 N   0  0  0  0  0  0  0  0  0  0  0  0
    8.5059   -1.1692   20.7553 N   0  0  0  0  0  0  0  0  0  0  0  0
    7.3109   -0.6423   20.9430 C   0  0  0  0  0  0  0  0  0  0  0  0
    6.5734    0.0167   19.8727 C   0  0  0  0  0  0  0  0  0  0  0  0
    5.3561    0.6795   20.0888 C   0  0  0  0  0  0  0  0  0  0  0  0
    4.7774    1.3344   19.0051 C   0  0  0  0  0  0  0  0  0  0  0  0
    5.4310    1.3041   17.7663 C   0  0  0  0  0  0  0  0  0  0  0  0
    6.5861    0.6583   17.5498 N   0  0  0  0  0  0  0  0  0  0  0  0
    7.1406    0.0329   18.5907 C   0  0  0  0  0  0  0  0  0  0  0  0
    8.0852   -0.4767   18.4082 H   0  0  0  0  0  0  0  0  0  0  0  0
    5.0133    1.8216   16.9076 H   0  0  0  0  0  0  0  0  0  0  0  0
    3.8543    1.8917   19.1096 H   0  0  0  0  0  0  0  0  0  0  0  0
    4.9004    0.6959   21.0823 H   0  0  0  0  0  0  0  0  0  0  0  0
    6.8460   -0.7365   22.2089 N   0  0  0  0  0  0  0  0  0  0  0  0
    7.8220   -1.3559   22.8461 C   0  0  0  0  0  0  0  0  0  0  0  0
    7.8814   -1.7507   24.2742 C   0  0  1  0  0  0  0  0  0  0  0  0
    8.7953   -1.0885   25.2683 C   0  0  0  0  0  0  0  0  0  0  0  0
    7.3130   -0.8331   25.3331 C   0  0  2  0  0  0  0  0  0  0  0  0
    6.4380   -1.3730   26.4171 C   0  0  0  0  0  0  0  0  0  0  0  0
    6.5276   -2.6924   26.8932 C   0  0  0  0  0  0  0  0  0  0  0  0
    5.5950   -3.1444   27.8252 C   0  0  0  0  0  0  0  0  0  0  0  0
    4.6351   -2.3739   28.3524 N   0  0  0  0  0  0  0  0  0  0  0  0
    4.5789   -1.1020   27.9362 C   0  0  0  0  0  0  0  0  0  0  0  0
    5.4402   -0.5622   26.9815 C   0  0  0  0  0  0  0  0  0  0  0  0
    5.3160    0.4695   26.6699 H   0  0  0  0  0  0  0  0  0  0  0  0
    3.7826   -0.4939   28.3668 H   0  0  0  0  0  0  0  0  0  0  0  0
    5.6162   -4.1824   28.1586 H   0  0  0  0  0  0  0  0  0  0  0  0
    7.3012   -3.3767   26.5633 H   0  0  0  0  0  0  0  0  0  0  0  0
    6.9901    0.1418   24.9599 H   0  0  0  0  0  0  0  0  0  0  0  0
    9.4457   -0.2843   24.9278 H   0  0  0  0  0  0  0  0  0  0  0  0
    9.2142   -1.7171   26.0471 H   0  0  0  0  0  0  0  0  0  0  0  0
    7.7244   -2.8212   24.4173 H   0  0  0  0  0  0  0  0  0  0  0  0
    9.9302   -3.0666   22.9950 H   0  0  0  0  0  0  0  0  0  0  0  0
   10.1127   -2.9594   21.2157 H   0  0  0  0  0  0  0  0  0  0  0  0
   11.4904   -0.9373   21.4272 H   0  0  0  0  0  0  0  0  0  0  0  0
   12.1686   -2.2113   22.4319 H   0  0  0  0  0  0  0  0  0  0  0  0
   11.2465   -0.8968   23.1835 H   0  0  0  0  0  0  0  0  0  0  0  0
  1  2  1  0
  2  3  1  0
  3  4  1  0
  4  5  2  0
  5  6  1  0
  6  7  2  0
  7  8  1  0
  8  9  2  0
  9 10  1  0
 10 11  2  0
 11 12  1  0
  9 13  1  0
  8 14  1  0
  7 15  1  0
  5 16  1  0
 16 17  2  0
 17 18  1  0
 18 19  1  0
 19 20  1  0
 20 21  1  0
 21 22  2  0
 22 23  1  0
 23 24  2  0
 24 25  1  0
 25 26  2  0
 26 27  1  0
 25 28  1  0
 23 29  1  0
 22 30  1  0
 20 31  1  6
 19 32  1  0
 19 33  1  0
 18 34  1  6
  2 35  1  0
  2 36  1  0
  1 37  1  0
  1 38  1  0
  1 39  1  0
 17  3  1  0
 20 18  1  0
 26 21  1  0
 11  6  1  0
M  END
>  <cnnaffinity>  (1) 
-5.83951

>  <filename>  (1) 
[H]c1nc([H])c(-c2nc([C@@]3([H])C([H])([H])[C@]3([H])c3c([H])c([H])nc([H])c3[H])n(C([H])([H])C([H])([H])[H])n2)c([H])c1[H]

$$$$
