
     RDKit          3D

 38 39  0  0  0  0  0  0  0  0999 V2000
    4.9724    1.7209   16.8483 H   0  0  0  0  0  0  0  0  0  0  0  0
    5.4142    1.3256   17.7630 C   0  0  0  0  0  0  0  0  0  0  0  0
    6.6134    0.7351   17.6461 N   0  0  0  0  0  0  0  0  0  0  0  0
    7.1838    0.2651   18.7645 C   0  0  0  0  0  0  0  0  0  0  0  0
    8.1584   -0.2062   18.6174 H   0  0  0  0  0  0  0  0  0  0  0  0
    6.6060    0.3393   20.0416 C   0  0  0  0  0  0  0  0  0  0  0  0
    7.3081   -0.2846   21.2415 C   0  0  2  0  0  0  0  0  0  0  0  0
    6.5832    0.0476   22.4008 F   0  0  0  0  0  0  0  0  0  0  0  0
    8.7163    0.2696   21.4347 C   0  0  0  0  0  0  0  0  0  0  0  0
    9.1854   -0.1821   22.3121 H   0  0  0  0  0  0  0  0  0  0  0  0
    8.6810    1.3531   21.5827 H   0  0  0  0  0  0  0  0  0  0  0  0
    9.3451    0.0554   20.5662 H   0  0  0  0  0  0  0  0  0  0  0  0
    7.2585   -1.8050   21.1074 C   0  0  0  0  0  0  0  0  0  0  0  0
    6.2171   -2.0614   20.8849 H   0  0  0  0  0  0  0  0  0  0  0  0
    7.8510   -2.0992   20.2345 H   0  0  0  0  0  0  0  0  0  0  0  0
    7.7231   -2.6105   22.3174 C   0  0  0  0  0  0  0  0  0  0  0  0
    8.7755   -2.3686   22.5279 H   0  0  0  0  0  0  0  0  0  0  0  0
    7.1452   -2.3157   23.2195 H   0  0  0  0  0  0  0  0  0  0  0  0
    7.6545   -4.0319   22.0276 N   0  0  0  0  0  0  0  0  0  0  0  0
    8.1216   -4.9210   23.0865 C   0  0  0  0  0  0  0  0  0  0  0  0
    9.2179   -4.9043   23.1279 H   0  0  0  0  0  0  0  0  0  0  0  0
    7.7539   -4.6121   24.0886 H   0  0  0  0  0  0  0  0  0  0  0  0
    7.5367   -6.3093   22.7223 C   0  0  0  0  0  0  0  0  0  0  0  0
    8.2827   -7.1056   22.6336 H   0  0  0  0  0  0  0  0  0  0  0  0
    6.8327   -6.5966   23.5065 H   0  0  0  0  0  0  0  0  0  0  0  0
    6.7938   -6.0705   21.3991 C   0  0  0  0  0  0  0  0  0  0  0  0
    5.9039   -6.6943   21.2792 H   0  0  0  0  0  0  0  0  0  0  0  0
    7.4552   -6.2379   20.5427 H   0  0  0  0  0  0  0  0  0  0  0  0
    6.4179   -4.5930   21.4733 C   0  0  1  0  0  0  0  0  0  0  0  0
    6.2386   -4.1963   20.4617 H   0  0  0  0  0  0  0  0  0  0  0  0
    5.1616   -4.3697   22.3330 C   0  0  0  0  0  0  0  0  0  0  0  0
    4.8383   -3.3270   22.3424 H   0  0  0  0  0  0  0  0  0  0  0  0
    4.3257   -4.9750   21.9705 H   0  0  0  0  0  0  0  0  0  0  0  0
    5.3372   -4.6574   23.3755 H   0  0  0  0  0  0  0  0  0  0  0  0
    5.3377    0.9360   20.1372 C   0  0  0  0  0  0  0  0  0  0  0  0
    4.8523    1.0056   21.1099 H   0  0  0  0  0  0  0  0  0  0  0  0
    4.7373    1.4395   18.9825 C   0  0  0  0  0  0  0  0  0  0  0  0
    3.7689    1.9288   19.0239 H   0  0  0  0  0  0  0  0  0  0  0  0
  1  2  1  0
  2  3  2  0
  3  4  1  0
  4  5  1  0
  4  6  2  0
  6  7  1  0
  7  8  1  1
  7  9  1  0
  9 10  1  0
  9 11  1  0
  9 12  1  0
  7 13  1  0
 13 14  1  0
 13 15  1  0
 13 16  1  0
 16 17  1  0
 16 18  1  0
 16 19  1  0
 19 20  1  0
 20 21  1  0
 20 22  1  0
 20 23  1  0
 23 24  1  0
 23 25  1  0
 23 26  1  0
 26 27  1  0
 26 28  1  0
 26 29  1  0
 29 30  1  6
 29 31  1  0
 31 32  1  0
 31 33  1  0
 31 34  1  0
  6 35  1  0
 35 36  1  0
 35 37  2  0
 37 38  1  0
 37  2  1  0
 29 19  1  0
M  END
>  <cnnaffinity>  (1) 
-4.74323

>  <filename>  (1) 
[H]c1nc([H])c([C@](F)(C([H])([H])[H])C([H])([H])C([H])([H])N2C([H])([H])C([H])([H])C([H])([H])[C@@]2([H])C([H])([H])[H])c([H])c1[H]

$$$$
