
     RDKit          3D

 39 40  0  0  0  0  0  0  0  0999 V2000
    7.4378    2.5409   24.3057 C   0  0  0  0  0  0  0  0  0  0  0  0
    8.1955    1.7300   23.3957 O   0  0  0  0  0  0  0  0  0  0  0  0
    8.7089    0.5541   23.8396 C   0  0  0  0  0  0  0  0  0  0  0  0
    8.6859    0.1767   24.9828 O   0  0  0  0  0  0  0  0  0  0  0  0
    9.3332   -0.2317   22.6445 C   0  0  0  0  0  0  0  0  0  0  0  0
    8.5894   -0.0434   21.3006 N   0  0  0  0  0  4  0  0  0  0  0  0
    7.2031   -0.5885   21.1572 C   0  0  2  0  0  0  0  0  0  0  0  0
    7.2749   -2.1062   21.0311 C   0  0  0  0  0  0  0  0  0  0  0  0
    7.5240   -2.5466   22.0003 H   0  0  0  0  0  0  0  0  0  0  0  0
    6.3524   -2.5449   20.6509 H   0  0  0  0  0  0  0  0  0  0  0  0
    8.0924   -2.3416   20.3560 H   0  0  0  0  0  0  0  0  0  0  0  0
    6.5601    0.1386   20.0006 C   0  0  0  0  0  0  0  0  0  0  0  0
    5.3267    0.8097   20.1276 C   0  0  0  0  0  0  0  0  0  0  0  0
    4.7677    1.4167   18.9983 C   0  0  0  0  0  0  0  0  0  0  0  0
    5.4619    1.3406   17.7868 C   0  0  0  0  0  0  0  0  0  0  0  0
    6.6330    0.7052   17.6439 N   0  0  0  0  0  0  0  0  0  0  0  0
    7.1570    0.1308   18.7338 C   0  0  0  0  0  0  0  0  0  0  0  0
    8.1069   -0.3812   18.5767 H   0  0  0  0  0  0  0  0  0  0  0  0
    5.0556    1.7941   16.8846 H   0  0  0  0  0  0  0  0  0  0  0  0
    3.8196    1.9484   19.0357 H   0  0  0  0  0  0  0  0  0  0  0  0
    4.8133    0.8717   21.0915 H   0  0  0  0  0  0  0  0  0  0  0  0
    6.6331   -0.3493   22.0608 H   0  0  0  0  0  0  0  0  0  0  0  0
    9.2031   -0.4408   20.5414 H   0  0  0  0  0  0  0  0  0  0  0  0
    8.5480    1.0003   21.1650 H   0  0  0  0  0  0  0  0  0  0  0  0
   10.8076    0.1214   22.4286 C   0  0  0  0  0  0  0  0  0  0  0  0
   11.7512   -0.9206   22.3996 C   0  0  0  0  0  0  0  0  0  0  0  0
   13.1241   -0.6431   22.3543 C   0  0  0  0  0  0  0  0  0  0  0  0
   13.5645    0.6781   22.3081 C   0  0  0  0  0  0  0  0  0  0  0  0
   12.6338    1.7257   22.2732 C   0  0  0  0  0  0  0  0  0  0  0  0
   11.2635    1.4509   22.3213 C   0  0  0  0  0  0  0  0  0  0  0  0
   10.5507    2.2740   22.2675 H   0  0  0  0  0  0  0  0  0  0  0  0
   12.9760    2.7545   22.1979 H   0  0  0  0  0  0  0  0  0  0  0  0
   14.6320    0.8814   22.2577 H   0  0  0  0  0  0  0  0  0  0  0  0
   13.8606   -1.4440   22.3541 H   0  0  0  0  0  0  0  0  0  0  0  0
   11.3990   -1.9503   22.4129 H   0  0  0  0  0  0  0  0  0  0  0  0
    9.2840   -1.2724   22.9771 H   0  0  0  0  0  0  0  0  0  0  0  0
    6.5273    2.0334   24.6437 H   0  0  0  0  0  0  0  0  0  0  0  0
    8.0190    2.8287   25.1872 H   0  0  0  0  0  0  0  0  0  0  0  0
    7.1706    3.4305   23.7323 H   0  0  0  0  0  0  0  0  0  0  0  0
  1  2  1  0
  2  3  1  0
  3  4  2  0
  3  5  1  0
  5  6  1  0
  6  7  1  0
  7  8  1  0
  8  9  1  0
  8 10  1  0
  8 11  1  0
  7 12  1  0
 12 13  2  0
 13 14  1  0
 14 15  2  0
 15 16  1  0
 16 17  2  0
 17 18  1  0
 15 19  1  0
 14 20  1  0
 13 21  1  0
  7 22  1  1
  6 23  1  0
  6 24  1  0
  5 25  1  0
 25 26  2  0
 26 27  1  0
 27 28  2  0
 28 29  1  0
 29 30  2  0
 30 31  1  0
 29 32  1  0
 28 33  1  0
 27 34  1  0
 26 35  1  0
  5 36  1  0
  1 37  1  0
  1 38  1  0
  1 39  1  0
 17 12  1  0
 30 25  1  0
M  CHG  1   6   1
M  END
>  <cnnaffinity>  (1) 
-4.84499

>  <filename>  (1) 
[H]c1nc([H])c([C@@]([H])(C([H])([H])[H])[N+]([H])([H])C([H])(C(=O)OC([H])([H])[H])c2c([H])c([H])c([H])c([H])c2[H])c([H])c1[H]

$$$$
