
     RDKit          3D

 50 54  0  0  0  0  0  0  0  0999 V2000
   11.0057   -0.4314   23.5976 C   0  0  0  0  0  0  0  0  0  0  0  0
   11.2225   -1.3192   22.3727 C   0  0  0  0  0  0  0  0  0  0  0  0
   10.0833   -2.3473   22.1831 C   0  0  0  0  0  0  0  0  0  0  0  0
    8.7487   -1.7729   22.0136 N   0  0  0  0  0  0  0  0  0  0  0  0
    8.4092   -1.3009   20.7920 N   0  0  0  0  0  0  0  0  0  0  0  0
    7.2621   -0.6809   21.0064 C   0  0  0  0  0  0  0  0  0  0  0  0
    6.5602    0.0219   19.9372 C   0  0  0  0  0  0  0  0  0  0  0  0
    5.3465    0.6999   20.1312 C   0  0  0  0  0  0  0  0  0  0  0  0
    4.7772    1.3437   19.0358 C   0  0  0  0  0  0  0  0  0  0  0  0
    5.4334    1.2939   17.8005 C   0  0  0  0  0  0  0  0  0  0  0  0
    6.5901    0.6446   17.6046 N   0  0  0  0  0  0  0  0  0  0  0  0
    7.1355    0.0274   18.6562 C   0  0  0  0  0  0  0  0  0  0  0  0
    8.0735   -0.4918   18.4663 H   0  0  0  0  0  0  0  0  0  0  0  0
    5.0079    1.7940   16.9335 H   0  0  0  0  0  0  0  0  0  0  0  0
    3.8461    1.8902   19.1270 H   0  0  0  0  0  0  0  0  0  0  0  0
    4.8679    0.7253   21.1122 H   0  0  0  0  0  0  0  0  0  0  0  0
    6.8349   -0.7390   22.2913 N   0  0  0  0  0  0  0  0  0  0  0  0
    7.7739   -1.4417   22.9038 C   0  0  0  0  0  0  0  0  0  0  0  0
    7.7871   -1.9079   24.3412 C   0  0  0  0  0  0  0  0  0  0  0  0
    7.1414   -3.3169   24.5220 C   0  0  0  0  0  0  0  0  0  0  0  0
    5.6350   -3.2729   24.2532 C   0  0  0  0  0  0  0  0  0  0  0  0
    5.0139   -2.2294   25.0707 N   0  0  0  0  0  0  0  0  0  0  0  0
    3.6821   -2.0496   25.2879 C   0  0  0  0  0  0  0  0  0  0  0  0
    3.3873   -0.8256   25.6405 N   0  0  0  0  0  0  0  0  0  0  0  0
    4.5919   -0.1616   25.6360 C   0  0  0  0  0  0  0  0  0  0  0  0
    5.6163   -1.0042   25.3056 C   0  0  0  0  0  0  0  0  0  0  0  0
    7.1123   -0.8851   25.2893 C   0  0  0  0  0  0  0  0  0  0  0  0
    7.3897    0.1397   25.0255 H   0  0  0  0  0  0  0  0  0  0  0  0
    7.4883   -1.0562   26.3088 H   0  0  0  0  0  0  0  0  0  0  0  0
    4.6484    0.8950   25.8796 H   0  0  0  0  0  0  0  0  0  0  0  0
    2.9798   -2.8704   25.1778 H   0  0  0  0  0  0  0  0  0  0  0  0
    5.4502   -3.0337   23.1948 H   0  0  0  0  0  0  0  0  0  0  0  0
    5.1467   -4.2252   24.4837 H   0  0  0  0  0  0  0  0  0  0  0  0
    7.3120   -3.6614   25.5498 H   0  0  0  0  0  0  0  0  0  0  0  0
    7.6097   -4.0474   23.8527 H   0  0  0  0  0  0  0  0  0  0  0  0
    8.8407   -1.9788   24.6373 H   0  0  0  0  0  0  0  0  0  0  0  0
   10.0709   -3.0753   23.0036 H   0  0  0  0  0  0  0  0  0  0  0  0
   10.2362   -2.8899   21.2521 H   0  0  0  0  0  0  0  0  0  0  0  0
   11.5576   -0.5752   21.0507 C   0  0  0  0  0  0  0  0  0  0  0  0
   12.7183   -1.5767   20.7879 C   0  0  0  0  0  0  0  0  0  0  0  0
   12.6159   -1.9792   22.2588 C   0  0  0  0  0  0  0  0  0  0  0  0
   12.6651   -3.0341   22.5365 H   0  0  0  0  0  0  0  0  0  0  0  0
   13.3613   -1.4093   22.8198 H   0  0  0  0  0  0  0  0  0  0  0  0
   13.6867   -1.1967   20.4565 H   0  0  0  0  0  0  0  0  0  0  0  0
   12.4780   -2.3944   20.1207 H   0  0  0  0  0  0  0  0  0  0  0  0
   11.8816    0.4533   21.2532 H   0  0  0  0  0  0  0  0  0  0  0  0
   10.7166   -0.5481   20.3597 H   0  0  0  0  0  0  0  0  0  0  0  0
   10.8273   -1.0153   24.5109 H   0  0  0  0  0  0  0  0  0  0  0  0
   11.9039    0.1762   23.7522 H   0  0  0  0  0  0  0  0  0  0  0  0
   10.1616    0.2564   23.4599 H   0  0  0  0  0  0  0  0  0  0  0  0
  1  2  1  0
  2  3  1  0
  3  4  1  0
  4  5  1  0
  5  6  2  0
  6  7  1  0
  7  8  2  0
  8  9  1  0
  9 10  2  0
 10 11  1  0
 11 12  2  0
 12 13  1  0
 10 14  1  0
  9 15  1  0
  8 16  1  0
  6 17  1  0
 17 18  2  0
 18 19  1  0
 19 20  1  0
 20 21  1  0
 21 22  1  0
 22 23  1  0
 23 24  2  0
 24 25  1  0
 25 26  2  0
 26 27  1  0
 27 28  1  0
 27 29  1  0
 25 30  1  0
 23 31  1  0
 21 32  1  0
 21 33  1  0
 20 34  1  0
 20 35  1  0
 19 36  1  0
  3 37  1  0
  3 38  1  0
  2 39  1  0
 39 40  1  0
 40 41  1  0
 41 42  1  0
 41 43  1  0
 40 44  1  0
 40 45  1  0
 39 46  1  0
 39 47  1  0
  1 48  1  0
  1 49  1  0
  1 50  1  0
 41  2  1  0
 18  4  1  0
 27 19  1  0
 12  7  1  0
 26 22  1  0
M  END
>  <cnnaffinity>  (1) 
-6.43636

>  <filename>  (1) 
[H]c1nc([H])c(-c2nc(C3([H])C([H])([H])c4c([H])nc([H])n4C([H])([H])C3([H])[H])n(C([H])([H])C3(C([H])([H])[H])C([H])([H])C([H])([H])C3([H])[H])n2)c([H])c1[H]

$$$$
