
     RDKit          3D

 36 38  0  0  0  0  0  0  0  0999 V2000
    9.0897    1.9608   21.5572 C   0  0  0  0  0  0  0  0  0  0  0  0
    9.5202    0.6167   20.9693 C   0  0  0  0  0  0  0  0  0  0  0  0
    8.6162   -0.4892   21.4125 C   0  0  0  0  0  0  0  0  0  0  0  0
    8.8380   -1.3025   22.4207 N   0  0  0  0  0  0  0  0  0  0  0  0
    7.6706   -1.9929   22.5447 C   0  0  0  0  0  0  0  0  0  0  0  0
    7.4616   -3.0352   23.5777 C   0  0  0  0  0  0  0  0  0  0  0  0
    6.2303   -3.7141   23.6512 C   0  0  0  0  0  0  0  0  0  0  0  0
    6.0221   -4.6911   24.6314 C   0  0  0  0  0  0  0  0  0  0  0  0
    4.7155   -5.4423   24.6698 C   0  0  0  0  0  0  0  0  0  0  0  0
    4.4194   -5.9043   25.8974 F   0  0  0  0  0  0  0  0  0  0  0  0
    4.7482   -6.5105   23.8494 F   0  0  0  0  0  0  0  0  0  0  0  0
    3.6746   -4.6839   24.2786 F   0  0  0  0  0  0  0  0  0  0  0  0
    7.0480   -5.0290   25.5239 C   0  0  0  0  0  0  0  0  0  0  0  0
    8.2689   -4.3564   25.4528 C   0  0  0  0  0  0  0  0  0  0  0  0
    8.4800   -3.3640   24.4953 C   0  0  0  0  0  0  0  0  0  0  0  0
    9.4395   -2.8515   24.4609 H   0  0  0  0  0  0  0  0  0  0  0  0
    9.0605   -4.6131   26.1502 H   0  0  0  0  0  0  0  0  0  0  0  0
    6.9072   -5.8086   26.2691 H   0  0  0  0  0  0  0  0  0  0  0  0
    5.4469   -3.4691   22.9349 H   0  0  0  0  0  0  0  0  0  0  0  0
    6.7424   -1.6409   21.6680 N   0  0  0  0  0  0  0  0  0  0  0  0
    7.3509   -0.6816   20.9379 N   0  0  0  0  0  0  0  0  0  0  0  0
    6.6583    0.0058   19.9019 C   0  0  0  0  0  0  0  0  0  0  0  0
    5.4430    0.6465   20.1636 C   0  0  0  0  0  0  0  0  0  0  0  0
    4.8086    1.3122   19.1118 C   0  0  0  0  0  0  0  0  0  0  0  0
    5.4014    1.2928   17.8432 C   0  0  0  0  0  0  0  0  0  0  0  0
    6.5667    0.6797   17.5854 N   0  0  0  0  0  0  0  0  0  0  0  0
    7.1783    0.0565   18.5976 C   0  0  0  0  0  0  0  0  0  0  0  0
    8.1266   -0.4377   18.3797 H   0  0  0  0  0  0  0  0  0  0  0  0
    4.9066    1.7736   17.0035 H   0  0  0  0  0  0  0  0  0  0  0  0
    3.8722    1.8451   19.2680 H   0  0  0  0  0  0  0  0  0  0  0  0
    5.0128    0.6199   21.1640 H   0  0  0  0  0  0  0  0  0  0  0  0
   10.5285    0.3619   21.3047 H   0  0  0  0  0  0  0  0  0  0  0  0
    9.5441    0.6778   19.8778 H   0  0  0  0  0  0  0  0  0  0  0  0
    9.0710    1.9019   22.6524 H   0  0  0  0  0  0  0  0  0  0  0  0
    9.7968    2.7390   21.2637 H   0  0  0  0  0  0  0  0  0  0  0  0
    8.0892    2.2378   21.2056 H   0  0  0  0  0  0  0  0  0  0  0  0
  1  2  1  0
  2  3  1  0
  3  4  2  0
  4  5  1  0
  5  6  1  0
  6  7  2  0
  7  8  1  0
  8  9  1  0
  9 10  1  0
  9 11  1  0
  9 12  1  0
  8 13  2  0
 13 14  1  0
 14 15  2  0
 15 16  1  0
 14 17  1  0
 13 18  1  0
  7 19  1  0
  5 20  2  0
 20 21  1  0
 21 22  1  0
 22 23  2  0
 23 24  1  0
 24 25  2  0
 25 26  1  0
 26 27  2  0
 27 28  1  0
 25 29  1  0
 24 30  1  0
 23 31  1  0
  2 32  1  0
  2 33  1  0
  1 34  1  0
  1 35  1  0
  1 36  1  0
 21  3  1  0
 27 22  1  0
 15  6  1  0
M  END
>  <cnnaffinity>  (1) 
-5.55589

>  <filename>  (1) 
[H]c1nc([H])c(-n2nc(-c3c([H])c([H])c([H])c(C(F)(F)F)c3[H])nc2C([H])([H])C([H])([H])[H])c([H])c1[H]

$$$$
