
     RDKit          3D

 35 37  0  0  0  0  0  0  0  0999 V2000
    9.5785   -0.1062   20.2223 O   0  0  0  0  0  0  0  0  0  0  0  0
    8.8302   -0.5492   21.0702 C   0  0  0  0  0  0  0  0  0  0  0  0
    9.3202   -1.1536   22.4157 C   0  0  0  0  0  0  0  0  0  0  0  0
    8.8606   -0.5417   23.6678 N   0  0  0  0  0  0  0  0  0  0  0  0
    7.7289   -0.9623   24.3221 C   0  0  0  0  0  0  0  0  0  0  0  0
    7.3186   -2.1059   24.2633 O   0  0  0  0  0  0  0  0  0  0  0  0
    7.0260    0.1314   25.1081 C   0  0  0  0  0  0  0  0  0  0  0  0
    6.5118   -0.0179   26.3922 C   0  0  0  0  0  0  0  0  0  0  0  0
    5.7689    1.0356   26.9937 C   0  0  0  0  0  0  0  0  0  0  0  0
    5.5065    2.1946   26.4193 N   0  0  0  0  0  0  0  0  0  0  0  0
    5.9870    2.3766   25.1651 C   0  0  0  0  0  0  0  0  0  0  0  0
    5.6757    3.5741   24.5699 N   0  0  0  0  0  0  0  0  0  0  0  0
    6.1112    3.7396   23.3356 C   0  0  0  0  0  0  0  0  0  0  0  0
    6.8873    2.7641   22.6239 C   0  0  0  0  0  0  0  0  0  0  0  0
    7.2523    1.6182   23.1733 N   0  0  0  0  0  0  0  0  0  0  0  0
    6.7714    1.3799   24.4488 C   0  0  0  0  0  0  0  0  0  0  0  0
    7.1983    2.9822   21.6036 H   0  0  0  0  0  0  0  0  0  0  0  0
    5.8610    4.6802   22.8446 H   0  0  0  0  0  0  0  0  0  0  0  0
    5.3585    0.8952   27.9896 H   0  0  0  0  0  0  0  0  0  0  0  0
    6.6618   -0.9254   26.9743 H   0  0  0  0  0  0  0  0  0  0  0  0
    8.9346    0.4668   23.7082 H   0  0  0  0  0  0  0  0  0  0  0  0
   10.4083   -1.1142   22.3810 H   0  0  0  0  0  0  0  0  0  0  0  0
    9.0170   -2.2049   22.4286 H   0  0  0  0  0  0  0  0  0  0  0  0
    7.4659   -0.5766   20.9064 N   0  0  0  0  0  0  0  0  0  0  0  0
    6.7402    0.0178   19.8508 C   0  0  0  0  0  0  0  0  0  0  0  0
    5.5156    0.6203   20.1597 C   0  0  0  0  0  0  0  0  0  0  0  0
    4.8269    1.2758   19.1307 C   0  0  0  0  0  0  0  0  0  0  0  0
    5.3751    1.2910   17.8438 C   0  0  0  0  0  0  0  0  0  0  0  0
    6.5224    0.6704   17.5207 N   0  0  0  0  0  0  0  0  0  0  0  0
    7.1837    0.0500   18.5073 C   0  0  0  0  0  0  0  0  0  0  0  0
    8.1168   -0.4378   18.2470 H   0  0  0  0  0  0  0  0  0  0  0  0
    4.8818    1.8335   17.0423 H   0  0  0  0  0  0  0  0  0  0  0  0
    3.8900    1.7874   19.3207 H   0  0  0  0  0  0  0  0  0  0  0  0
    5.1469    0.6042   21.1895 H   0  0  0  0  0  0  0  0  0  0  0  0
    6.9239   -0.7442   21.7402 H   0  0  0  0  0  0  0  0  0  0  0  0
  1  2  2  0
  2  3  1  0
  3  4  1  0
  4  5  1  0
  5  6  2  0
  5  7  1  0
  7  8  2  0
  8  9  1  0
  9 10  2  0
 10 11  1  0
 11 12  2  0
 12 13  1  0
 13 14  2  0
 14 15  1  0
 15 16  2  0
 14 17  1  0
 13 18  1  0
  9 19  1  0
  8 20  1  0
  4 21  1  0
  3 22  1  0
  3 23  1  0
  2 24  1  0
 24 25  1  0
 25 26  2  0
 26 27  1  0
 27 28  2  0
 28 29  1  0
 29 30  2  0
 30 31  1  0
 28 32  1  0
 27 33  1  0
 26 34  1  0
 24 35  1  0
 16  7  1  0
 30 25  1  0
 16 11  1  0
M  END
>  <cnnaffinity>  (1) 
-5.21153

>  <filename>  (1) 
[H]c1nc2nc([H])c([H])c(C(=O)N([H])C([H])([H])C(=O)N([H])c3c([H])nc([H])c([H])c3[H])c2nc1[H]

$$$$
