
     RDKit          3D

 37 38  0  0  0  0  0  0  0  0999 V2000
    5.0106    1.7025   17.0125 H   0  0  0  0  0  0  0  0  0  0  0  0
    5.4610    1.2548   17.8985 C   0  0  0  0  0  0  0  0  0  0  0  0
    6.6324    0.6253   17.7230 N   0  0  0  0  0  0  0  0  0  0  0  0
    7.2232    0.0878   18.7882 C   0  0  0  0  0  0  0  0  0  0  0  0
    8.1726   -0.4269   18.6248 H   0  0  0  0  0  0  0  0  0  0  0  0
    6.6542    0.1676   20.0475 C   0  0  0  0  0  0  0  0  0  0  0  0
    7.5540   -0.7032   21.2300 S   0  0  0  0  0  0  0  0  0  0  0  0
    6.9157   -1.9702   21.5315 O   0  0  0  0  0  0  0  0  0  0  0  0
    8.9569   -0.6187   20.8982 O   0  0  0  0  0  0  0  0  0  0  0  0
    7.1724    0.1579   22.5484 N   0  0  0  0  0  0  0  0  0  0  0  0
    6.8896   -0.4299   23.3002 H   0  0  0  0  0  0  0  0  0  0  0  0
    7.7271    1.3813   22.6992 C   0  0  0  0  0  0  0  0  0  0  0  0
    8.2795    1.9797   21.8182 O   0  0  0  0  0  0  0  0  0  0  0  0
    7.4895    1.8100   23.9502 O   0  0  0  0  0  0  0  0  0  0  0  0
    7.8896    3.1763   24.2223 C   0  0  0  0  0  0  0  0  0  0  0  0
    8.9810    3.2346   24.1267 H   0  0  0  0  0  0  0  0  0  0  0  0
    7.4428    3.8298   23.4619 H   0  0  0  0  0  0  0  0  0  0  0  0
    7.4869    3.6844   25.6089 C   0  0  0  0  0  0  0  0  0  0  0  0
    7.9027    4.7027   25.5931 H   0  0  0  0  0  0  0  0  0  0  0  0
    5.9674    3.8094   25.8683 C   0  0  0  0  0  0  0  0  0  0  0  0
    5.4553    4.2405   24.9992 H   0  0  0  0  0  0  0  0  0  0  0  0
    5.8174    4.5114   26.7030 H   0  0  0  0  0  0  0  0  0  0  0  0
    5.3266    2.4682   26.2616 C   0  0  0  0  0  0  0  0  0  0  0  0
    5.3894    1.7836   25.4112 H   0  0  0  0  0  0  0  0  0  0  0  0
    4.2614    2.5868   26.4971 H   0  0  0  0  0  0  0  0  0  0  0  0
    5.9881    1.8279   27.4044 N   0  0  0  0  0  0  0  0  0  0  0  0
    5.8942    2.4434   28.2118 H   0  0  0  0  0  0  0  0  0  0  0  0
    7.4215    1.6331   27.1555 C   0  0  0  0  0  0  0  0  0  0  0  0
    7.8717    1.1630   28.0396 H   0  0  0  0  0  0  0  0  0  0  0  0
    7.5300    0.9221   26.3319 H   0  0  0  0  0  0  0  0  0  0  0  0
    8.1400    2.9420   26.7947 C   0  0  0  0  0  0  0  0  0  0  0  0
    9.1994    2.7531   26.5910 H   0  0  0  0  0  0  0  0  0  0  0  0
    8.0849    3.6002   27.6735 H   0  0  0  0  0  0  0  0  0  0  0  0
    5.4015    0.7560   20.2492 C   0  0  0  0  0  0  0  0  0  0  0  0
    4.9017    0.7634   21.2228 H   0  0  0  0  0  0  0  0  0  0  0  0
    4.8078    1.3284   19.1325 C   0  0  0  0  0  0  0  0  0  0  0  0
    3.8540    1.8317   19.2113 H   0  0  0  0  0  0  0  0  0  0  0  0
  1  2  1  0
  2  3  2  0
  3  4  1  0
  4  5  1  0
  4  6  2  0
  6  7  1  0
  7  8  2  0
  7  9  2  0
  7 10  1  0
 10 11  1  0
 10 12  1  0
 12 13  2  0
 12 14  1  0
 14 15  1  0
 15 16  1  0
 15 17  1  0
 15 18  1  0
 18 19  1  0
 18 20  1  0
 20 21  1  0
 20 22  1  0
 20 23  1  0
 23 24  1  0
 23 25  1  0
 23 26  1  0
 26 27  1  0
 26 28  1  0
 28 29  1  0
 28 30  1  0
 28 31  1  0
 31 32  1  0
 31 33  1  0
  6 34  1  0
 34 35  1  0
 34 36  2  0
 36 37  1  0
 36  2  1  0
 31 18  1  0
M  END
>  <cnnaffinity>  (1) 
-4.33409

>  <filename>  (1) 
[H]c1nc([H])c(S(=O)(=O)N([H])C(=O)OC([H])([H])C2([H])C([H])([H])C([H])([H])N([H])C([H])([H])C2([H])[H])c([H])c1[H]

$$$$
