
     RDKit          3D

 36 39  0  0  0  0  0  0  0  0999 V2000
    7.2346    1.7137   22.0357 H   0  0  0  0  0  0  0  0  0  0  0  0
    7.4708    0.9218   22.7452 C   0  0  0  0  0  0  0  0  0  0  0  0
    7.6155   -0.3445   22.2916 C   0  0  0  0  0  0  0  0  0  0  0  0
    7.3684   -0.8142   20.9002 C   0  0  0  0  0  0  0  0  0  0  0  0
    6.6109   -0.0575   19.8689 C   0  0  0  0  0  0  0  0  0  0  0  0
    7.1372   -0.0431   18.5687 C   0  0  0  0  0  0  0  0  0  0  0  0
    8.0488   -0.5934   18.3471 H   0  0  0  0  0  0  0  0  0  0  0  0
    6.5980    0.6308   17.5497 N   0  0  0  0  0  0  0  0  0  0  0  0
    5.4600    1.3025   17.7883 C   0  0  0  0  0  0  0  0  0  0  0  0
    5.0438    1.8554   16.9478 H   0  0  0  0  0  0  0  0  0  0  0  0
    4.8134    1.3028   19.0279 C   0  0  0  0  0  0  0  0  0  0  0  0
    3.8844    1.8510   19.1437 H   0  0  0  0  0  0  0  0  0  0  0  0
    5.3964    0.6148   20.0941 C   0  0  0  0  0  0  0  0  0  0  0  0
    4.9189    0.6031   21.0761 H   0  0  0  0  0  0  0  0  0  0  0  0
    7.8834   -1.9589   20.6450 N   0  0  0  0  0  0  0  0  0  0  0  0
    8.5464   -2.4830   21.8398 C   0  0  0  0  0  0  0  0  0  0  0  0
    8.2379   -3.5182   22.0066 H   0  0  0  0  0  0  0  0  0  0  0  0
    9.6279   -2.4847   21.6622 H   0  0  0  0  0  0  0  0  0  0  0  0
    8.1733   -1.5532   23.0227 C   0  0  0  0  0  0  0  0  0  0  0  0
    9.0245   -1.3240   23.6723 H   0  0  0  0  0  0  0  0  0  0  0  0
    7.3899   -2.0283   23.6267 H   0  0  0  0  0  0  0  0  0  0  0  0
    7.6012    1.4189   24.1071 C   0  0  0  0  0  0  0  0  0  0  0  0
    7.7481    2.7283   24.5147 C   0  0  0  0  0  0  0  0  0  0  0  0
    7.9227    3.5839   23.8713 H   0  0  0  0  0  0  0  0  0  0  0  0
    7.6744    2.7540   25.9439 C   0  0  0  0  0  0  0  0  0  0  0  0
    7.6298    3.7804   26.9202 C   0  0  0  0  0  0  0  0  0  0  0  0
    7.7237    4.8247   26.6287 H   0  0  0  0  0  0  0  0  0  0  0  0
    7.4586    3.4362   28.2559 C   0  0  0  0  0  0  0  0  0  0  0  0
    7.4484    4.2168   29.0170 H   0  0  0  0  0  0  0  0  0  0  0  0
    7.3382    2.0746   28.6404 C   0  0  0  0  0  0  0  0  0  0  0  0
    7.1787    1.8264   29.6862 H   0  0  0  0  0  0  0  0  0  0  0  0
    7.4126    1.0470   27.7084 C   0  0  0  0  0  0  0  0  0  0  0  0
    7.3639    0.0004   28.0028 H   0  0  0  0  0  0  0  0  0  0  0  0
    7.5358    1.4042   26.3595 C   0  0  0  0  0  0  0  0  0  0  0  0
    7.5299    0.6133   25.2336 N   0  0  0  0  0  0  0  0  0  0  0  0
    7.1760   -0.3288   25.2228 H   0  0  0  0  0  0  0  0  0  0  0  0
  1  2  1  0
  2  3  2  3
  3  4  1  0
  4  5  1  0
  5  6  2  0
  6  7  1  0
  6  8  1  0
  8  9  2  0
  9 10  1  0
  9 11  1  0
 11 12  1  0
 11 13  2  0
 13 14  1  0
  4 15  2  0
 15 16  1  0
 16 17  1  0
 16 18  1  0
 16 19  1  0
 19 20  1  0
 19 21  1  0
  2 22  1  0
 22 23  2  0
 23 24  1  0
 23 25  1  0
 25 26  2  0
 26 27  1  0
 26 28  1  0
 28 29  1  0
 28 30  2  0
 30 31  1  0
 30 32  1  0
 32 33  1  0
 32 34  2  0
 34 35  1  0
 35 36  1  0
 19  3  1  0
 35 22  1  0
 13  5  1  0
 34 25  1  0
M  END
>  <cnnaffinity>  (1) 
-5.31226

>  <filename>  (1) 
[H]C(=C1C(c2c([H])nc([H])c([H])c2[H])=NC([H])([H])C1([H])[H])c1c([H])c2c([H])c([H])c([H])c([H])c2n1[H]

$$$$
