
     RDKit          3D

 42 45  0  0  0  0  0  0  0  0999 V2000
    8.7531    1.9712   25.4898 C   0  0  0  0  0  0  0  0  0  0  0  0
    8.8872    2.7468   24.1717 C   0  0  0  0  0  0  0  0  0  0  0  0
    8.9178    1.8444   23.0091 N   0  0  0  0  0  0  0  0  0  0  0  0
    7.8251    1.1067   22.7012 N   0  0  0  0  0  0  0  0  0  0  0  0
    8.2562    0.3151   21.7395 C   0  0  0  0  0  0  0  0  0  0  0  0
    7.3659   -0.6521   21.0070 C   0  0  0  0  0  0  0  0  0  0  0  0
    6.6079   -0.0163   19.8468 C   0  0  0  0  0  0  0  0  0  0  0  0
    5.4030    0.6544   20.0809 C   0  0  0  0  0  0  0  0  0  0  0  0
    4.7833    1.3294   19.0268 C   0  0  0  0  0  0  0  0  0  0  0  0
    5.3966    1.3062   17.7713 C   0  0  0  0  0  0  0  0  0  0  0  0
    6.5365    0.6459   17.5134 N   0  0  0  0  0  0  0  0  0  0  0  0
    7.1157    0.0022   18.5350 C   0  0  0  0  0  0  0  0  0  0  0  0
    8.0383   -0.5322   18.3000 H   0  0  0  0  0  0  0  0  0  0  0  0
    4.9533    1.8390   16.9328 H   0  0  0  0  0  0  0  0  0  0  0  0
    3.8588    1.8776   19.1712 H   0  0  0  0  0  0  0  0  0  0  0  0
    4.9739    0.6495   21.0842 H   0  0  0  0  0  0  0  0  0  0  0  0
    8.0043   -1.4617   20.6413 H   0  0  0  0  0  0  0  0  0  0  0  0
    6.6602   -1.0783   21.7301 H   0  0  0  0  0  0  0  0  0  0  0  0
    9.5650    0.4693   21.4185 N   0  0  0  0  0  0  0  0  0  0  0  0
    9.9574    1.4495   22.2174 C   0  0  0  0  0  0  0  0  0  0  0  0
   11.2847    2.0721   22.3216 C   0  0  0  0  0  0  0  0  0  0  0  0
   11.4588    3.4586   22.3285 C   0  0  0  0  0  0  0  0  0  0  0  0
   12.7322    4.0461   22.5261 C   0  0  0  0  0  0  0  0  0  0  0  0
   13.8597    3.2698   22.7245 C   0  0  0  0  0  0  0  0  0  0  0  0
   13.6919    1.8676   22.6593 C   0  0  0  0  0  0  0  0  0  0  0  0
   12.4396    1.2581   22.4384 C   0  0  0  0  0  0  0  0  0  0  0  0
   12.7463   -0.1378   22.3792 C   0  0  0  0  0  0  0  0  0  0  0  0
   14.0367   -0.3665   22.5217 N   0  0  0  0  0  0  0  0  0  0  0  0
   14.5910    0.8499   22.7009 N   0  0  0  0  0  0  0  0  0  0  0  0
   15.5908    0.9485   22.7623 H   0  0  0  0  0  0  0  0  0  0  0  0
   12.0364   -0.9405   22.2558 H   0  0  0  0  0  0  0  0  0  0  0  0
   14.8378    3.7263   22.8382 H   0  0  0  0  0  0  0  0  0  0  0  0
   12.8228    5.1257   22.5179 H   0  0  0  0  0  0  0  0  0  0  0  0
   10.5972    4.1124   22.2220 H   0  0  0  0  0  0  0  0  0  0  0  0
    7.8842    3.8971   23.9380 C   0  0  0  0  0  0  0  0  0  0  0  0
    8.1787    4.5527   22.7972 F   0  0  0  0  0  0  0  0  0  0  0  0
    8.0046    4.7956   24.9414 F   0  0  0  0  0  0  0  0  0  0  0  0
    6.6020    3.5320   23.8917 F   0  0  0  0  0  0  0  0  0  0  0  0
    9.8438    3.2692   24.2081 H   0  0  0  0  0  0  0  0  0  0  0  0
    7.8221    1.3980   25.5387 H   0  0  0  0  0  0  0  0  0  0  0  0
    9.5924    1.2712   25.5549 H   0  0  0  0  0  0  0  0  0  0  0  0
    8.8116    2.6387   26.3565 H   0  0  0  0  0  0  0  0  0  0  0  0
  1  2  1  0
  2  3  1  0
  3  4  1  0
  4  5  2  0
  5  6  1  0
  6  7  1  0
  7  8  2  0
  8  9  1  0
  9 10  2  0
 10 11  1  0
 11 12  2  0
 12 13  1  0
 10 14  1  0
  9 15  1  0
  8 16  1  0
  6 17  1  0
  6 18  1  0
  5 19  1  0
 19 20  2  0
 20 21  1  0
 21 22  2  0
 22 23  1  0
 23 24  2  0
 24 25  1  0
 25 26  2  0
 26 27  1  0
 27 28  2  0
 28 29  1  0
 29 30  1  0
 27 31  1  0
 24 32  1  0
 23 33  1  0
 22 34  1  0
  2 35  1  0
 35 36  1  0
 35 37  1  0
 35 38  1  0
  2 39  1  0
  1 40  1  0
  1 41  1  0
  1 42  1  0
 20  3  1  0
 26 21  1  0
 12  7  1  0
 29 25  1  0
M  END
>  <cnnaffinity>  (1) 
-6.65008

>  <filename>  (1) 
[H]c1nc([H])c(C([H])([H])c2nc(-c3c([H])c([H])c([H])c4c3c([H])nn4[H])n(C([H])(C([H])([H])[H])C(F)(F)F)n2)c([H])c1[H]

$$$$
