
     RDKit          3D

 41 42  0  0  0  0  0  0  0  0999 V2000
    5.1783    1.6722   17.3406 H   0  0  0  0  0  0  0  0  0  0  0  0
    5.5475    1.1142   18.1986 C   0  0  0  0  0  0  0  0  0  0  0  0
    6.6528    0.3811   17.9874 N   0  0  0  0  0  0  0  0  0  0  0  0
    7.1560   -0.2835   19.0320 C   0  0  0  0  0  0  0  0  0  0  0  0
    8.0236   -0.8978   18.8007 H   0  0  0  0  0  0  0  0  0  0  0  0
    6.6310   -0.2300   20.3499 C   0  0  0  0  0  0  0  0  0  0  0  0
    7.3070   -0.8099   21.5107 C   0  0  0  0  0  0  0  0  0  0  0  0
    8.5228   -1.4445   21.6884 C   0  0  0  0  0  0  0  0  0  0  0  0
    9.8659   -1.4745   21.0044 C   0  0  0  0  0  0  0  0  0  0  0  0
   10.3095   -2.4677   21.1106 H   0  0  0  0  0  0  0  0  0  0  0  0
    9.6929   -1.3222   19.9349 H   0  0  0  0  0  0  0  0  0  0  0  0
   10.8551   -0.3850   21.4771 C   0  0  0  0  0  0  0  0  0  0  0  0
   11.7588   -0.4651   20.8573 H   0  0  0  0  0  0  0  0  0  0  0  0
   11.1795   -0.5549   22.5162 H   0  0  0  0  0  0  0  0  0  0  0  0
   10.2581    1.0161   21.2868 C   0  0  0  0  0  0  0  0  0  0  0  0
    9.7959    1.0339   20.2900 H   0  0  0  0  0  0  0  0  0  0  0  0
    9.4169    1.1486   21.9735 H   0  0  0  0  0  0  0  0  0  0  0  0
   11.2446    2.1969   21.4012 C   0  0  0  0  0  0  0  0  0  0  0  0
   12.2760    1.8338   21.2984 H   0  0  0  0  0  0  0  0  0  0  0  0
   11.0880    2.8477   20.5318 H   0  0  0  0  0  0  0  0  0  0  0  0
   11.1875    3.0574   22.6827 C   0  0  0  0  0  0  0  0  0  0  0  0
   11.8359    3.9309   22.5253 H   0  0  0  0  0  0  0  0  0  0  0  0
   11.6356    2.5000   23.5206 H   0  0  0  0  0  0  0  0  0  0  0  0
    9.7807    3.5139   23.1002 C   0  0  0  0  0  0  0  0  0  0  0  0
    9.2284    3.9197   22.2376 H   0  0  0  0  0  0  0  0  0  0  0  0
    9.2267    2.6184   23.4143 H   0  0  0  0  0  0  0  0  0  0  0  0
    9.7206    4.5132   24.2678 C   0  0  0  0  0  0  0  0  0  0  0  0
    8.6826    4.5680   24.6193 H   0  0  0  0  0  0  0  0  0  0  0  0
   10.2685    4.0919   25.1139 H   0  0  0  0  0  0  0  0  0  0  0  0
   10.2109    5.9407   24.0004 C   0  0  0  0  0  0  0  0  0  0  0  0
    9.5868    6.4420   23.2501 H   0  0  0  0  0  0  0  0  0  0  0  0
   10.1708    6.5344   24.9243 H   0  0  0  0  0  0  0  0  0  0  0  0
   11.2448    5.9746   23.6362 H   0  0  0  0  0  0  0  0  0  0  0  0
    8.2160   -1.9012   23.0478 C   0  0  0  0  0  0  0  0  0  0  0  0
    8.6871   -2.7135   23.8088 O   0  0  0  0  0  0  0  0  0  0  0  0
    6.9795   -0.9335   22.9859 C   0  0  0  0  0  0  0  0  0  0  0  0
    6.2548   -0.3917   23.7802 O   0  0  0  0  0  0  0  0  0  0  0  0
    5.4333    0.4875   20.5209 C   0  0  0  0  0  0  0  0  0  0  0  0
    4.9817    0.5146   21.5130 H   0  0  0  0  0  0  0  0  0  0  0  0
    4.8879    1.1635   19.4296 C   0  0  0  0  0  0  0  0  0  0  0  0
    3.9812    1.7496   19.5227 H   0  0  0  0  0  0  0  0  0  0  0  0
  1  2  1  0
  2  3  2  0
  3  4  1  0
  4  5  1  0
  4  6  2  0
  6  7  1  0
  7  8  2  0
  8  9  1  0
  9 10  1  0
  9 11  1  0
  9 12  1  0
 12 13  1  0
 12 14  1  0
 12 15  1  0
 15 16  1  0
 15 17  1  0
 15 18  1  0
 18 19  1  0
 18 20  1  0
 18 21  1  0
 21 22  1  0
 21 23  1  0
 21 24  1  0
 24 25  1  0
 24 26  1  0
 24 27  1  0
 27 28  1  0
 27 29  1  0
 27 30  1  0
 30 31  1  0
 30 32  1  0
 30 33  1  0
  8 34  1  0
 34 35  2  0
 34 36  1  0
 36 37  2  0
  6 38  1  0
 38 39  1  0
 38 40  2  0
 40 41  1  0
 40  2  1  0
 36  7  1  0
M  END
>  <cnnaffinity>  (1) 
-5.24227

>  <filename>  (1) 
[H]c1nc([H])c(-c2c(C([H])([H])C([H])([H])C([H])([H])C([H])([H])C([H])([H])C([H])([H])C([H])([H])C([H])([H])[H])c(=O)c2=O)c([H])c1[H]

$$$$
