
     RDKit          3D

 40 41  0  0  0  0  0  0  0  0999 V2000
    4.9618    1.7840   16.9556 H   0  0  0  0  0  0  0  0  0  0  0  0
    5.4117    1.2817   17.8097 C   0  0  0  0  0  0  0  0  0  0  0  0
    6.5700    0.6535   17.5826 N   0  0  0  0  0  0  0  0  0  0  0  0
    7.1669    0.0673   18.6330 C   0  0  0  0  0  0  0  0  0  0  0  0
    8.1212   -0.4034   18.4008 H   0  0  0  0  0  0  0  0  0  0  0  0
    6.6538    0.0430   19.9346 C   0  0  0  0  0  0  0  0  0  0  0  0
    7.3588   -0.7266   21.0636 C   0  0  0  0  0  0  0  0  0  0  0  0
    7.2728    0.0024   22.3298 N   0  0  0  0  0  0  0  0  0  0  0  0
    6.8059   -0.4080   23.1171 H   0  0  0  0  0  0  0  0  0  0  0  0
    7.8017    1.2458   22.4957 C   0  0  0  0  0  0  0  0  0  0  0  0
    8.2653    1.8731   21.5570 O   0  0  0  0  0  0  0  0  0  0  0  0
    7.7572    1.8042   23.8931 C   0  0  0  0  0  0  0  0  0  0  0  0
    7.7597    3.2049   24.0190 C   0  0  0  0  0  0  0  0  0  0  0  0
    7.7522    3.8192   23.1165 H   0  0  0  0  0  0  0  0  0  0  0  0
    7.8074    3.7927   25.2820 C   0  0  0  0  0  0  0  0  0  0  0  0
    7.8423    4.8741   25.3735 H   0  0  0  0  0  0  0  0  0  0  0  0
    7.8483    3.0017   26.4286 C   0  0  0  0  0  0  0  0  0  0  0  0
    7.9475    3.4670   27.4081 H   0  0  0  0  0  0  0  0  0  0  0  0
    7.8306    1.6047   26.2985 C   0  0  0  0  0  0  0  0  0  0  0  0
    7.9093    0.6062   27.7731 S   0  0  0  0  0  0  0  0  0  0  0  0
    8.6701   -0.6095   27.5004 O   0  0  0  0  0  0  0  0  0  0  0  0
    8.1617    1.4873   28.9068 O   0  0  0  0  0  0  0  0  0  0  0  0
    6.2593    0.0799   28.0331 C   0  0  0  0  0  0  0  0  0  0  0  0
    5.6510    0.9563   28.2417 H   0  0  0  0  0  0  0  0  0  0  0  0
    5.8996   -0.5024   27.1911 H   0  0  0  0  0  0  0  0  0  0  0  0
    6.3659   -0.5508   28.9104 H   0  0  0  0  0  0  0  0  0  0  0  0
    7.8094    0.9933   25.0403 C   0  0  0  0  0  0  0  0  0  0  0  0
    7.9281   -0.0895   24.9419 H   0  0  0  0  0  0  0  0  0  0  0  0
    8.8518   -0.9895   20.7828 C   0  0  0  0  0  0  0  0  0  0  0  0
    8.9930   -1.6901   19.9565 H   0  0  0  0  0  0  0  0  0  0  0  0
    9.3138   -1.4247   21.6752 H   0  0  0  0  0  0  0  0  0  0  0  0
    9.3688   -0.0547   20.5559 H   0  0  0  0  0  0  0  0  0  0  0  0
    6.6346   -2.0589   21.2447 C   0  0  0  0  0  0  0  0  0  0  0  0
    6.6911   -2.6325   20.3129 H   0  0  0  0  0  0  0  0  0  0  0  0
    7.0861   -2.6538   22.0468 H   0  0  0  0  0  0  0  0  0  0  0  0
    5.5777   -1.8949   21.4780 H   0  0  0  0  0  0  0  0  0  0  0  0
    5.4153    0.6799   20.1354 C   0  0  0  0  0  0  0  0  0  0  0  0
    4.9585    0.6976   21.1257 H   0  0  0  0  0  0  0  0  0  0  0  0
    4.7908    1.3152   19.0623 C   0  0  0  0  0  0  0  0  0  0  0  0
    3.8529    1.8434   19.1874 H   0  0  0  0  0  0  0  0  0  0  0  0
  1  2  1  0
  2  3  2  0
  3  4  1  0
  4  5  1  0
  4  6  2  0
  6  7  1  0
  7  8  1  0
  8  9  1  0
  8 10  1  0
 10 11  2  0
 10 12  1  0
 12 13  2  0
 13 14  1  0
 13 15  1  0
 15 16  1  0
 15 17  2  0
 17 18  1  0
 17 19  1  0
 19 20  1  0
 20 21  2  0
 20 22  2  0
 20 23  1  0
 23 24  1  0
 23 25  1  0
 23 26  1  0
 19 27  2  0
 27 28  1  0
  7 29  1  0
 29 30  1  0
 29 31  1  0
 29 32  1  0
  7 33  1  0
 33 34  1  0
 33 35  1  0
 33 36  1  0
  6 37  1  0
 37 38  1  0
 37 39  2  0
 39 40  1  0
 39  2  1  0
 27 12  1  0
M  END
>  <cnnaffinity>  (1) 
-5.47377

>  <filename>  (1) 
[H]c1nc([H])c(C(N([H])C(=O)c2c([H])c([H])c([H])c(S(=O)(=O)C([H])([H])[H])c2[H])(C([H])([H])[H])C([H])([H])[H])c([H])c1[H]

$$$$
