
     RDKit          3D

 40 43  0  0  0  0  0  0  0  0999 V2000
    4.8006    1.3143   19.0998 C   0  0  0  0  0  0  0  0  0  0  0  0
    5.3970    1.2975   17.8347 C   0  0  0  0  0  0  0  0  0  0  0  0
    6.5602    0.6835   17.5710 N   0  0  0  0  0  0  0  0  0  0  0  0
    7.1606    0.0644   18.5930 C   0  0  0  0  0  0  0  0  0  0  0  0
    6.6464   -0.0078   19.8992 C   0  0  0  0  0  0  0  0  0  0  0  0
    7.4172   -0.7128   20.9882 C   0  0  0  0  0  0  0  0  0  0  0  0
    8.6419    0.0915   21.4681 C   0  0  0  0  0  0  0  0  0  0  0  0
    8.2832    1.4359   22.1313 C   0  0  0  0  0  0  0  0  0  0  0  0
    7.4481    1.2822   23.3474 C   0  0  0  0  0  0  0  0  0  0  0  0
    6.1922    1.5674   23.5146 N   0  0  0  0  0  0  0  0  0  0  0  0
    5.9765    1.1639   24.8133 C   0  0  0  0  0  0  0  0  0  0  0  0
    4.6562    1.3608   25.4704 C   0  0  0  0  0  0  0  0  0  0  0  0
    3.9119    2.4931   25.1939 C   0  0  0  0  0  0  0  0  0  0  0  0
    2.6939    2.7221   25.8868 C   0  0  0  0  0  0  0  0  0  0  0  0
    2.1863    1.9151   26.7940 N   0  0  0  0  0  0  0  0  0  0  0  0
    2.8858    0.7657   27.0670 C   0  0  0  0  0  0  0  0  0  0  0  0
    2.3487   -0.1269   28.0420 C   0  0  0  0  0  0  0  0  0  0  0  0
    2.9796   -1.3149   28.3373 C   0  0  0  0  0  0  0  0  0  0  0  0
    4.1806   -1.6774   27.6671 C   0  0  0  0  0  0  0  0  0  0  0  0
    4.7391   -0.8457   26.7245 C   0  0  0  0  0  0  0  0  0  0  0  0
    4.1212    0.4138   26.4181 C   0  0  0  0  0  0  0  0  0  0  0  0
    5.6580   -1.1209   26.2032 H   0  0  0  0  0  0  0  0  0  0  0  0
    4.6643   -2.6250   27.9063 H   0  0  0  0  0  0  0  0  0  0  0  0
    2.5638   -1.9965   29.0798 H   0  0  0  0  0  0  0  0  0  0  0  0
    1.4226    0.1756   28.5174 H   0  0  0  0  0  0  0  0  0  0  0  0
    2.1326    3.6278   25.6618 H   0  0  0  0  0  0  0  0  0  0  0  0
    4.2531    3.2229   24.4610 H   0  0  0  0  0  0  0  0  0  0  0  0
    7.0356    0.6751   25.4063 N   0  0  0  0  0  0  0  0  0  0  0  0
    8.0155    0.7557   24.4334 O   0  0  0  0  0  0  0  0  0  0  0  0
    9.1894    1.9895   22.3931 H   0  0  0  0  0  0  0  0  0  0  0  0
    7.7124    2.0700   21.4508 H   0  0  0  0  0  0  0  0  0  0  0  0
    9.2963    0.2907   20.6112 H   0  0  0  0  0  0  0  0  0  0  0  0
    9.2201   -0.5158   22.1753 H   0  0  0  0  0  0  0  0  0  0  0  0
    6.7505   -0.9138   21.8398 H   0  0  0  0  0  0  0  0  0  0  0  0
    7.7557   -1.6917   20.6231 H   0  0  0  0  0  0  0  0  0  0  0  0
    5.4332    0.6462   20.1523 C   0  0  0  0  0  0  0  0  0  0  0  0
    5.0200    0.6385   21.1650 H   0  0  0  0  0  0  0  0  0  0  0  0
    8.1116   -0.4183   18.3705 H   0  0  0  0  0  0  0  0  0  0  0  0
    4.9161    1.7866   16.9905 H   0  0  0  0  0  0  0  0  0  0  0  0
    3.8690    1.8478   19.2504 H   0  0  0  0  0  0  0  0  0  0  0  0
  1  2  2  0
  2  3  1  0
  3  4  2  0
  4  5  1  0
  5  6  1  0
  6  7  1  0
  7  8  1  0
  8  9  1  0
  9 10  2  0
 10 11  1  0
 11 12  1  0
 12 13  2  0
 13 14  1  0
 14 15  2  0
 15 16  1  0
 16 17  2  0
 17 18  1  0
 18 19  2  0
 19 20  1  0
 20 21  2  0
 20 22  1  0
 19 23  1  0
 18 24  1  0
 17 25  1  0
 14 26  1  0
 13 27  1  0
 11 28  2  0
 28 29  1  0
  8 30  1  0
  8 31  1  0
  7 32  1  0
  7 33  1  0
  6 34  1  0
  6 35  1  0
  5 36  2  0
 36 37  1  0
  4 38  1  0
  2 39  1  0
  1 40  1  0
 36  1  1  0
 29  9  1  0
 21 12  1  0
 21 16  1  0
M  END
>  <cnnaffinity>  (1) 
-5.38271

>  <filename>  (1) 
[H]c1nc([H])c(C([H])([H])C([H])([H])C([H])([H])c2nc(-c3c([H])c([H])nc4c([H])c([H])c([H])c([H])c34)no2)c([H])c1[H]

$$$$
