
     RDKit          3D

 39 42  0  0  0  0  0  0  0  0999 V2000
    4.9280    1.7794   16.9974 H   0  0  0  0  0  0  0  0  0  0  0  0
    5.4032    1.2895   17.8442 C   0  0  0  0  0  0  0  0  0  0  0  0
    6.5652    0.6729   17.5863 N   0  0  0  0  0  0  0  0  0  0  0  0
    7.1703    0.0590   18.6063 C   0  0  0  0  0  0  0  0  0  0  0  0
    8.1172   -0.4275   18.3868 H   0  0  0  0  0  0  0  0  0  0  0  0
    6.6477    0.0136   19.9083 C   0  0  0  0  0  0  0  0  0  0  0  0
    7.4077   -0.7111   20.9226 C   0  0  0  0  0  0  0  0  0  0  0  0
    8.5282   -1.3479   20.7924 N   0  0  0  0  0  0  0  0  0  0  0  0
    8.8247   -1.8843   22.0350 N   0  0  0  0  0  0  0  0  0  0  0  0
    7.8697   -1.5305   22.8327 C   0  0  0  0  0  0  0  0  0  0  0  0
    7.7741   -1.8617   24.2881 C   0  0  0  0  0  0  0  0  0  0  0  0
    7.3247   -3.3082   24.6144 C   0  0  0  0  0  0  0  0  0  0  0  0
    8.2215   -3.9337   24.4708 H   0  0  0  0  0  0  0  0  0  0  0  0
    6.2566   -3.8535   23.6398 C   0  0  0  0  0  0  0  0  0  0  0  0
    6.6134   -3.7778   22.6049 H   0  0  0  0  0  0  0  0  0  0  0  0
    5.3665   -3.2161   23.7128 H   0  0  0  0  0  0  0  0  0  0  0  0
    5.8677   -5.3120   23.9346 C   0  0  0  0  0  0  0  0  0  0  0  0
    5.0805   -5.6380   23.2442 H   0  0  0  0  0  0  0  0  0  0  0  0
    6.7330   -5.9596   23.7356 H   0  0  0  0  0  0  0  0  0  0  0  0
    5.4191   -5.5092   25.3881 C   0  0  0  0  0  0  0  0  0  0  0  0
    4.4842   -4.9558   25.5519 H   0  0  0  0  0  0  0  0  0  0  0  0
    5.1894   -6.5644   25.5857 H   0  0  0  0  0  0  0  0  0  0  0  0
    6.4811   -4.9902   26.3657 C   0  0  0  0  0  0  0  0  0  0  0  0
    6.1293   -5.0939   27.3993 H   0  0  0  0  0  0  0  0  0  0  0  0
    7.3799   -5.6175   26.2891 H   0  0  0  0  0  0  0  0  0  0  0  0
    6.8541   -3.5278   26.0728 C   0  0  0  0  0  0  0  0  0  0  0  0
    7.6200   -3.1999   26.7844 H   0  0  0  0  0  0  0  0  0  0  0  0
    5.9724   -2.9000   26.2609 H   0  0  0  0  0  0  0  0  0  0  0  0
    8.9342   -1.3011   25.1005 C   0  0  0  0  0  0  0  0  0  0  0  0
    9.3352   -1.9048   25.9113 H   0  0  0  0  0  0  0  0  0  0  0  0
    9.6894   -0.7245   24.5676 H   0  0  0  0  0  0  0  0  0  0  0  0
    7.5688   -0.7122   25.2557 C   0  0  0  0  0  0  0  0  0  0  0  0
    7.0381   -0.8871   26.1889 H   0  0  0  0  0  0  0  0  0  0  0  0
    7.3916    0.2746   24.8361 H   0  0  0  0  0  0  0  0  0  0  0  0
    6.9292   -0.7782   22.1915 O   0  0  0  0  0  0  0  0  0  0  0  0
    5.4252    0.6573   20.1698 C   0  0  0  0  0  0  0  0  0  0  0  0
    4.9871    0.6440   21.1718 H   0  0  0  0  0  0  0  0  0  0  0  0
    4.8016    1.3113   19.1086 C   0  0  0  0  0  0  0  0  0  0  0  0
    3.8710    1.8455   19.2517 H   0  0  0  0  0  0  0  0  0  0  0  0
  1  2  1  0
  2  3  2  0
  3  4  1  0
  4  5  1  0
  4  6  2  0
  6  7  1  0
  7  8  2  0
  8  9  1  0
  9 10  2  0
 10 11  1  0
 11 12  1  0
 12 13  1  0
 12 14  1  0
 14 15  1  0
 14 16  1  0
 14 17  1  0
 17 18  1  0
 17 19  1  0
 17 20  1  0
 20 21  1  0
 20 22  1  0
 20 23  1  0
 23 24  1  0
 23 25  1  0
 23 26  1  0
 26 27  1  0
 26 28  1  0
 11 29  1  0
 29 30  1  0
 29 31  1  0
 29 32  1  0
 32 33  1  0
 32 34  1  0
 10 35  1  0
  6 36  1  0
 36 37  1  0
 36 38  2  0
 38 39  1  0
 38  2  1  0
 35  7  1  0
 32 11  1  0
 26 12  1  0
M  END
>  <cnnaffinity>  (1) 
-5.51905

>  <filename>  (1) 
[H]c1nc([H])c(-c2nnc(C3(C4([H])C([H])([H])C([H])([H])C([H])([H])C([H])([H])C4([H])[H])C([H])([H])C3([H])[H])o2)c([H])c1[H]

$$$$
