
     RDKit          3D

 24 25  0  0  0  0  0  0  0  0999 V2000
   12.2328    2.7953   21.8706 F   0  0  0  0  0  0  0  0  0  0  0  0
   10.9399    2.4865   21.9328 C   0  0  0  0  0  0  0  0  0  0  0  0
   10.5126    1.2571   21.4589 C   0  0  0  0  0  0  0  0  0  0  0  0
    9.1412    0.9523   21.5398 C   0  0  0  0  0  0  0  0  0  0  0  0
    8.7943   -0.2844   21.0797 O   0  0  0  0  0  0  0  0  0  0  0  0
    7.4223   -0.6929   20.9861 C   0  0  0  0  0  0  0  0  0  0  0  0
    6.6541    0.0218   19.9073 C   0  0  0  0  0  0  0  0  0  0  0  0
    5.4311    0.6550   20.1557 C   0  0  0  0  0  0  0  0  0  0  0  0
    4.7973    1.3151   19.0987 C   0  0  0  0  0  0  0  0  0  0  0  0
    5.3997    1.2956   17.8374 C   0  0  0  0  0  0  0  0  0  0  0  0
    6.5639    0.6799   17.5807 N   0  0  0  0  0  0  0  0  0  0  0  0
    7.1697    0.0701   18.6045 C   0  0  0  0  0  0  0  0  0  0  0  0
    8.1124   -0.4216   18.3802 H   0  0  0  0  0  0  0  0  0  0  0  0
    4.9194    1.7829   16.9921 H   0  0  0  0  0  0  0  0  0  0  0  0
    3.8667    1.8494   19.2510 H   0  0  0  0  0  0  0  0  0  0  0  0
    4.9932    0.6375   21.1615 H   0  0  0  0  0  0  0  0  0  0  0  0
    6.9079   -0.6047   21.9547 H   0  0  0  0  0  0  0  0  0  0  0  0
    7.4786   -1.7631   20.7584 H   0  0  0  0  0  0  0  0  0  0  0  0
    8.2889    1.9247   22.1037 C   0  0  0  0  0  0  0  0  0  0  0  0
    8.7183    3.1101   22.5655 N   0  0  0  0  0  0  0  0  0  0  0  0
   10.0080    3.3915   22.4815 C   0  0  0  0  0  0  0  0  0  0  0  0
   10.5361    4.9315   23.0714 Cl  0  0  0  0  0  0  0  0  0  0  0  0
    7.2223    1.7480   22.1956 H   0  0  0  0  0  0  0  0  0  0  0  0
   11.2283    0.5490   21.0586 H   0  0  0  0  0  0  0  0  0  0  0  0
  1  2  1  0
  2  3  2  0
  3  4  1  0
  4  5  1  0
  5  6  1  0
  6  7  1  0
  7  8  2  0
  8  9  1  0
  9 10  2  0
 10 11  1  0
 11 12  2  0
 12 13  1  0
 10 14  1  0
  9 15  1  0
  8 16  1  0
  6 17  1  0
  6 18  1  0
  4 19  2  0
 19 20  1  0
 20 21  2  0
 21 22  1  0
 19 23  1  0
  3 24  1  0
 21  2  1  0
 12  7  1  0
M  END
>  <cnnaffinity>  (1) 
-4.72719

>  <filename>  (1) 
[H]c1nc([H])c(C([H])([H])Oc2c([H])nc(Cl)c(F)c2[H])c([H])c1[H]

$$$$
