
     RDKit          3D

 28 30  0  0  0  0  0  0  0  0999 V2000
    5.3157   -1.8348   24.3100 H   0  0  0  0  0  0  0  0  0  0  0  0
    6.1695   -2.2876   24.7899 C   0  0  0  0  0  0  0  0  0  0  0  0
    5.9292   -2.8632   25.9807 N   0  0  0  0  0  0  0  0  0  0  0  0
    6.9747   -3.4693   26.5614 C   0  0  0  0  0  0  0  0  0  0  0  0
    6.5867   -4.1548   27.6848 N   0  0  0  0  0  0  0  0  0  0  0  0
    5.7078   -3.7431   27.9534 H   0  0  0  0  0  0  0  0  0  0  0  0
    7.2365   -4.2659   28.4392 H   0  0  0  0  0  0  0  0  0  0  0  0
    8.2900   -3.4122   26.0009 C   0  0  0  0  0  0  0  0  0  0  0  0
    9.1235   -3.8488   26.5432 H   0  0  0  0  0  0  0  0  0  0  0  0
    8.5227   -2.8303   24.8271 N   0  0  0  0  0  0  0  0  0  0  0  0
    7.4456   -2.2800   24.1820 C   0  0  0  0  0  0  0  0  0  0  0  0
    7.6842   -1.6943   22.8466 C   0  0  0  0  0  0  0  0  0  0  0  0
    6.7275   -1.1307   22.1055 N   0  0  0  0  0  0  0  0  0  0  0  0
    7.3473   -0.7186   20.9830 N   0  0  0  0  0  0  0  0  0  0  0  0
    6.6463   -0.0370   19.9519 C   0  0  0  0  0  0  0  0  0  0  0  0
    7.1746    0.0034   18.6486 C   0  0  0  0  0  0  0  0  0  0  0  0
    8.1123   -0.4959   18.4013 H   0  0  0  0  0  0  0  0  0  0  0  0
    6.5827    0.6343   17.6329 N   0  0  0  0  0  0  0  0  0  0  0  0
    5.4275    1.2731   17.8772 C   0  0  0  0  0  0  0  0  0  0  0  0
    4.9733    1.7840   17.0335 H   0  0  0  0  0  0  0  0  0  0  0  0
    4.8199    1.2917   19.1372 C   0  0  0  0  0  0  0  0  0  0  0  0
    3.8875    1.8295   19.2747 H   0  0  0  0  0  0  0  0  0  0  0  0
    5.4346    0.6260   20.2003 C   0  0  0  0  0  0  0  0  0  0  0  0
    5.0097    0.6130   21.2041 H   0  0  0  0  0  0  0  0  0  0  0  0
    8.6801   -1.0033   21.0086 C   0  0  0  0  0  0  0  0  0  0  0  0
    9.3158   -0.6921   20.1909 H   0  0  0  0  0  0  0  0  0  0  0  0
    8.9343   -1.6408   22.1873 C   0  0  0  0  0  0  0  0  0  0  0  0
    9.8627   -2.0314   22.5803 H   0  0  0  0  0  0  0  0  0  0  0  0
  1  2  1  0
  2  3  2  0
  3  4  1  0
  4  5  1  0
  5  6  1  0
  5  7  1  0
  4  8  2  0
  8  9  1  0
  8 10  1  0
 10 11  2  0
 11 12  1  0
 12 13  2  0
 13 14  1  0
 14 15  1  0
 15 16  2  0
 16 17  1  0
 16 18  1  0
 18 19  2  0
 19 20  1  0
 19 21  1  0
 21 22  1  0
 21 23  2  0
 23 24  1  0
 14 25  1  0
 25 26  1  0
 25 27  2  0
 27 28  1  0
 11  2  1  0
 27 12  1  0
 23 15  1  0
M  END
>  <cnnaffinity>  (1) 
-4.77186

>  <filename>  (1) 
[H]c1nc(N([H])[H])c([H])nc1-c1nn(-c2c([H])nc([H])c([H])c2[H])c([H])c1[H]

$$$$
