
     RDKit          3D

 36 39  0  0  0  0  0  0  0  0999 V2000
    4.9241    1.7771   17.0013 H   0  0  0  0  0  0  0  0  0  0  0  0
    5.4063    1.2874   17.8455 C   0  0  0  0  0  0  0  0  0  0  0  0
    6.5692    0.6718   17.5858 N   0  0  0  0  0  0  0  0  0  0  0  0
    7.1806    0.0556   18.6006 C   0  0  0  0  0  0  0  0  0  0  0  0
    8.1267   -0.4301   18.3765 H   0  0  0  0  0  0  0  0  0  0  0  0
    6.6641    0.0041   19.9098 C   0  0  0  0  0  0  0  0  0  0  0  0
    7.4147   -0.7109   20.9591 C   0  0  0  0  0  0  0  0  0  0  0  0
    8.5577   -1.3096   20.7702 N   0  0  0  0  0  0  0  0  0  0  0  0
    9.0509   -1.8908   21.9040 N   0  0  0  0  0  0  0  0  0  0  0  0
    8.2801   -1.7353   22.9384 C   0  0  0  0  0  0  0  0  0  0  0  0
    8.6095   -2.2654   24.3105 C   0  0  0  0  0  0  0  0  0  0  0  0
    9.5187   -1.3704   25.1673 C   0  0  0  0  0  0  0  0  0  0  0  0
    9.5542   -1.7587   26.1917 H   0  0  0  0  0  0  0  0  0  0  0  0
   10.5389   -1.4394   24.7707 H   0  0  0  0  0  0  0  0  0  0  0  0
    9.1034    0.0833   25.1904 C   0  0  0  0  0  0  0  0  0  0  0  0
    9.6348    0.9682   24.2346 C   0  0  0  0  0  0  0  0  0  0  0  0
   10.3596    0.5824   23.5200 H   0  0  0  0  0  0  0  0  0  0  0  0
    9.2210    2.2968   24.1594 C   0  0  0  0  0  0  0  0  0  0  0  0
    9.6392    2.9547   23.4013 H   0  0  0  0  0  0  0  0  0  0  0  0
    8.2609    2.7729   25.0568 C   0  0  0  0  0  0  0  0  0  0  0  0
    7.9339    3.8066   25.0067 H   0  0  0  0  0  0  0  0  0  0  0  0
    7.7134    1.9233   26.0193 C   0  0  0  0  0  0  0  0  0  0  0  0
    6.9666    2.2750   26.7259 H   0  0  0  0  0  0  0  0  0  0  0  0
    8.1394    0.5923   26.0766 C   0  0  0  0  0  0  0  0  0  0  0  0
    7.4165   -0.4230   27.3006 Cl  0  0  0  0  0  0  0  0  0  0  0  0
    8.8158   -3.7577   24.4278 C   0  0  0  0  0  0  0  0  0  0  0  0
    9.5913   -4.0997   25.1094 H   0  0  0  0  0  0  0  0  0  0  0  0
    8.7176   -4.3450   23.5199 H   0  0  0  0  0  0  0  0  0  0  0  0
    7.5908   -3.1378   25.0086 C   0  0  0  0  0  0  0  0  0  0  0  0
    7.5223   -3.0730   26.0925 H   0  0  0  0  0  0  0  0  0  0  0  0
    6.6426   -3.3179   24.5139 H   0  0  0  0  0  0  0  0  0  0  0  0
    6.8407   -0.8338   22.5921 S   0  0  0  0  0  0  0  0  0  0  0  0
    5.4415    0.6483   20.1678 C   0  0  0  0  0  0  0  0  0  0  0  0
    5.0006    0.6361   21.1683 H   0  0  0  0  0  0  0  0  0  0  0  0
    4.8106    1.3053   19.1118 C   0  0  0  0  0  0  0  0  0  0  0  0
    3.8789    1.8392   19.2608 H   0  0  0  0  0  0  0  0  0  0  0  0
  1  2  1  0
  2  3  2  0
  3  4  1  0
  4  5  1  0
  4  6  2  0
  6  7  1  0
  7  8  2  0
  8  9  1  0
  9 10  2  0
 10 11  1  0
 11 12  1  0
 12 13  1  0
 12 14  1  0
 12 15  1  0
 15 16  2  0
 16 17  1  0
 16 18  1  0
 18 19  1  0
 18 20  2  0
 20 21  1  0
 20 22  1  0
 22 23  1  0
 22 24  2  0
 24 25  1  0
 11 26  1  0
 26 27  1  0
 26 28  1  0
 26 29  1  0
 29 30  1  0
 29 31  1  0
 10 32  1  0
  6 33  1  0
 33 34  1  0
 33 35  2  0
 35 36  1  0
 35  2  1  0
 32  7  1  0
 29 11  1  0
 24 15  1  0
M  END
>  <cnnaffinity>  (1) 
-5.93835

>  <filename>  (1) 
[H]c1nc([H])c(-c2nnc(C3(C([H])([H])c4c([H])c([H])c([H])c([H])c4Cl)C([H])([H])C3([H])[H])s2)c([H])c1[H]

$$$$
