
     RDKit          3D

 44 47  0  0  0  0  0  0  0  0999 V2000
   11.2421   -1.5589   22.5624 C   0  0  0  0  0  0  0  0  0  0  0  0
   10.0561   -2.4168   22.1291 C   0  0  0  0  0  0  0  0  0  0  0  0
    8.7959   -1.7022   21.9785 N   0  0  0  0  0  0  0  0  0  0  0  0
    8.4782   -1.2334   20.7539 N   0  0  0  0  0  0  0  0  0  0  0  0
    7.3376   -0.6093   20.9609 C   0  0  0  0  0  0  0  0  0  0  0  0
    6.6082    0.0444   19.8828 C   0  0  0  0  0  0  0  0  0  0  0  0
    5.3871    0.6910   20.1037 C   0  0  0  0  0  0  0  0  0  0  0  0
    4.7859    1.3326   19.0240 C   0  0  0  0  0  0  0  0  0  0  0  0
    5.4222    1.3044   17.7755 C   0  0  0  0  0  0  0  0  0  0  0  0
    6.5805    0.6643   17.5518 N   0  0  0  0  0  0  0  0  0  0  0  0
    7.1536    0.0486   18.5904 C   0  0  0  0  0  0  0  0  0  0  0  0
    8.0919   -0.4649   18.3926 H   0  0  0  0  0  0  0  0  0  0  0  0
    4.9851    1.8147   16.9178 H   0  0  0  0  0  0  0  0  0  0  0  0
    3.8527    1.8698   19.1408 H   0  0  0  0  0  0  0  0  0  0  0  0
    4.9496    0.6937   21.1053 H   0  0  0  0  0  0  0  0  0  0  0  0
    6.9017   -0.6474   22.2445 N   0  0  0  0  0  0  0  0  0  0  0  0
    7.8280   -1.3595   22.8620 C   0  0  0  0  0  0  0  0  0  0  0  0
    7.7585   -1.8710   24.2704 C   0  0  0  0  0  0  0  0  0  0  0  0
    7.1102   -3.2813   24.3860 C   0  0  0  0  0  0  0  0  0  0  0  0
    7.0197   -3.7877   25.8083 C   0  0  0  0  0  0  0  0  0  0  0  0
    7.9809   -4.6275   26.3395 C   0  0  0  0  0  0  0  0  0  0  0  0
    7.8639   -5.0956   27.6798 C   0  0  0  0  0  0  0  0  0  0  0  0
    6.8991   -4.7502   28.4968 N   0  0  0  0  0  0  0  0  0  0  0  0
    5.9644   -3.8595   28.0239 C   0  0  0  0  0  0  0  0  0  0  0  0
    5.0163   -3.3703   28.9700 C   0  0  0  0  0  0  0  0  0  0  0  0
    4.1176   -2.3901   28.6236 C   0  0  0  0  0  0  0  0  0  0  0  0
    4.0968   -1.8840   27.2958 C   0  0  0  0  0  0  0  0  0  0  0  0
    4.9845   -2.3499   26.3484 C   0  0  0  0  0  0  0  0  0  0  0  0
    5.9684   -3.3377   26.6876 C   0  0  0  0  0  0  0  0  0  0  0  0
    4.9741   -1.9237   25.3463 H   0  0  0  0  0  0  0  0  0  0  0  0
    3.3867   -1.1040   27.0344 H   0  0  0  0  0  0  0  0  0  0  0  0
    3.4413   -1.9748   29.3693 H   0  0  0  0  0  0  0  0  0  0  0  0
    5.0889   -3.7815   29.9741 H   0  0  0  0  0  0  0  0  0  0  0  0
    8.6164   -5.7736   28.0858 H   0  0  0  0  0  0  0  0  0  0  0  0
    8.8519   -4.9330   25.7687 H   0  0  0  0  0  0  0  0  0  0  0  0
    7.6937   -3.9825   23.7743 H   0  0  0  0  0  0  0  0  0  0  0  0
    6.1089   -3.2523   23.9353 H   0  0  0  0  0  0  0  0  0  0  0  0
    7.1855   -1.1560   24.8676 H   0  0  0  0  0  0  0  0  0  0  0  0
    8.7633   -1.8851   24.7120 H   0  0  0  0  0  0  0  0  0  0  0  0
    9.8998   -3.2545   22.8209 H   0  0  0  0  0  0  0  0  0  0  0  0
   10.2408   -2.8108   21.1326 H   0  0  0  0  0  0  0  0  0  0  0  0
   11.0710   -1.1327   23.5579 H   0  0  0  0  0  0  0  0  0  0  0  0
   11.4299   -0.7463   21.8524 H   0  0  0  0  0  0  0  0  0  0  0  0
   12.1376   -2.1907   22.5790 H   0  0  0  0  0  0  0  0  0  0  0  0
  1  2  1  0
  2  3  1  0
  3  4  1  0
  4  5  2  0
  5  6  1  0
  6  7  2  0
  7  8  1  0
  8  9  2  0
  9 10  1  0
 10 11  2  0
 11 12  1  0
  9 13  1  0
  8 14  1  0
  7 15  1  0
  5 16  1  0
 16 17  2  0
 17 18  1  0
 18 19  1  0
 19 20  1  0
 20 21  2  0
 21 22  1  0
 22 23  2  0
 23 24  1  0
 24 25  2  0
 25 26  1  0
 26 27  2  0
 27 28  1  0
 28 29  2  0
 28 30  1  0
 27 31  1  0
 26 32  1  0
 25 33  1  0
 22 34  1  0
 21 35  1  0
 19 36  1  0
 19 37  1  0
 18 38  1  0
 18 39  1  0
  2 40  1  0
  2 41  1  0
  1 42  1  0
  1 43  1  0
  1 44  1  0
 17  3  1  0
 29 20  1  0
 11  6  1  0
 29 24  1  0
M  END
>  <cnnaffinity>  (1) 
-5.92098

>  <filename>  (1) 
[H]c1nc([H])c(-c2nc(C([H])([H])C([H])([H])c3c([H])c([H])nc4c([H])c([H])c([H])c([H])c34)n(C([H])([H])C([H])([H])[H])n2)c([H])c1[H]

$$$$
