
     RDKit          3D

 39 41  0  0  0  0  0  0  0  0999 V2000
    4.9289    1.8037   16.9819 H   0  0  0  0  0  0  0  0  0  0  0  0
    5.3949    1.2991   17.8255 C   0  0  0  0  0  0  0  0  0  0  0  0
    6.5545    0.6745   17.5677 N   0  0  0  0  0  0  0  0  0  0  0  0
    7.1607    0.0567   18.5885 C   0  0  0  0  0  0  0  0  0  0  0  0
    8.1047   -0.4297   18.3439 H   0  0  0  0  0  0  0  0  0  0  0  0
    6.6545   -0.0008   19.9031 C   0  0  0  0  0  0  0  0  0  0  0  0
    7.3699   -0.7304   20.9981 C   0  0  0  0  0  0  0  0  0  0  0  0
    8.7630   -0.6132   21.1885 C   0  0  0  0  0  0  0  0  0  0  0  0
    9.3566    0.0299   20.5374 H   0  0  0  0  0  0  0  0  0  0  0  0
    9.4302   -1.2435   22.1581 N   0  0  0  0  0  0  0  0  0  0  0  0
    8.7514   -2.0399   22.9996 C   0  0  0  0  0  0  0  0  0  0  0  0
    9.3543   -2.5270   23.7704 H   0  0  0  0  0  0  0  0  0  0  0  0
    7.3560   -2.2380   22.8987 C   0  0  0  0  0  0  0  0  0  0  0  0
    6.5844   -3.0476   23.6776 O   0  0  0  0  0  0  0  0  0  0  0  0
    7.1289   -3.6709   24.8423 C   0  0  0  0  0  0  0  0  0  0  0  0
    8.0860   -4.1448   24.5735 H   0  0  0  0  0  0  0  0  0  0  0  0
    7.3555   -2.6614   25.9676 C   0  0  0  0  0  0  0  0  0  0  0  0
    8.1085   -1.9138   25.6945 H   0  0  0  0  0  0  0  0  0  0  0  0
    6.4206   -2.1212   26.1649 H   0  0  0  0  0  0  0  0  0  0  0  0
    7.7648   -3.3851   27.2514 C   0  0  0  0  0  0  0  0  0  0  0  0
    8.7179   -3.9215   27.1028 H   0  0  0  0  0  0  0  0  0  0  0  0
    7.9615   -2.6083   27.9878 H   0  0  0  0  0  0  0  0  0  0  0  0
    6.7872   -4.3894   27.7009 N   0  0  0  0  0  0  0  0  0  0  0  0
    5.5232   -3.9136   28.2630 C   0  0  0  0  0  0  0  0  0  0  0  0
    4.8949   -3.3338   27.5642 H   0  0  0  0  0  0  0  0  0  0  0  0
    4.9422   -4.7904   28.5782 H   0  0  0  0  0  0  0  0  0  0  0  0
    5.6515   -3.3082   29.1657 H   0  0  0  0  0  0  0  0  0  0  0  0
    6.5734   -5.3793   26.6333 C   0  0  0  0  0  0  0  0  0  0  0  0
    5.8308   -6.1077   26.9851 H   0  0  0  0  0  0  0  0  0  0  0  0
    7.5092   -5.9448   26.4908 H   0  0  0  0  0  0  0  0  0  0  0  0
    6.1330   -4.7429   25.2941 C   0  0  0  0  0  0  0  0  0  0  0  0
    6.0179   -5.4990   24.5102 H   0  0  0  0  0  0  0  0  0  0  0  0
    5.1514   -4.2676   25.4329 H   0  0  0  0  0  0  0  0  0  0  0  0
    6.6748   -1.5603   21.8800 C   0  0  0  0  0  0  0  0  0  0  0  0
    5.6021   -1.7198   21.7858 H   0  0  0  0  0  0  0  0  0  0  0  0
    5.4354    0.6516   20.1425 C   0  0  0  0  0  0  0  0  0  0  0  0
    5.0085    0.6537   21.1463 H   0  0  0  0  0  0  0  0  0  0  0  0
    4.8002    1.3163   19.0916 C   0  0  0  0  0  0  0  0  0  0  0  0
    3.8677    1.8500   19.2380 H   0  0  0  0  0  0  0  0  0  0  0  0
  1  2  1  0
  2  3  2  0
  3  4  1  0
  4  5  1  0
  4  6  2  0
  6  7  1  0
  7  8  2  0
  8  9  1  0
  8 10  1  0
 10 11  2  0
 11 12  1  0
 11 13  1  0
 13 14  1  0
 14 15  1  0
 15 16  1  0
 15 17  1  0
 17 18  1  0
 17 19  1  0
 17 20  1  0
 20 21  1  0
 20 22  1  0
 20 23  1  0
 23 24  1  0
 24 25  1  0
 24 26  1  0
 24 27  1  0
 23 28  1  0
 28 29  1  0
 28 30  1  0
 28 31  1  0
 31 32  1  0
 31 33  1  0
 13 34  2  0
 34 35  1  0
  6 36  1  0
 36 37  1  0
 36 38  2  0
 38 39  1  0
 38  2  1  0
 34  7  1  0
 31 15  1  0
M  END
>  <cnnaffinity>  (1) 
-5.05931

>  <filename>  (1) 
[H]c1nc([H])c(-c2c([H])nc([H])c(OC3([H])C([H])([H])C([H])([H])N(C([H])([H])[H])C([H])([H])C3([H])[H])c2[H])c([H])c1[H]

$$$$
