
     RDKit          3D

 31 33  0  0  0  0  0  0  0  0999 V2000
   12.1901   -0.6643   21.4940 F   0  0  0  0  0  0  0  0  0  0  0  0
   11.7144    0.4478   22.1061 C   0  0  0  0  0  0  0  0  0  0  0  0
   12.4710    1.0704   23.0978 C   0  0  0  0  0  0  0  0  0  0  0  0
   11.9357    2.1405   23.8127 C   0  0  0  0  0  0  0  0  0  0  0  0
   10.6697    2.6340   23.5044 C   0  0  0  0  0  0  0  0  0  0  0  0
    9.9178    2.0483   22.4826 C   0  0  0  0  0  0  0  0  0  0  0  0
    8.1570    2.7121   22.1096 Br  0  0  0  0  0  0  0  0  0  0  0  0
   10.4426    0.9447   21.7847 C   0  0  0  0  0  0  0  0  0  0  0  0
    9.6177    0.2232   20.7524 C   0  0  0  0  0  0  0  0  0  0  0  0
    8.6366   -0.6450   21.3802 N   0  0  0  0  0  0  0  0  0  0  0  0
    8.9399   -1.5267   22.3805 N   0  0  0  0  0  0  0  0  0  0  0  0
    7.8085   -2.1169   22.6660 C   0  0  0  0  0  0  0  0  0  0  0  0
    6.7488   -1.6199   21.8061 C   0  0  0  0  0  0  0  0  0  0  0  0
    7.3078   -0.7007   20.9848 C   0  0  0  0  0  0  0  0  0  0  0  0
    6.6322    0.0136   19.8945 C   0  0  0  0  0  0  0  0  0  0  0  0
    5.4137    0.6448   20.1235 C   0  0  0  0  0  0  0  0  0  0  0  0
    4.7965    1.3083   19.0639 C   0  0  0  0  0  0  0  0  0  0  0  0
    5.3939    1.3174   17.8002 C   0  0  0  0  0  0  0  0  0  0  0  0
    6.5676    0.6994   17.5686 N   0  0  0  0  0  0  0  0  0  0  0  0
    7.1743    0.0752   18.6009 C   0  0  0  0  0  0  0  0  0  0  0  0
    8.1210   -0.4193   18.4124 H   0  0  0  0  0  0  0  0  0  0  0  0
    4.8950    1.8483   16.9907 H   0  0  0  0  0  0  0  0  0  0  0  0
    3.8632    1.8368   19.2084 H   0  0  0  0  0  0  0  0  0  0  0  0
    4.9736    0.6373   21.1162 H   0  0  0  0  0  0  0  0  0  0  0  0
    5.7169   -1.9395   21.7906 H   0  0  0  0  0  0  0  0  0  0  0  0
    7.7061   -2.8773   23.4361 H   0  0  0  0  0  0  0  0  0  0  0  0
   10.2468   -0.4143   20.1301 H   0  0  0  0  0  0  0  0  0  0  0  0
    9.0906    0.9470   20.1251 H   0  0  0  0  0  0  0  0  0  0  0  0
   10.2545    3.4546   24.0797 H   0  0  0  0  0  0  0  0  0  0  0  0
   12.4787    2.5623   24.6393 H   0  0  0  0  0  0  0  0  0  0  0  0
   13.4588    0.6895   23.3306 H   0  0  0  0  0  0  0  0  0  0  0  0
  1  2  1  0
  2  3  2  0
  3  4  1  0
  4  5  2  0
  5  6  1  0
  6  7  1  0
  6  8  2  0
  8  9  1  0
  9 10  1  0
 10 11  1  0
 11 12  2  0
 12 13  1  0
 13 14  2  0
 14 15  1  0
 15 16  2  0
 16 17  1  0
 17 18  2  0
 18 19  1  0
 19 20  2  0
 20 21  1  0
 18 22  1  0
 17 23  1  0
 16 24  1  0
 13 25  1  0
 12 26  1  0
  9 27  1  0
  9 28  1  0
  5 29  1  0
  4 30  1  0
  3 31  1  0
  8  2  1  0
 14 10  1  0
 20 15  1  0
M  END
>  <cnnaffinity>  (1) 
-5.88785

>  <filename>  (1) 
[H]c1nc([H])c(-c2c([H])c([H])nn2C([H])([H])c2c(F)c([H])c([H])c([H])c2Br)c([H])c1[H]

$$$$
