
     RDKit          3D

 25 26  0  0  0  0  0  0  0  0999 V2000
    4.9230    1.7727   17.0044 H   0  0  0  0  0  0  0  0  0  0  0  0
    5.4096    1.2857   17.8485 C   0  0  0  0  0  0  0  0  0  0  0  0
    6.5740    0.6693   17.5927 N   0  0  0  0  0  0  0  0  0  0  0  0
    7.1831    0.0533   18.6115 C   0  0  0  0  0  0  0  0  0  0  0  0
    8.1281   -0.4336   18.3831 H   0  0  0  0  0  0  0  0  0  0  0  0
    6.6614    0.0056   19.9117 C   0  0  0  0  0  0  0  0  0  0  0  0
    7.4227   -0.7185   20.9408 C   0  0  0  0  0  0  0  0  0  0  0  0
    8.5534   -1.3421   20.8114 N   0  0  0  0  0  0  0  0  0  0  0  0
    8.7495   -1.8025   22.0859 C   0  0  0  0  0  0  0  0  0  0  0  0
    9.8457   -2.5036   22.3594 O   0  0  0  0  0  0  0  0  0  0  0  0
   10.0348   -3.0576   23.6748 C   0  0  0  0  0  0  0  0  0  0  0  0
    9.8605   -2.3093   24.4551 H   0  0  0  0  0  0  0  0  0  0  0  0
   11.0900   -3.3347   23.7334 H   0  0  0  0  0  0  0  0  0  0  0  0
    9.1898   -4.3023   23.9429 C   0  0  0  0  0  0  0  0  0  0  0  0
    9.3804   -5.0449   23.1659 H   0  0  0  0  0  0  0  0  0  0  0  0
    8.1343   -4.0371   23.8419 H   0  0  0  0  0  0  0  0  0  0  0  0
    9.4249   -4.9095   25.2491 N   0  0  0  0  0  0  0  0  0  0  0  0
    9.2504   -4.2253   25.9808 H   0  0  0  0  0  0  0  0  0  0  0  0
   10.4043   -5.1707   25.3503 H   0  0  0  0  0  0  0  0  0  0  0  0
    7.8178   -1.5036   22.9554 N   0  0  0  0  0  0  0  0  0  0  0  0
    6.9225   -0.7690   22.1802 O   0  0  0  0  0  0  0  0  0  0  0  0
    5.4382    0.6507   20.1708 C   0  0  0  0  0  0  0  0  0  0  0  0
    4.9935    0.6386   21.1701 H   0  0  0  0  0  0  0  0  0  0  0  0
    4.8093    1.3058   19.1152 C   0  0  0  0  0  0  0  0  0  0  0  0
    3.8749    1.8429   19.2609 H   0  0  0  0  0  0  0  0  0  0  0  0
  1  2  1  0
  2  3  2  0
  3  4  1  0
  4  5  1  0
  4  6  2  0
  6  7  1  0
  7  8  2  0
  8  9  1  0
  9 10  1  0
 10 11  1  0
 11 12  1  0
 11 13  1  0
 11 14  1  0
 14 15  1  0
 14 16  1  0
 14 17  1  0
 17 18  1  0
 17 19  1  0
  9 20  2  0
 20 21  1  0
  6 22  1  0
 22 23  1  0
 22 24  2  0
 24 25  1  0
 24  2  1  0
 21  7  1  0
M  END
>  <cnnaffinity>  (1) 
-4.5116

>  <filename>  (1) 
[H]c1nc([H])c(-c2nc(OC([H])([H])C([H])([H])N([H])[H])no2)c([H])c1[H]

$$$$
