
     RDKit          3D

 32 34  0  0  0  0  0  0  0  0999 V2000
    4.9113    1.8227   16.9594 H   0  0  0  0  0  0  0  0  0  0  0  0
    5.3804    1.3156   17.8001 C   0  0  0  0  0  0  0  0  0  0  0  0
    6.5415    0.6958   17.5318 N   0  0  0  0  0  0  0  0  0  0  0  0
    7.1523    0.0767   18.5470 C   0  0  0  0  0  0  0  0  0  0  0  0
    8.1102   -0.3880   18.3118 H   0  0  0  0  0  0  0  0  0  0  0  0
    6.6528    0.0348   19.8634 C   0  0  0  0  0  0  0  0  0  0  0  0
    7.3881   -0.6182   20.9465 C   0  0  0  0  0  0  0  0  0  0  0  0
    7.5826   -0.2375   22.2749 C   0  0  0  0  0  0  0  0  0  0  0  0
    7.1744    0.9622   23.0163 C   0  0  0  0  0  0  0  0  0  0  0  0
    6.8826    0.8886   24.2002 O   0  0  0  0  0  0  0  0  0  0  0  0
    7.1675    2.1297   22.3013 N   0  0  0  0  0  0  0  0  0  0  0  0
    7.4185    2.0410   21.3323 H   0  0  0  0  0  0  0  0  0  0  0  0
    6.7053    3.3854   22.7572 C   0  0  0  0  0  0  0  0  0  0  0  0
    5.9940    4.2204   21.8900 C   0  0  0  0  0  0  0  0  0  0  0  0
    5.8278    3.8944   20.8689 H   0  0  0  0  0  0  0  0  0  0  0  0
    5.4779    5.4407   22.3463 C   0  0  0  0  0  0  0  0  0  0  0  0
    4.9108    6.0721   21.6644 H   0  0  0  0  0  0  0  0  0  0  0  0
    5.6944    5.8413   23.6692 C   0  0  0  0  0  0  0  0  0  0  0  0
    5.2909    6.7840   24.0319 H   0  0  0  0  0  0  0  0  0  0  0  0
    6.4382    5.0184   24.5245 C   0  0  0  0  0  0  0  0  0  0  0  0
    6.6071    5.3150   25.5574 H   0  0  0  0  0  0  0  0  0  0  0  0
    6.9434    3.7939   24.0742 C   0  0  0  0  0  0  0  0  0  0  0  0
    7.4974    3.1212   24.7174 H   0  0  0  0  0  0  0  0  0  0  0  0
    8.1879   -1.3614   22.8833 C   0  0  0  0  0  0  0  0  0  0  0  0
    8.4684   -1.5360   23.9176 H   0  0  0  0  0  0  0  0  0  0  0  0
    8.3980   -2.3290   22.0134 N   0  0  0  0  0  0  0  0  0  0  0  0
    7.9219   -1.8577   20.8513 N   0  0  0  0  0  0  0  0  0  0  0  0
    7.9287   -2.4631   20.0391 H   0  0  0  0  0  0  0  0  0  0  0  0
    5.4275    0.6651   20.1181 C   0  0  0  0  0  0  0  0  0  0  0  0
    5.0037    0.6422   21.1227 H   0  0  0  0  0  0  0  0  0  0  0  0
    4.7888    1.3247   19.0686 C   0  0  0  0  0  0  0  0  0  0  0  0
    3.8597    1.8553   19.2279 H   0  0  0  0  0  0  0  0  0  0  0  0
  1  2  1  0
  2  3  2  0
  3  4  1  0
  4  5  1  0
  4  6  2  0
  6  7  1  0
  7  8  2  0
  8  9  1  0
  9 10  2  0
  9 11  1  0
 11 12  1  0
 11 13  1  0
 13 14  2  0
 14 15  1  0
 14 16  1  0
 16 17  1  0
 16 18  2  0
 18 19  1  0
 18 20  1  0
 20 21  1  0
 20 22  2  0
 22 23  1  0
  8 24  1  0
 24 25  1  0
 24 26  2  0
 26 27  1  0
 27 28  1  0
  6 29  1  0
 29 30  1  0
 29 31  2  0
 31 32  1  0
 31  2  1  0
 27  7  1  0
 22 13  1  0
M  END
>  <cnnaffinity>  (1) 
-4.90569

>  <filename>  (1) 
[H]c1nc([H])c(-c2c(C(=O)N([H])c3c([H])c([H])c([H])c([H])c3[H])c([H])nn2[H])c([H])c1[H]

$$$$
