
     RDKit          3D

 28 30  0  0  0  0  0  0  0  0999 V2000
   12.7725    0.3418   22.1997 H   0  0  0  0  0  0  0  0  0  0  0  0
   11.7234    0.5766   22.0962 C   0  0  0  0  0  0  0  0  0  0  0  0
   11.2821    1.7014   21.6173 N   0  0  0  0  0  0  0  0  0  0  0  0
    9.9084    1.6890   21.6250 C   0  0  0  0  0  0  0  0  0  0  0  0
    9.3607    2.5415   21.2467 H   0  0  0  0  0  0  0  0  0  0  0  0
    9.3038    0.5602   22.0990 C   0  0  0  0  0  0  0  0  0  0  0  0
    7.8421    0.2069   22.1392 C   0  0  2  0  0  0  0  0  0  0  0  0
    7.2877    1.1516   22.1233 H   0  0  0  0  0  0  0  0  0  0  0  0
    7.4010   -0.5117   23.4151 C   0  0  0  0  0  0  0  0  0  0  0  0
    7.5723   -0.1511   24.5574 O   0  0  0  0  0  0  0  0  0  0  0  0
    6.7650   -1.6517   23.0412 N   0  0  0  0  0  0  0  0  0  0  0  0
    6.3567   -2.2127   23.7665 H   0  0  0  0  0  0  0  0  0  0  0  0
    6.5667   -1.8592   21.6288 C   0  0  0  0  0  0  0  0  0  0  0  0
    5.5023   -1.8062   21.3525 H   0  0  0  0  0  0  0  0  0  0  0  0
    6.9320   -2.8432   21.3115 H   0  0  0  0  0  0  0  0  0  0  0  0
    7.3989   -0.7310   20.9800 C   0  0  1  0  0  0  0  0  0  0  0  0
    8.2988   -1.1802   20.5509 H   0  0  0  0  0  0  0  0  0  0  0  0
    6.6651    0.0037   19.8933 C   0  0  0  0  0  0  0  0  0  0  0  0
    7.1714    0.0689   18.5859 C   0  0  0  0  0  0  0  0  0  0  0  0
    8.1202   -0.4220   18.3660 H   0  0  0  0  0  0  0  0  0  0  0  0
    6.5643    0.6838   17.5649 N   0  0  0  0  0  0  0  0  0  0  0  0
    5.3994    1.2944   17.8361 C   0  0  0  0  0  0  0  0  0  0  0  0
    4.9107    1.7818   16.9975 H   0  0  0  0  0  0  0  0  0  0  0  0
    4.8074    1.3105   19.1049 C   0  0  0  0  0  0  0  0  0  0  0  0
    3.8751    1.8428   19.2612 H   0  0  0  0  0  0  0  0  0  0  0  0
    5.4485    0.6504   20.1519 C   0  0  0  0  0  0  0  0  0  0  0  0
    5.0110    0.6325   21.1562 H   0  0  0  0  0  0  0  0  0  0  0  0
   10.5150   -0.5578   22.5777 S   0  0  0  0  0  0  0  0  0  0  0  0
  1  2  1  0
  2  3  2  0
  3  4  1  0
  4  5  1  0
  4  6  2  0
  6  7  1  0
  7  8  1  6
  7  9  1  0
  9 10  2  0
  9 11  1  0
 11 12  1  0
 11 13  1  0
 13 14  1  0
 13 15  1  0
 13 16  1  0
 16 17  1  6
 16 18  1  0
 18 19  2  0
 19 20  1  0
 19 21  1  0
 21 22  2  0
 22 23  1  0
 22 24  1  0
 24 25  1  0
 24 26  2  0
 26 27  1  0
  6 28  1  0
 28  2  1  0
 16  7  1  0
 26 18  1  0
M  END
>  <cnnaffinity>  (1) 
-5.06657

>  <filename>  (1) 
[H]c1nc([H])c([C@]2([H])C(=O)N([H])C([H])([H])[C@@]2([H])c2c([H])nc([H])c([H])c2[H])s1

$$$$
