
     RDKit          3D

 41 43  0  0  0  0  0  0  0  0999 V2000
    4.8944    1.8739   16.7962 H   0  0  0  0  0  0  0  0  0  0  0  0
    5.3358    1.3854   17.6615 C   0  0  0  0  0  0  0  0  0  0  0  0
    6.5171    0.7780   17.4586 N   0  0  0  0  0  0  0  0  0  0  0  0
    7.0991    0.1830   18.5122 C   0  0  0  0  0  0  0  0  0  0  0  0
    8.0472   -0.3191   18.3179 H   0  0  0  0  0  0  0  0  0  0  0  0
    6.5489    0.1418   19.8220 C   0  0  0  0  0  0  0  0  0  0  0  0
    7.2308   -0.4543   20.9084 N   0  0  0  0  0  0  0  0  0  0  0  0
    6.5622   -1.3325   21.8571 C   0  0  0  0  0  0  0  0  0  0  0  0
    5.5675   -1.5661   21.4649 H   0  0  0  0  0  0  0  0  0  0  0  0
    6.4215   -0.8256   22.8284 H   0  0  0  0  0  0  0  0  0  0  0  0
    7.2808   -2.6707   22.1281 C   0  0  0  0  0  0  0  0  0  0  0  0
    7.4235   -3.1993   21.1657 H   0  0  0  0  0  0  0  0  0  0  0  0
    6.5817   -3.2697   22.7236 H   0  0  0  0  0  0  0  0  0  0  0  0
    8.5343   -2.5411   22.8854 N   0  0  0  0  0  0  0  0  0  0  0  0
    8.7468   -3.6334   23.8543 C   0  0  0  0  0  0  0  0  0  0  0  0
    8.6617   -4.6350   23.3929 H   0  0  0  0  0  0  0  0  0  0  0  0
    9.7680   -3.5551   24.2527 H   0  0  0  0  0  0  0  0  0  0  0  0
    7.7981   -3.5183   25.0418 C   0  0  0  0  0  0  0  0  0  0  0  0
    6.8635   -4.5011   25.4053 C   0  0  0  0  0  0  0  0  0  0  0  0
    6.8232   -5.4531   24.8776 H   0  0  0  0  0  0  0  0  0  0  0  0
    5.9691   -4.2751   26.4593 C   0  0  0  0  0  0  0  0  0  0  0  0
    5.2216   -5.0167   26.7321 H   0  0  0  0  0  0  0  0  0  0  0  0
    6.0095   -3.0732   27.1745 C   0  0  0  0  0  0  0  0  0  0  0  0
    4.8735   -2.8149   28.4566 Cl  0  0  0  0  0  0  0  0  0  0  0  0
    6.9687   -2.1014   26.8457 C   0  0  0  0  0  0  0  0  0  0  0  0
    7.0622   -0.5834   27.6752 Cl  0  0  0  0  0  0  0  0  0  0  0  0
    7.8599   -2.3396   25.7994 C   0  0  0  0  0  0  0  0  0  0  0  0
    8.6036   -1.5853   25.5582 H   0  0  0  0  0  0  0  0  0  0  0  0
    9.7208   -2.2190   22.0959 C   0  0  0  0  0  0  0  0  0  0  0  0
   10.0655   -3.0777   21.5109 H   0  0  0  0  0  0  0  0  0  0  0  0
   10.5234   -2.0049   22.8081 H   0  0  0  0  0  0  0  0  0  0  0  0
    9.6327   -1.0567   21.0925 C   0  0  0  0  0  0  0  0  0  0  0  0
    9.4464   -1.4794   20.0971 H   0  0  0  0  0  0  0  0  0  0  0  0
   10.6224   -0.5722   21.0613 H   0  0  0  0  0  0  0  0  0  0  0  0
    8.5550    0.0003   21.3219 C   0  0  0  0  0  0  0  0  0  0  0  0
    8.8128    0.8893   20.7372 H   0  0  0  0  0  0  0  0  0  0  0  0
    8.5206    0.3068   22.3814 H   0  0  0  0  0  0  0  0  0  0  0  0
    5.2870    0.7463   19.9860 C   0  0  0  0  0  0  0  0  0  0  0  0
    4.8238    0.7183   20.9710 H   0  0  0  0  0  0  0  0  0  0  0  0
    4.6822    1.3874   18.8993 C   0  0  0  0  0  0  0  0  0  0  0  0
    3.7249    1.8870   19.0040 H   0  0  0  0  0  0  0  0  0  0  0  0
  1  2  1  0
  2  3  2  0
  3  4  1  0
  4  5  1  0
  4  6  2  0
  6  7  1  0
  7  8  1  0
  8  9  1  0
  8 10  1  0
  8 11  1  0
 11 12  1  0
 11 13  1  0
 11 14  1  0
 14 15  1  0
 15 16  1  0
 15 17  1  0
 15 18  1  0
 18 19  2  0
 19 20  1  0
 19 21  1  0
 21 22  1  0
 21 23  2  0
 23 24  1  0
 23 25  1  0
 25 26  1  0
 25 27  2  0
 27 28  1  0
 14 29  1  0
 29 30  1  0
 29 31  1  0
 29 32  1  0
 32 33  1  0
 32 34  1  0
 32 35  1  0
 35 36  1  0
 35 37  1  0
  6 38  1  0
 38 39  1  0
 38 40  2  0
 40 41  1  0
 40  2  1  0
 35  7  1  0
 27 18  1  0
M  END
>  <cnnaffinity>  (1) 
-5.51042

>  <filename>  (1) 
[H]c1nc([H])c(N2C([H])([H])C([H])([H])N(C([H])([H])c3c([H])c([H])c(Cl)c(Cl)c3[H])C([H])([H])C([H])([H])C2([H])[H])c([H])c1[H]

$$$$
