
     RDKit          3D

 30 32  0  0  0  0  0  0  0  0999 V2000
   10.6386   -3.2988   23.7398 H   0  0  0  0  0  0  0  0  0  0  0  0
    9.6239   -3.5729   23.4578 C   0  0  0  0  0  0  0  0  0  0  0  0
    9.0953   -4.6108   24.1267 N   0  0  0  0  0  0  0  0  0  0  0  0
    7.8573   -4.9772   23.7596 C   0  0  0  0  0  0  0  0  0  0  0  0
    7.3901   -5.9564   24.5876 N   0  0  0  0  0  0  0  0  0  0  0  0
    6.8578   -6.6941   24.1613 H   0  0  0  0  0  0  0  0  0  0  0  0
    8.2044   -6.2480   25.1180 H   0  0  0  0  0  0  0  0  0  0  0  0
    7.1540   -4.3374   22.6808 C   0  0  0  0  0  0  0  0  0  0  0  0
    6.1664   -4.6735   22.3622 H   0  0  0  0  0  0  0  0  0  0  0  0
    7.6683   -3.2692   22.0682 N   0  0  0  0  0  0  0  0  0  0  0  0
    8.9222   -2.8706   22.4446 C   0  0  0  0  0  0  0  0  0  0  0  0
    9.4554   -1.6851   21.7763 C   0  0  0  0  0  0  0  0  0  0  0  0
    8.7592   -0.6825   21.1119 C   0  0  0  0  0  0  0  0  0  0  0  0
    7.3774   -0.6469   20.9398 N   0  0  0  0  0  0  0  0  0  0  0  0
    6.9128   -1.4214   21.4074 H   0  0  0  0  0  0  0  0  0  0  0  0
    6.7094   -0.0036   19.8768 C   0  0  0  0  0  0  0  0  0  0  0  0
    7.1899    0.0487   18.5413 C   0  0  0  0  0  0  0  0  0  0  0  0
    8.1082   -0.4785   18.2822 H   0  0  0  0  0  0  0  0  0  0  0  0
    6.5628    0.6841   17.5377 N   0  0  0  0  0  0  0  0  0  0  0  0
    5.4066    1.3057   17.8198 C   0  0  0  0  0  0  0  0  0  0  0  0
    4.9306    1.8357   16.9971 H   0  0  0  0  0  0  0  0  0  0  0  0
    4.8231    1.2887   19.0921 C   0  0  0  0  0  0  0  0  0  0  0  0
    3.8834    1.8051   19.2611 H   0  0  0  0  0  0  0  0  0  0  0  0
    5.4760    0.6138   20.1296 C   0  0  0  0  0  0  0  0  0  0  0  0
    5.0657    0.5636   21.1382 H   0  0  0  0  0  0  0  0  0  0  0  0
    9.7504    0.2639   20.7622 C   0  0  0  0  0  0  0  0  0  0  0  0
    9.6040    1.1809   20.2179 H   0  0  0  0  0  0  0  0  0  0  0  0
   10.9589   -0.1150   21.1595 N   0  0  0  0  0  0  0  0  0  0  0  0
   10.7635   -1.2867   21.7742 N   0  0  0  0  0  0  0  0  0  0  0  0
   11.5914   -1.7961   22.0604 H   0  0  0  0  0  0  0  0  0  0  0  0
  1  2  1  0
  2  3  2  0
  3  4  1  0
  4  5  1  0
  5  6  1  0
  5  7  1  0
  4  8  2  0
  8  9  1  0
  8 10  1  0
 10 11  2  0
 11 12  1  0
 12 13  2  0
 13 14  1  0
 14 15  1  0
 14 16  1  0
 16 17  2  0
 17 18  1  0
 17 19  1  0
 19 20  2  0
 20 21  1  0
 20 22  1  0
 22 23  1  0
 22 24  2  0
 24 25  1  0
 13 26  1  0
 26 27  1  0
 26 28  2  0
 28 29  1  0
 29 30  1  0
 11  2  1  0
 29 12  1  0
 24 16  1  0
M  END
>  <cnnaffinity>  (1) 
-5.74295

>  <filename>  (1) 
[H]c1nc(N([H])[H])c([H])nc1-c1c(N([H])c2c([H])nc([H])c([H])c2[H])c([H])nn1[H]

$$$$
