
     RDKit          3D

 30 32  0  0  0  0  0  0  0  0999 V2000
    4.9251    1.7805   16.9961 H   0  0  0  0  0  0  0  0  0  0  0  0
    5.4048    1.2890   17.8405 C   0  0  0  0  0  0  0  0  0  0  0  0
    6.5730    0.6721   17.5926 N   0  0  0  0  0  0  0  0  0  0  0  0
    7.1813    0.0519   18.6054 C   0  0  0  0  0  0  0  0  0  0  0  0
    8.1259   -0.4370   18.3775 H   0  0  0  0  0  0  0  0  0  0  0  0
    6.6531    0.0152   19.9082 C   0  0  0  0  0  0  0  0  0  0  0  0
    7.3569   -0.6388   20.9614 N   0  0  0  0  0  0  0  0  0  0  0  0
    8.0947   -1.7576   20.7145 N   0  0  0  0  0  0  0  0  0  0  0  0
    8.6142   -2.1549   21.8227 N   0  0  0  0  0  0  0  0  0  0  0  0
    8.2413   -1.3150   22.8254 C   0  0  0  0  0  0  0  0  0  0  0  0
    8.5683   -1.4385   23.8489 H   0  0  0  0  0  0  0  0  0  0  0  0
    7.4358   -0.3409   22.2871 C   0  0  0  0  0  0  0  0  0  0  0  0
    6.7755    0.7146   22.7902 O   0  0  0  0  0  0  0  0  0  0  0  0
    7.0162    1.0574   24.1668 C   0  0  0  0  0  0  0  0  0  0  0  0
    6.2720    1.8219   24.3841 H   0  0  0  0  0  0  0  0  0  0  0  0
    6.8309    0.1985   24.8192 H   0  0  0  0  0  0  0  0  0  0  0  0
    8.3921    1.6099   24.4176 C   0  0  0  0  0  0  0  0  0  0  0  0
    8.8668    2.7025   23.6860 C   0  0  0  0  0  0  0  0  0  0  0  0
    8.2468    3.1784   22.9386 H   0  0  0  0  0  0  0  0  0  0  0  0
   10.1685    3.1547   23.9011 C   0  0  0  0  0  0  0  0  0  0  0  0
   10.5492    4.0144   23.3563 H   0  0  0  0  0  0  0  0  0  0  0  0
   11.0143    2.5903   24.7690 N   0  0  0  0  0  0  0  0  0  0  0  0
   10.5320    1.5810   25.5008 C   0  0  0  0  0  0  0  0  0  0  0  0
   11.1833    1.1472   26.2448 H   0  0  0  0  0  0  0  0  0  0  0  0
    9.2484    1.0564   25.3684 C   0  0  0  0  0  0  0  0  0  0  0  0
    8.9566    0.2129   25.9850 H   0  0  0  0  0  0  0  0  0  0  0  0
    5.4300    0.6448   20.1649 C   0  0  0  0  0  0  0  0  0  0  0  0
    5.0080    0.6365   21.1687 H   0  0  0  0  0  0  0  0  0  0  0  0
    4.8059    1.2997   19.1031 C   0  0  0  0  0  0  0  0  0  0  0  0
    3.8789    1.8369   19.2581 H   0  0  0  0  0  0  0  0  0  0  0  0
  1  2  1  0
  2  3  2  0
  3  4  1  0
  4  5  1  0
  4  6  2  0
  6  7  1  0
  7  8  1  0
  8  9  2  0
  9 10  1  0
 10 11  1  0
 10 12  2  0
 12 13  1  0
 13 14  1  0
 14 15  1  0
 14 16  1  0
 14 17  1  0
 17 18  2  0
 18 19  1  0
 18 20  1  0
 20 21  1  0
 20 22  2  0
 22 23  1  0
 23 24  1  0
 23 25  2  0
 25 26  1  0
  6 27  1  0
 27 28  1  0
 27 29  2  0
 29 30  1  0
 29  2  1  0
 12  7  1  0
 25 17  1  0
M  END
>  <cnnaffinity>  (1) 
-4.99985

>  <filename>  (1) 
[H]c1nc([H])c(-n2nnc([H])c2OC([H])([H])c2c([H])c([H])nc([H])c2[H])c([H])c1[H]

$$$$
