
     RDKit          3D

 30 32  0  0  0  0  0  0  0  0999 V2000
    7.0400   -1.5360   23.9772 H   0  0  0  0  0  0  0  0  0  0  0  0
    7.3373   -1.4288   22.9399 C   0  0  0  0  0  0  0  0  0  0  0  0
    6.4776   -0.8204   22.0702 N   0  0  0  0  0  0  0  0  0  0  0  0
    7.0076   -0.6910   20.8910 C   0  0  0  0  0  0  0  0  0  0  0  0
    6.3847    0.0279   19.7725 C   0  0  0  0  0  0  0  0  0  0  0  0
    7.0135    0.0429   18.5177 C   0  0  0  0  0  0  0  0  0  0  0  0
    7.9541   -0.4869   18.3733 H   0  0  0  0  0  0  0  0  0  0  0  0
    6.5469    0.6939   17.4492 N   0  0  0  0  0  0  0  0  0  0  0  0
    5.4162    1.4008   17.6060 C   0  0  0  0  0  0  0  0  0  0  0  0
    5.0596    1.9436   16.7314 H   0  0  0  0  0  0  0  0  0  0  0  0
    4.7139    1.4696   18.8144 C   0  0  0  0  0  0  0  0  0  0  0  0
    3.8242    2.0888   18.8836 H   0  0  0  0  0  0  0  0  0  0  0  0
    5.1938    0.7693   19.9205 C   0  0  0  0  0  0  0  0  0  0  0  0
    4.6805    0.7979   20.8834 H   0  0  0  0  0  0  0  0  0  0  0  0
    8.6028   -1.4008   20.7604 S   0  0  0  0  0  0  0  0  0  0  0  0
    8.5541   -1.8028   22.4410 C   0  0  0  0  0  0  0  0  0  0  0  0
    9.7660   -2.3374   23.1480 C   0  0  0  0  0  0  0  0  0  0  0  0
    9.4988   -2.6316   24.1695 H   0  0  0  0  0  0  0  0  0  0  0  0
   10.1521   -3.2454   22.6651 H   0  0  0  0  0  0  0  0  0  0  0  0
   10.8845   -1.3076   23.2040 C   0  0  0  0  0  0  0  0  0  0  0  0
   11.9816   -1.3788   22.3296 C   0  0  0  0  0  0  0  0  0  0  0  0
   12.0063   -2.1616   21.5720 H   0  0  0  0  0  0  0  0  0  0  0  0
   13.0421   -0.4742   22.4181 C   0  0  0  0  0  0  0  0  0  0  0  0
   13.8947   -0.5761   21.7502 H   0  0  0  0  0  0  0  0  0  0  0  0
   13.0316    0.5228   23.3985 C   0  0  0  0  0  0  0  0  0  0  0  0
   13.8718    1.2048   23.4990 H   0  0  0  0  0  0  0  0  0  0  0  0
   11.9375    0.6394   24.2573 C   0  0  0  0  0  0  0  0  0  0  0  0
   11.8982    1.4152   25.0165 H   0  0  0  0  0  0  0  0  0  0  0  0
   10.8812   -0.2722   24.1537 C   0  0  0  0  0  0  0  0  0  0  0  0
    9.5694   -0.0897   25.2839 Cl  0  0  0  0  0  0  0  0  0  0  0  0
  1  2  1  0
  2  3  1  0
  3  4  2  0
  4  5  1  0
  5  6  2  0
  6  7  1  0
  6  8  1  0
  8  9  2  0
  9 10  1  0
  9 11  1  0
 11 12  1  0
 11 13  2  0
 13 14  1  0
  4 15  1  0
 15 16  1  0
 16 17  1  0
 17 18  1  0
 17 19  1  0
 17 20  1  0
 20 21  2  0
 21 22  1  0
 21 23  1  0
 23 24  1  0
 23 25  2  0
 25 26  1  0
 25 27  1  0
 27 28  1  0
 27 29  2  0
 29 30  1  0
 16  2  2  0
 29 20  1  0
 13  5  1  0
M  END
>  <cnnaffinity>  (1) 
-5.33752

>  <filename>  (1) 
[H]c1nc(-c2c([H])nc([H])c([H])c2[H])sc1C([H])([H])c1c([H])c([H])c([H])c([H])c1Cl

$$$$
