
     RDKit          3D

 42 45  0  0  0  0  0  0  0  0999 V2000
    4.7946    1.3114   19.0878 C   0  0  0  0  0  0  0  0  0  0  0  0
    5.3894    1.2982   17.8234 C   0  0  0  0  0  0  0  0  0  0  0  0
    6.5473    0.6722   17.5667 N   0  0  0  0  0  0  0  0  0  0  0  0
    7.1494    0.0463   18.5877 C   0  0  0  0  0  0  0  0  0  0  0  0
    6.6462   -0.0179   19.9047 C   0  0  0  0  0  0  0  0  0  0  0  0
    7.3905   -0.7304   21.0191 C   0  0  0  0  0  0  0  0  0  0  0  0
    8.4067    0.1405   21.8020 C   0  0  0  0  0  0  0  0  0  0  0  0
    9.5325    0.6546   20.8971 C   0  0  0  0  0  0  0  0  0  0  0  0
   10.5538    1.4491   21.7193 C   0  0  0  0  0  0  0  0  0  0  0  0
    9.8970    2.5934   22.5039 C   0  0  0  0  0  0  0  0  0  0  0  0
    8.7515    2.1031   23.2722 N   0  0  0  0  0  0  0  0  0  0  0  0
    8.3684    2.6557   24.4650 C   0  0  0  0  0  0  0  0  0  0  0  0
    7.4722    2.1551   25.2792 N   0  0  0  0  0  0  0  0  0  0  0  0
    7.4491    3.0280   26.3557 C   0  0  0  0  0  0  0  0  0  0  0  0
    6.6961    2.9661   27.5362 C   0  0  0  0  0  0  0  0  0  0  0  0
    6.8301    3.9977   28.4626 C   0  0  0  0  0  0  0  0  0  0  0  0
    7.6998    5.0844   28.2220 C   0  0  0  0  0  0  0  0  0  0  0  0
    8.4664    5.1505   27.0571 C   0  0  0  0  0  0  0  0  0  0  0  0
    8.3370    4.1064   26.1418 C   0  0  0  0  0  0  0  0  0  0  0  0
    8.9360    3.8190   24.9250 N   0  0  0  0  0  0  0  0  0  0  0  0
    9.5129    4.4050   24.3503 H   0  0  0  0  0  0  0  0  0  0  0  0
    9.1366    5.9845   26.8812 H   0  0  0  0  0  0  0  0  0  0  0  0
    7.7792    5.8703   28.9658 H   0  0  0  0  0  0  0  0  0  0  0  0
    6.2513    3.9627   29.3791 H   0  0  0  0  0  0  0  0  0  0  0  0
    6.0318    2.1218   27.6989 H   0  0  0  0  0  0  0  0  0  0  0  0
    7.7522    1.3360   22.5207 C   0  0  0  0  0  0  0  0  0  0  0  0
    6.9912    0.9822   23.2245 H   0  0  0  0  0  0  0  0  0  0  0  0
    7.2455    1.9921   21.7861 H   0  0  0  0  0  0  0  0  0  0  0  0
    9.5859    3.3891   21.8073 H   0  0  0  0  0  0  0  0  0  0  0  0
   10.6472    3.0217   23.1811 H   0  0  0  0  0  0  0  0  0  0  0  0
   11.0405    0.7734   22.4387 H   0  0  0  0  0  0  0  0  0  0  0  0
   11.3468    1.8640   21.0833 H   0  0  0  0  0  0  0  0  0  0  0  0
    9.0546    1.2872   20.1380 H   0  0  0  0  0  0  0  0  0  0  0  0
   10.0153   -0.1835   20.3738 H   0  0  0  0  0  0  0  0  0  0  0  0
    8.8506   -0.4847   22.5939 H   0  0  0  0  0  0  0  0  0  0  0  0
    7.9278   -1.5910   20.5956 H   0  0  0  0  0  0  0  0  0  0  0  0
    6.6670   -1.1466   21.7335 H   0  0  0  0  0  0  0  0  0  0  0  0
    5.4323    0.6455   20.1392 C   0  0  0  0  0  0  0  0  0  0  0  0
    5.0112    0.6499   21.1472 H   0  0  0  0  0  0  0  0  0  0  0  0
    8.1058   -0.4237   18.3477 H   0  0  0  0  0  0  0  0  0  0  0  0
    4.9236    1.8076   16.9804 H   0  0  0  0  0  0  0  0  0  0  0  0
    3.8659    1.8506   19.2375 H   0  0  0  0  0  0  0  0  0  0  0  0
  1  2  2  0
  2  3  1  0
  3  4  2  0
  4  5  1  0
  5  6  1  0
  6  7  1  0
  7  8  1  0
  8  9  1  0
  9 10  1  0
 10 11  1  0
 11 12  1  0
 12 13  2  0
 13 14  1  0
 14 15  2  0
 15 16  1  0
 16 17  2  0
 17 18  1  0
 18 19  2  0
 19 20  1  0
 20 21  1  0
 18 22  1  0
 17 23  1  0
 16 24  1  0
 15 25  1  0
 11 26  1  0
 26 27  1  0
 26 28  1  0
 10 29  1  0
 10 30  1  0
  9 31  1  0
  9 32  1  0
  8 33  1  0
  8 34  1  0
  7 35  1  0
  6 36  1  0
  6 37  1  0
  5 38  2  0
 38 39  1  0
  4 40  1  0
  2 41  1  0
  1 42  1  0
 38  1  1  0
 26  7  1  0
 20 12  1  0
 19 14  1  0
M  END
>  <cnnaffinity>  (1) 
-5.10595

>  <filename>  (1) 
[H]c1nc([H])c(C([H])([H])C2([H])C([H])([H])N(c3nc4c([H])c([H])c([H])c([H])c4n3[H])C([H])([H])C([H])([H])C2([H])[H])c([H])c1[H]

$$$$
