
     RDKit          3D

 28 30  0  0  0  0  0  0  0  0999 V2000
    5.0741    1.7626   16.8670 H   0  0  0  0  0  0  0  0  0  0  0  0
    5.4926    1.2702   17.7418 C   0  0  0  0  0  0  0  0  0  0  0  0
    6.6477    0.6110   17.5571 N   0  0  0  0  0  0  0  0  0  0  0  0
    7.1902    0.0064   18.6193 C   0  0  0  0  0  0  0  0  0  0  0  0
    8.1283   -0.5208   18.4581 H   0  0  0  0  0  0  0  0  0  0  0  0
    6.6166    0.0236   19.9034 C   0  0  0  0  0  0  0  0  0  0  0  0
    7.3096   -0.6462   21.0083 C   0  0  0  0  0  0  0  0  0  0  0  0
    8.4596   -1.4167   20.8084 N   0  0  0  0  0  0  0  0  0  0  0  0
    8.7496   -1.8196   21.9996 C   0  0  0  0  0  0  0  0  0  0  0  0
    9.7645   -2.6029   22.3516 O   0  0  0  0  0  0  0  0  0  0  0  0
    9.8116   -3.3090   23.5675 C   0  0  0  0  0  0  0  0  0  0  0  0
    8.6879   -3.6872   24.3116 C   0  0  0  0  0  0  0  0  0  0  0  0
    7.7025   -3.3398   24.0327 H   0  0  0  0  0  0  0  0  0  0  0  0
    8.8462   -4.5481   25.4023 C   0  0  0  0  0  0  0  0  0  0  0  0
    7.9659   -4.8480   25.9661 H   0  0  0  0  0  0  0  0  0  0  0  0
   10.1080   -5.0345   25.7549 C   0  0  0  0  0  0  0  0  0  0  0  0
   10.2222   -5.7119   26.6012 H   0  0  0  0  0  0  0  0  0  0  0  0
   11.2199   -4.6268   25.0148 C   0  0  0  0  0  0  0  0  0  0  0  0
   12.1925   -5.0268   25.2786 H   0  0  0  0  0  0  0  0  0  0  0  0
   11.0850   -3.7500   23.9334 C   0  0  0  0  0  0  0  0  0  0  0  0
   11.9369   -3.4063   23.3526 H   0  0  0  0  0  0  0  0  0  0  0  0
    7.9376   -1.3798   22.9759 O   0  0  0  0  0  0  0  0  0  0  0  0
    6.9965   -0.6368   22.3229 C   0  0  0  0  0  0  0  0  0  0  0  0
    6.1935   -0.2227   22.9121 H   0  0  0  0  0  0  0  0  0  0  0  0
    5.3974    0.7011   20.0749 C   0  0  0  0  0  0  0  0  0  0  0  0
    4.8948    0.7341   21.0440 H   0  0  0  0  0  0  0  0  0  0  0  0
    4.8318    1.3355   18.9734 C   0  0  0  0  0  0  0  0  0  0  0  0
    3.9022    1.8881   19.0560 H   0  0  0  0  0  0  0  0  0  0  0  0
  1  2  1  0
  2  3  2  0
  3  4  1  0
  4  5  1  0
  4  6  2  0
  6  7  1  0
  7  8  1  0
  8  9  2  0
  9 10  1  0
 10 11  1  0
 11 12  2  0
 12 13  1  0
 12 14  1  0
 14 15  1  0
 14 16  2  0
 16 17  1  0
 16 18  1  0
 18 19  1  0
 18 20  2  0
 20 21  1  0
  9 22  1  0
 22 23  1  0
 23 24  1  0
  6 25  1  0
 25 26  1  0
 25 27  2  0
 27 28  1  0
 27  2  1  0
 23  7  2  0
 20 11  1  0
M  END
>  <cnnaffinity>  (1) 
-5.06681

>  <filename>  (1) 
[H]c1nc([H])c(-c2nc(Oc3c([H])c([H])c([H])c([H])c3[H])oc2[H])c([H])c1[H]

$$$$
