
     RDKit          3D

 37 39  0  0  0  0  0  0  0  0999 V2000
    6.8757   -3.1606   24.4360 C   0  0  0  0  0  0  0  0  0  0  0  0
    7.6006   -1.8238   24.2746 C   0  0  0  0  0  0  0  0  0  0  0  0
    7.7715   -1.4010   22.8881 N   0  0  0  0  0  0  0  0  0  0  0  0
    6.8239   -0.6595   22.2741 N   0  0  0  0  0  0  0  0  0  0  0  0
    7.2521   -0.6056   21.0298 C   0  0  0  0  0  0  0  0  0  0  0  0
    6.5450    0.0585   19.9551 C   0  0  0  0  0  0  0  0  0  0  0  0
    5.3231    0.7151   20.1416 C   0  0  0  0  0  0  0  0  0  0  0  0
    4.7620    1.3412   19.0346 C   0  0  0  0  0  0  0  0  0  0  0  0
    5.4358    1.2865   17.8071 C   0  0  0  0  0  0  0  0  0  0  0  0
    6.5950    0.6363   17.6227 N   0  0  0  0  0  0  0  0  0  0  0  0
    7.1351    0.0355   18.6869 C   0  0  0  0  0  0  0  0  0  0  0  0
    8.0840   -0.4792   18.5394 H   0  0  0  0  0  0  0  0  0  0  0  0
    5.0269    1.7920   16.9352 H   0  0  0  0  0  0  0  0  0  0  0  0
    3.8317    1.8862   19.1224 H   0  0  0  0  0  0  0  0  0  0  0  0
    4.8688    0.7401   21.1364 H   0  0  0  0  0  0  0  0  0  0  0  0
    8.4155   -1.2597   20.8006 N   0  0  0  0  0  0  0  0  0  0  0  0
    8.7228   -1.7340   21.9924 C   0  0  0  0  0  0  0  0  0  0  0  0
    9.9436   -2.5280   22.2592 C   0  0  0  0  0  0  0  0  0  0  0  0
   11.2140   -1.7306   22.6245 C   0  0  0  0  0  0  0  0  0  0  0  0
   11.0540   -0.5956   23.6519 C   0  0  0  0  0  0  0  0  0  0  0  0
   12.2615    0.3117   23.3829 C   0  0  0  0  0  0  0  0  0  0  0  0
   12.6074    0.1053   22.0213 O   0  0  0  0  0  0  0  0  0  0  0  0
   11.8327   -0.9460   21.4583 C   0  0  0  0  0  0  0  0  0  0  0  0
   11.0280   -0.5290   20.8315 H   0  0  0  0  0  0  0  0  0  0  0  0
   12.4974   -1.5584   20.8363 H   0  0  0  0  0  0  0  0  0  0  0  0
   13.1197    0.0618   24.0264 H   0  0  0  0  0  0  0  0  0  0  0  0
   12.0310    1.3750   23.5384 H   0  0  0  0  0  0  0  0  0  0  0  0
   10.1403   -0.0344   23.4193 H   0  0  0  0  0  0  0  0  0  0  0  0
   10.9916   -0.9330   24.6927 H   0  0  0  0  0  0  0  0  0  0  0  0
   11.9407   -2.4854   22.9441 H   0  0  0  0  0  0  0  0  0  0  0  0
    9.7256   -3.3147   22.9924 H   0  0  0  0  0  0  0  0  0  0  0  0
   10.1069   -3.0110   21.3017 H   0  0  0  0  0  0  0  0  0  0  0  0
    7.0443   -1.0259   24.7684 H   0  0  0  0  0  0  0  0  0  0  0  0
    8.5891   -1.8602   24.7471 H   0  0  0  0  0  0  0  0  0  0  0  0
    5.8683   -3.1181   24.0099 H   0  0  0  0  0  0  0  0  0  0  0  0
    7.4217   -3.9737   23.9461 H   0  0  0  0  0  0  0  0  0  0  0  0
    6.7891   -3.3992   25.5004 H   0  0  0  0  0  0  0  0  0  0  0  0
  1  2  1  0
  2  3  1  0
  3  4  1  0
  4  5  2  0
  5  6  1  0
  6  7  2  0
  7  8  1  0
  8  9  2  0
  9 10  1  0
 10 11  2  0
 11 12  1  0
  9 13  1  0
  8 14  1  0
  7 15  1  0
  5 16  1  0
 16 17  2  0
 17 18  1  0
 18 19  1  0
 19 20  1  0
 20 21  1  0
 21 22  1  0
 22 23  1  0
 23 24  1  0
 23 25  1  0
 21 26  1  0
 21 27  1  0
 20 28  1  0
 20 29  1  0
 19 30  1  0
 18 31  1  0
 18 32  1  0
  2 33  1  0
  2 34  1  0
  1 35  1  0
  1 36  1  0
  1 37  1  0
 17  3  1  0
 23 19  1  0
 11  6  1  0
M  END
>  <cnnaffinity>  (1) 
-5.1607

>  <filename>  (1) 
[H]c1nc([H])c(-c2nc(C([H])([H])C3([H])C([H])([H])OC([H])([H])C3([H])[H])n(C([H])([H])C([H])([H])[H])n2)c([H])c1[H]

$$$$
