
     RDKit          3D

 47 52  0  0  0  0  0  0  0  0999 V2000
    7.4814    8.0285   26.6780 C   0  0  0  0  0  0  0  0  0  0  0  0
    7.7907    6.6743   26.1529 C   0  0  0  0  0  0  0  0  0  0  0  0
    7.8665    6.3743   24.8889 N   0  0  0  0  0  0  0  0  0  0  0  0
    8.1462    5.0197   24.8540 C   0  0  0  0  0  0  0  0  0  0  0  0
    8.3217    4.1652   23.7552 C   0  0  0  0  0  0  0  0  0  0  0  0
    8.6106    2.8220   24.0006 C   0  0  0  0  0  0  0  0  0  0  0  0
    8.7358    1.9109   22.9039 N   0  0  0  0  0  0  0  0  0  0  0  0
    7.6992    1.1169   22.5431 N   0  0  0  0  0  0  0  0  0  0  0  0
    8.2333    0.3363   21.6263 C   0  0  0  0  0  0  0  0  0  0  0  0
    7.3987   -0.6847   20.9024 C   0  0  0  0  0  0  0  0  0  0  0  0
    6.5992   -0.0732   19.7581 C   0  0  0  0  0  0  0  0  0  0  0  0
    5.4073    0.6150   20.0238 C   0  0  0  0  0  0  0  0  0  0  0  0
    4.7885    1.3197   18.9871 C   0  0  0  0  0  0  0  0  0  0  0  0
    5.3877    1.3082   17.7236 C   0  0  0  0  0  0  0  0  0  0  0  0
    6.5048    0.6211   17.4378 N   0  0  0  0  0  0  0  0  0  0  0  0
    7.0832   -0.0505   18.4405 C   0  0  0  0  0  0  0  0  0  0  0  0
    7.9892   -0.6043   18.1871 H   0  0  0  0  0  0  0  0  0  0  0  0
    4.9487    1.8633   16.8968 H   0  0  0  0  0  0  0  0  0  0  0  0
    3.8771    1.8863   19.1459 H   0  0  0  0  0  0  0  0  0  0  0  0
    4.9966    0.6084   21.0363 H   0  0  0  0  0  0  0  0  0  0  0  0
    6.7164   -1.1289   21.6364 H   0  0  0  0  0  0  0  0  0  0  0  0
    8.0580   -1.4837   20.5531 H   0  0  0  0  0  0  0  0  0  0  0  0
    9.5532    0.5460   21.3890 N   0  0  0  0  0  0  0  0  0  0  0  0
    9.8468    1.5454   22.2106 C   0  0  0  0  0  0  0  0  0  0  0  0
   11.1594    2.1764   22.4442 C   0  0  1  0  0  0  0  0  0  0  0  0
   11.4900    3.6630   22.2783 C   0  0  0  0  0  0  0  0  0  0  0  0
   12.3195    3.6078   23.5822 C   0  0  1  0  0  0  0  0  0  0  0  0
   11.8595    4.4452   24.5844 F   0  0  0  0  0  0  0  0  0  0  0  0
   11.9217    2.1585   23.7813 C   0  0  2  0  0  0  0  0  0  0  0  0
   12.4121    1.3619   22.6099 C   0  0  0  0  0  0  0  0  0  0  0  0
   13.3007    1.6919   22.0714 H   0  0  0  0  0  0  0  0  0  0  0  0
   12.3101    0.2807   22.6505 H   0  0  0  0  0  0  0  0  0  0  0  0
   11.5907    1.7331   24.7289 H   0  0  0  0  0  0  0  0  0  0  0  0
   13.3988    3.8047   23.4769 H   0  0  0  0  0  0  0  0  0  0  0  0
   12.0756    3.9175   21.3904 H   0  0  0  0  0  0  0  0  0  0  0  0
   10.6370    4.3325   22.3607 H   0  0  0  0  0  0  0  0  0  0  0  0
    8.7348    2.3267   25.3241 C   0  0  0  0  0  0  0  0  0  0  0  0
    8.5341    3.1674   26.4190 C   0  0  0  0  0  0  0  0  0  0  0  0
    8.2488    4.5098   26.1602 C   0  0  0  0  0  0  0  0  0  0  0  0
    7.9982    5.5972   26.9762 N   0  0  0  0  0  0  0  0  0  0  0  0
    8.1082    5.6256   27.9733 H   0  0  0  0  0  0  0  0  0  0  0  0
    8.5815    2.7796   27.4318 H   0  0  0  0  0  0  0  0  0  0  0  0
    9.0001    1.2814   25.5000 H   0  0  0  0  0  0  0  0  0  0  0  0
    8.2410    4.5776   22.7550 H   0  0  0  0  0  0  0  0  0  0  0  0
    8.2001    8.3360   27.4403 H   0  0  0  0  0  0  0  0  0  0  0  0
    7.5197    8.7312   25.8442 H   0  0  0  0  0  0  0  0  0  0  0  0
    6.4829    8.0451   27.1233 H   0  0  0  0  0  0  0  0  0  0  0  0
  1  2  1  0
  2  3  2  0
  3  4  1  0
  4  5  2  0
  5  6  1  0
  6  7  1  0
  7  8  1  0
  8  9  2  0
  9 10  1  0
 10 11  1  0
 11 12  2  0
 12 13  1  0
 13 14  2  0
 14 15  1  0
 15 16  2  0
 16 17  1  0
 14 18  1  0
 13 19  1  0
 12 20  1  0
 10 21  1  0
 10 22  1  0
  9 23  1  0
 23 24  2  0
 25 24  1  1
 25 26  1  0
 26 27  1  0
 27 28  1  0
 27 29  1  0
 29 30  1  0
 30 31  1  0
 30 32  1  0
 29 33  1  1
 27 34  1  6
 26 35  1  0
 26 36  1  0
  6 37  2  0
 37 38  1  0
 38 39  2  0
 39 40  1  0
 40 41  1  0
 38 42  1  0
 37 43  1  0
  5 44  1  0
  1 45  1  0
  1 46  1  0
  1 47  1  0
 40  2  1  0
 39  4  1  0
 24  7  1  0
 29 25  1  0
 16 11  1  0
 30 25  1  0
M  END
>  <cnnaffinity>  (1) 
-5.76699

>  <filename>  (1) 
[H]c1nc([H])c(C([H])([H])c2nc([C@]34C([H])([H])[C@@]3([H])[C@]([H])(F)C4([H])[H])n(-c3c([H])c([H])c4c(nc(C([H])([H])[H])n4[H])c3[H])n2)c([H])c1[H]

$$$$
