
     RDKit          3D

 49 52  0  0  0  0  0  0  0  0999 V2000
    8.9461   -1.3516   25.1663 C   0  0  0  0  0  0  0  0  0  0  0  0
    7.7125   -1.7784   24.3522 C   0  0  0  0  0  0  0  0  0  0  0  0
    7.4816   -3.3126   24.4687 C   0  0  0  0  0  0  0  0  0  0  0  0
    6.9712   -3.7300   25.7672 N   0  0  0  0  0  0  0  0  0  0  0  0
    7.8150   -4.1920   26.7053 N   0  0  0  0  0  0  0  0  0  0  0  0
    7.0725   -4.3756   27.7882 C   0  0  0  0  0  0  0  0  0  0  0  0
    5.7266   -4.0146   27.5755 C   0  0  0  0  0  0  0  0  0  0  0  0
    5.7051   -3.6291   26.2489 C   0  0  0  0  0  0  0  0  0  0  0  0
    4.4743   -3.2865   25.4629 C   0  0  0  0  0  0  0  0  0  0  0  0
    3.3016   -2.9452   26.4061 C   0  0  0  0  0  0  0  0  0  0  0  0
    3.2093   -3.9270   27.5924 C   0  0  0  0  0  0  0  0  0  0  0  0
    4.4922   -3.9267   28.4531 C   0  0  0  0  0  0  0  0  0  0  0  0
    4.4486   -4.7466   29.1805 H   0  0  0  0  0  0  0  0  0  0  0  0
    4.5229   -3.0008   29.0517 H   0  0  0  0  0  0  0  0  0  0  0  0
    2.3397   -3.6838   28.2154 H   0  0  0  0  0  0  0  0  0  0  0  0
    3.0436   -4.9420   27.2029 H   0  0  0  0  0  0  0  0  0  0  0  0
    2.3625   -2.9558   25.8407 H   0  0  0  0  0  0  0  0  0  0  0  0
    3.4283   -1.9214   26.7883 H   0  0  0  0  0  0  0  0  0  0  0  0
    4.6720   -2.4477   24.7797 H   0  0  0  0  0  0  0  0  0  0  0  0
    4.2069   -4.1538   24.8368 H   0  0  0  0  0  0  0  0  0  0  0  0
    7.5375   -4.7542   28.6924 H   0  0  0  0  0  0  0  0  0  0  0  0
    8.4306   -3.8420   24.3234 H   0  0  0  0  0  0  0  0  0  0  0  0
    6.7803   -3.6521   23.6990 H   0  0  0  0  0  0  0  0  0  0  0  0
    7.7693   -1.3799   22.9011 C   0  0  0  0  0  0  0  0  0  0  0  0
    6.8016   -0.7710   22.2472 N   0  0  0  0  0  0  0  0  0  0  0  0
    7.2969   -0.6316   20.9949 C   0  0  0  0  0  0  0  0  0  0  0  0
    6.5764    0.0259   19.9130 C   0  0  0  0  0  0  0  0  0  0  0  0
    5.3582    0.6888   20.1120 C   0  0  0  0  0  0  0  0  0  0  0  0
    4.7842    1.3334   19.0190 C   0  0  0  0  0  0  0  0  0  0  0  0
    5.4436    1.2919   17.7836 C   0  0  0  0  0  0  0  0  0  0  0  0
    6.6008    0.6436   17.5840 N   0  0  0  0  0  0  0  0  0  0  0  0
    7.1505    0.0287   18.6336 C   0  0  0  0  0  0  0  0  0  0  0  0
    8.0936   -0.4859   18.4576 H   0  0  0  0  0  0  0  0  0  0  0  0
    5.0276    1.7999   16.9161 H   0  0  0  0  0  0  0  0  0  0  0  0
    3.8555    1.8851   19.1123 H   0  0  0  0  0  0  0  0  0  0  0  0
    4.8949    0.7058   21.1018 H   0  0  0  0  0  0  0  0  0  0  0  0
    8.5000   -1.1391   20.8272 N   0  0  0  0  0  0  0  0  0  0  0  0
    8.8033   -1.6354   22.0497 N   0  0  0  0  0  0  0  0  0  0  0  0
   10.0501   -2.3700   22.1055 C   0  0  0  0  0  0  0  0  0  0  0  0
   11.2957   -1.4987   22.1889 C   0  0  0  0  0  0  0  0  0  0  0  0
   11.2647   -0.6796   23.2563 F   0  0  0  0  0  0  0  0  0  0  0  0
   11.5034   -0.7426   21.1080 F   0  0  0  0  0  0  0  0  0  0  0  0
   12.3692   -2.3034   22.3245 F   0  0  0  0  0  0  0  0  0  0  0  0
   10.1147   -2.8876   21.1501 H   0  0  0  0  0  0  0  0  0  0  0  0
   10.0731   -3.0810   22.9301 H   0  0  0  0  0  0  0  0  0  0  0  0
    6.8267   -1.2475   24.7388 H   0  0  0  0  0  0  0  0  0  0  0  0
    8.7681   -1.4674   26.2385 H   0  0  0  0  0  0  0  0  0  0  0  0
    9.8220   -1.9620   24.9190 H   0  0  0  0  0  0  0  0  0  0  0  0
    9.2002   -0.3053   24.9713 H   0  0  0  0  0  0  0  0  0  0  0  0
  1  2  1  0
  2  3  1  0
  3  4  1  0
  4  5  1  0
  5  6  2  0
  6  7  1  0
  7  8  2  0
  8  9  1  0
  9 10  1  0
 10 11  1  0
 11 12  1  0
 12 13  1  0
 12 14  1  0
 11 15  1  0
 11 16  1  0
 10 17  1  0
 10 18  1  0
  9 19  1  0
  9 20  1  0
  6 21  1  0
  3 22  1  0
  3 23  1  0
  2 24  1  0
 24 25  2  0
 25 26  1  0
 26 27  1  0
 27 28  2  0
 28 29  1  0
 29 30  2  0
 30 31  1  0
 31 32  2  0
 32 33  1  0
 30 34  1  0
 29 35  1  0
 28 36  1  0
 26 37  2  0
 37 38  1  0
 38 39  1  0
 39 40  1  0
 40 41  1  0
 40 42  1  0
 40 43  1  0
 39 44  1  0
 39 45  1  0
  2 46  1  0
  1 47  1  0
  1 48  1  0
  1 49  1  0
  8  4  1  0
 38 24  1  0
 12  7  1  0
 32 27  1  0
M  END
>  <cnnaffinity>  (1) 
-6.5147

>  <filename>  (1) 
[H]c1nc([H])c(-c2nc(C([H])(C([H])([H])[H])C([H])([H])n3nc([H])c4c3C([H])([H])C([H])([H])C([H])([H])C4([H])[H])n(C([H])([H])C(F)(F)F)n2)c([H])c1[H]

$$$$
