
     RDKit          3D

 36 38  0  0  0  0  0  0  0  0999 V2000
    4.9841    1.8042   16.9615 H   0  0  0  0  0  0  0  0  0  0  0  0
    5.4441    1.2985   17.8048 C   0  0  0  0  0  0  0  0  0  0  0  0
    6.6002    0.6718   17.5470 N   0  0  0  0  0  0  0  0  0  0  0  0
    7.1947    0.0389   18.5586 C   0  0  0  0  0  0  0  0  0  0  0  0
    8.1298   -0.4686   18.3255 H   0  0  0  0  0  0  0  0  0  0  0  0
    6.6756   -0.0042   19.8633 C   0  0  0  0  0  0  0  0  0  0  0  0
    7.3988   -0.7338   20.9089 C   0  0  0  0  0  0  0  0  0  0  0  0
    6.9236   -0.8872   22.1056 N   0  0  0  0  0  0  0  0  0  0  0  0
    7.7638   -1.6249   22.9027 C   0  0  0  0  0  0  0  0  0  0  0  0
    7.3409   -1.8341   24.3229 C   0  0  0  0  0  0  0  0  0  0  0  0
    7.9246   -2.6367   24.7937 H   0  0  0  0  0  0  0  0  0  0  0  0
    6.2962   -2.1684   24.2915 H   0  0  0  0  0  0  0  0  0  0  0  0
    7.4170   -0.5342   25.1561 C   0  0  0  0  0  0  0  0  0  0  0  0
    6.8240    0.2222   24.6134 H   0  0  0  0  0  0  0  0  0  0  0  0
    8.8504   -0.0052   25.3285 C   0  0  0  0  0  0  0  0  0  0  0  0
    9.3157    0.1720   24.3503 H   0  0  0  0  0  0  0  0  0  0  0  0
    9.4435   -0.7891   25.8236 H   0  0  0  0  0  0  0  0  0  0  0  0
    8.9205    1.2753   26.1778 C   0  0  0  0  0  0  0  0  0  0  0  0
    8.5112    2.1144   25.5995 H   0  0  0  0  0  0  0  0  0  0  0  0
    9.9751    1.5224   26.3440 H   0  0  0  0  0  0  0  0  0  0  0  0
    8.1709    1.1572   27.5200 C   0  0  0  0  0  0  0  0  0  0  0  0
    8.7216    0.4856   28.1981 H   0  0  0  0  0  0  0  0  0  0  0  0
    8.1402    2.1484   28.0009 H   0  0  0  0  0  0  0  0  0  0  0  0
    6.7586    0.5814   27.3427 C   0  0  0  0  0  0  0  0  0  0  0  0
    6.1248    1.3049   26.8110 H   0  0  0  0  0  0  0  0  0  0  0  0
    6.2875    0.4052   28.3182 H   0  0  0  0  0  0  0  0  0  0  0  0
    6.7902   -0.7279   26.5417 C   0  0  0  0  0  0  0  0  0  0  0  0
    7.3759   -1.4839   27.0888 H   0  0  0  0  0  0  0  0  0  0  0  0
    5.7783   -1.1370   26.4463 H   0  0  0  0  0  0  0  0  0  0  0  0
    8.9130   -2.0362   22.3017 C   0  0  0  0  0  0  0  0  0  0  0  0
    9.7121   -2.6186   22.7358 H   0  0  0  0  0  0  0  0  0  0  0  0
    8.9632   -1.4776   20.6760 S   0  0  0  0  0  0  0  0  0  0  0  0
    5.4568    0.6565   20.1208 C   0  0  0  0  0  0  0  0  0  0  0  0
    5.0216    0.6462   21.1237 H   0  0  0  0  0  0  0  0  0  0  0  0
    4.8305    1.3157   19.0659 C   0  0  0  0  0  0  0  0  0  0  0  0
    3.8926    1.8452   19.2005 H   0  0  0  0  0  0  0  0  0  0  0  0
  1  2  1  0
  2  3  2  0
  3  4  1  0
  4  5  1  0
  4  6  2  0
  6  7  1  0
  7  8  2  0
  8  9  1  0
  9 10  1  0
 10 11  1  0
 10 12  1  0
 10 13  1  0
 13 14  1  0
 13 15  1  0
 15 16  1  0
 15 17  1  0
 15 18  1  0
 18 19  1  0
 18 20  1  0
 18 21  1  0
 21 22  1  0
 21 23  1  0
 21 24  1  0
 24 25  1  0
 24 26  1  0
 24 27  1  0
 27 28  1  0
 27 29  1  0
  9 30  2  0
 30 31  1  0
 30 32  1  0
  6 33  1  0
 33 34  1  0
 33 35  2  0
 35 36  1  0
 35  2  1  0
 32  7  1  0
 27 13  1  0
M  END
>  <cnnaffinity>  (1) 
-5.24016

>  <filename>  (1) 
[H]c1nc([H])c(-c2nc(C([H])([H])C3([H])C([H])([H])C([H])([H])C([H])([H])C([H])([H])C3([H])[H])c([H])s2)c([H])c1[H]

$$$$
