
     RDKit          3D

 33 35  0  0  0  0  0  0  0  0999 V2000
    4.9134    1.7893   16.9862 H   0  0  0  0  0  0  0  0  0  0  0  0
    5.3951    1.2993   17.8278 C   0  0  0  0  0  0  0  0  0  0  0  0
    6.5585    0.6848   17.5577 N   0  0  0  0  0  0  0  0  0  0  0  0
    7.1584    0.0641   18.5809 C   0  0  0  0  0  0  0  0  0  0  0  0
    8.1099   -0.4228   18.3686 H   0  0  0  0  0  0  0  0  0  0  0  0
    6.6484    0.0236   19.8892 C   0  0  0  0  0  0  0  0  0  0  0  0
    7.3699   -0.6978   20.9699 C   0  0  0  0  0  0  0  0  0  0  0  0
    7.3746   -2.1003   20.9483 C   0  0  0  0  0  0  0  0  0  0  0  0
    6.8286   -2.6033   20.1533 H   0  0  0  0  0  0  0  0  0  0  0  0
    8.0373   -2.8365   21.9311 C   0  0  0  0  0  0  0  0  0  0  0  0
    8.0228   -3.9233   21.9088 H   0  0  0  0  0  0  0  0  0  0  0  0
    8.7123   -2.1533   22.9468 C   0  0  0  0  0  0  0  0  0  0  0  0
    9.2347   -2.7042   23.7193 H   0  0  0  0  0  0  0  0  0  0  0  0
    8.7302   -0.7583   22.9751 C   0  0  0  0  0  0  0  0  0  0  0  0
    9.2590   -0.2036   23.7466 H   0  0  0  0  0  0  0  0  0  0  0  0
    8.0749   -0.0095   21.9903 C   0  0  0  0  0  0  0  0  0  0  0  0
    8.1551    1.3930   22.0238 N   0  0  0  0  0  0  0  0  0  0  0  0
    7.3177    1.8905   21.7718 H   0  0  0  0  0  0  0  0  0  0  0  0
    9.2731    2.1862   22.2912 C   0  0  0  0  0  0  0  0  0  0  0  0
    9.1164    3.4878   22.7969 C   0  0  0  0  0  0  0  0  0  0  0  0
    8.1209    3.8875   22.9699 H   0  0  0  0  0  0  0  0  0  0  0  0
   10.2362    4.2686   23.1026 C   0  0  0  0  0  0  0  0  0  0  0  0
   10.1285    5.2745   23.4968 H   0  0  0  0  0  0  0  0  0  0  0  0
   11.5177    3.7572   22.8786 C   0  0  0  0  0  0  0  0  0  0  0  0
   12.9188    4.7209   23.2471 Cl  0  0  0  0  0  0  0  0  0  0  0  0
   11.6888    2.4772   22.3504 C   0  0  0  0  0  0  0  0  0  0  0  0
   12.6869    2.0901   22.1769 H   0  0  0  0  0  0  0  0  0  0  0  0
   10.5694    1.7043   22.0542 C   0  0  0  0  0  0  0  0  0  0  0  0
   10.6728    0.7067   21.6438 H   0  0  0  0  0  0  0  0  0  0  0  0
    5.4334    0.6675   20.1534 C   0  0  0  0  0  0  0  0  0  0  0  0
    5.0174    0.6295   21.1646 H   0  0  0  0  0  0  0  0  0  0  0  0
    4.7955    1.3177   19.0942 C   0  0  0  0  0  0  0  0  0  0  0  0
    3.8641    1.8499   19.2517 H   0  0  0  0  0  0  0  0  0  0  0  0
  1  2  1  0
  2  3  2  0
  3  4  1  0
  4  5  1  0
  4  6  2  0
  6  7  1  0
  7  8  2  0
  8  9  1  0
  8 10  1  0
 10 11  1  0
 10 12  2  0
 12 13  1  0
 12 14  1  0
 14 15  1  0
 14 16  2  0
 16 17  1  0
 17 18  1  0
 17 19  1  0
 19 20  2  0
 20 21  1  0
 20 22  1  0
 22 23  1  0
 22 24  2  0
 24 25  1  0
 24 26  1  0
 26 27  1  0
 26 28  2  0
 28 29  1  0
  6 30  1  0
 30 31  1  0
 30 32  2  0
 32 33  1  0
 32  2  1  0
 16  7  1  0
 28 19  1  0
M  END
>  <cnnaffinity>  (1) 
-5.13824

>  <filename>  (1) 
[H]c1nc([H])c(-c2c([H])c([H])c([H])c([H])c2N([H])c2c([H])c([H])c(Cl)c([H])c2[H])c([H])c1[H]

$$$$
