
     RDKit          3D

 32 35  0  0  0  0  0  0  0  0999 V2000
    4.9086    1.7776   17.0000 H   0  0  0  0  0  0  0  0  0  0  0  0
    5.3978    1.2938   17.8420 C   0  0  0  0  0  0  0  0  0  0  0  0
    6.5622    0.6769   17.5792 N   0  0  0  0  0  0  0  0  0  0  0  0
    7.1798    0.0582   18.5925 C   0  0  0  0  0  0  0  0  0  0  0  0
    8.1288   -0.4288   18.3803 H   0  0  0  0  0  0  0  0  0  0  0  0
    6.6666    0.0029   19.9072 C   0  0  0  0  0  0  0  0  0  0  0  0
    7.3567   -0.6831   20.9484 N   0  0  0  0  0  0  0  0  0  0  0  0
    6.7705   -1.4459   21.9443 C   0  0  0  0  0  0  0  0  0  0  0  0
    5.7033   -1.5897   21.9935 H   0  0  0  0  0  0  0  0  0  0  0  0
    7.7434   -1.9347   22.7485 C   0  0  0  0  0  0  0  0  0  0  0  0
    7.5906   -2.7710   23.9081 C   0  0  0  0  0  0  0  0  0  0  0  0
    8.9632   -3.3201   24.8408 S   0  0  0  0  0  0  0  0  0  0  0  0
    7.9083   -4.1806   25.9309 C   0  0  0  0  0  0  0  0  0  0  0  0
    8.2681   -4.9458   27.0505 C   0  0  0  0  0  0  0  0  0  0  0  0
    9.3131   -5.0576   27.3251 H   0  0  0  0  0  0  0  0  0  0  0  0
    7.2554   -5.5532   27.7883 C   0  0  0  0  0  0  0  0  0  0  0  0
    7.5120   -6.1532   28.6572 H   0  0  0  0  0  0  0  0  0  0  0  0
    5.8967   -5.4063   27.4239 C   0  0  0  0  0  0  0  0  0  0  0  0
    5.1224   -5.8879   28.0114 H   0  0  0  0  0  0  0  0  0  0  0  0
    5.5398   -4.6509   26.3191 C   0  0  0  0  0  0  0  0  0  0  0  0
    4.5040   -4.5196   26.0159 H   0  0  0  0  0  0  0  0  0  0  0  0
    6.5519   -4.0305   25.5621 C   0  0  0  0  0  0  0  0  0  0  0  0
    6.4038   -3.2178   24.4008 C   0  0  0  0  0  0  0  0  0  0  0  0
    5.4331   -2.9885   23.9731 H   0  0  0  0  0  0  0  0  0  0  0  0
    8.9482   -1.4699   22.2384 N   0  0  0  0  0  0  0  0  0  0  0  0
    9.8756   -1.6216   22.5875 H   0  0  0  0  0  0  0  0  0  0  0  0
    8.7550   -0.6817   21.1378 C   0  0  0  0  0  0  0  0  0  0  0  0
    9.5969   -0.1136   20.4767 O   0  0  0  0  0  0  0  0  0  0  0  0
    5.4469    0.6449   20.1621 C   0  0  0  0  0  0  0  0  0  0  0  0
    5.0168    0.6303   21.1646 H   0  0  0  0  0  0  0  0  0  0  0  0
    4.8083    1.3110   19.1109 C   0  0  0  0  0  0  0  0  0  0  0  0
    3.8740    1.8436   19.2660 H   0  0  0  0  0  0  0  0  0  0  0  0
  1  2  1  0
  2  3  2  0
  3  4  1  0
  4  5  1  0
  4  6  2  0
  6  7  1  0
  7  8  1  0
  8  9  1  0
  8 10  2  0
 10 11  1  0
 11 12  1  0
 12 13  1  0
 13 14  2  0
 14 15  1  0
 14 16  1  0
 16 17  1  0
 16 18  2  0
 18 19  1  0
 18 20  1  0
 20 21  1  0
 20 22  2  0
 22 23  1  0
 23 24  1  0
 10 25  1  0
 25 26  1  0
 25 27  1  0
 27 28  2  0
  6 29  1  0
 29 30  1  0
 29 31  2  0
 31 32  1  0
 31  2  1  0
 27  7  1  0
 23 11  2  0
 22 13  1  0
M  END
>  <cnnaffinity>  (1) 
-5.67091

>  <filename>  (1) 
[H]c1nc([H])c(-n2c([H])c(-c3sc4c([H])c([H])c([H])c([H])c4c3[H])n([H])c2=O)c([H])c1[H]

$$$$
