
     RDKit          3D

 28 30  0  0  0  0  0  0  0  0999 V2000
   10.6810   -2.7185   22.6576 H   0  0  0  0  0  0  0  0  0  0  0  0
   10.4446   -1.7151   22.3009 C   0  0  0  0  0  0  0  0  0  0  0  0
   11.4454   -0.8089   22.1983 C   0  0  0  0  0  0  0  0  0  0  0  0
   13.1674   -1.2258   22.2989 S   0  0  0  0  0  0  0  0  0  0  0  0
   13.6229    0.4855   22.5273 C   0  0  0  0  0  0  0  0  0  0  0  0
   14.7258    0.8982   22.7330 O   0  0  0  0  0  0  0  0  0  0  0  0
   12.5054    1.2678   22.4322 N   0  0  0  0  0  0  0  0  0  0  0  0
   12.5944    2.2528   22.2695 H   0  0  0  0  0  0  0  0  0  0  0  0
   11.3191    0.6765   22.1275 C   0  0  0  0  0  0  0  0  0  0  0  0
   10.3536    1.3659   21.8550 O   0  0  0  0  0  0  0  0  0  0  0  0
    9.0508   -1.5383   21.9515 C   0  0  0  0  0  0  0  0  0  0  0  0
    7.9932   -2.3452   22.2751 C   0  0  0  0  0  0  0  0  0  0  0  0
    7.9844   -3.1719   22.9557 H   0  0  0  0  0  0  0  0  0  0  0  0
    6.8104   -1.8502   21.6051 C   0  0  0  0  0  0  0  0  0  0  0  0
    5.6704   -2.2751   21.5657 O   0  0  0  0  0  0  0  0  0  0  0  0
    7.2896   -0.6965   20.9155 N   0  0  0  0  0  0  0  0  0  0  0  0
    6.6698   -0.0515   19.8164 C   0  0  0  0  0  0  0  0  0  0  0  0
    7.2748    0.0606   18.5446 C   0  0  0  0  0  0  0  0  0  0  0  0
    8.2241   -0.4376   18.3455 H   0  0  0  0  0  0  0  0  0  0  0  0
    6.7118    0.7303   17.5307 N   0  0  0  0  0  0  0  0  0  0  0  0
    5.5327    1.3372   17.7591 C   0  0  0  0  0  0  0  0  0  0  0  0
    5.1102    1.8950   16.9258 H   0  0  0  0  0  0  0  0  0  0  0  0
    4.8475    1.2556   18.9779 C   0  0  0  0  0  0  0  0  0  0  0  0
    3.9126    1.7905   19.1083 H   0  0  0  0  0  0  0  0  0  0  0  0
    5.4043    0.5080   20.0166 C   0  0  0  0  0  0  0  0  0  0  0  0
    4.9011    0.3551   20.9705 H   0  0  0  0  0  0  0  0  0  0  0  0
    8.6469   -0.5431   21.1048 N   0  0  0  0  0  0  0  0  0  0  0  0
    9.0253    0.4086   21.2268 H   0  0  0  0  0  0  0  0  0  0  0  0
  1  2  1  0
  2  3  2  3
  3  4  1  0
  4  5  1  0
  5  6  2  0
  5  7  1  0
  7  8  1  0
  7  9  1  0
  9 10  2  0
  2 11  1  0
 11 12  2  0
 12 13  1  0
 12 14  1  0
 14 15  2  0
 14 16  1  0
 16 17  1  0
 17 18  2  0
 18 19  1  0
 18 20  1  0
 20 21  2  0
 21 22  1  0
 21 23  1  0
 23 24  1  0
 23 25  2  0
 25 26  1  0
 16 27  1  0
 27 28  1  0
  9  3  1  0
 27 11  1  0
 25 17  1  0
M  END
>  <cnnaffinity>  (1) 
-5.66225

>  <filename>  (1) 
[H]C(=C1SC(=O)N([H])C1=O)c1c([H])c(=O)n(-c2c([H])nc([H])c([H])c2[H])n1[H]

$$$$
