
     RDKit          3D

 31 33  0  0  0  0  0  0  0  0999 V2000
    4.9871    1.7078   16.8964 H   0  0  0  0  0  0  0  0  0  0  0  0
    5.4462    1.2580   17.7722 C   0  0  0  0  0  0  0  0  0  0  0  0
    6.5986    0.6023   17.5557 N   0  0  0  0  0  0  0  0  0  0  0  0
    7.1768    0.0290   18.6112 C   0  0  0  0  0  0  0  0  0  0  0  0
    8.0929   -0.5286   18.4062 H   0  0  0  0  0  0  0  0  0  0  0  0
    6.6838    0.1210   19.9304 C   0  0  0  0  0  0  0  0  0  0  0  0
    7.4199   -0.5168   21.0300 C   0  0  0  0  0  0  0  0  0  0  0  0
    7.7585    0.0334   22.2526 C   0  0  0  0  0  0  0  0  0  0  0  0
    7.4152    1.4304   22.6318 C   0  0  0  0  0  0  0  0  0  0  0  0
    6.4041    1.6131   23.5873 C   0  0  0  0  0  0  0  0  0  0  0  0
    5.9872    0.7262   24.0682 H   0  0  0  0  0  0  0  0  0  0  0  0
    5.9251    2.8839   23.8933 C   0  0  0  0  0  0  0  0  0  0  0  0
    5.1330    3.0013   24.6270 H   0  0  0  0  0  0  0  0  0  0  0  0
    6.4547    4.0055   23.2535 C   0  0  0  0  0  0  0  0  0  0  0  0
    6.0581    5.0041   23.4295 H   0  0  0  0  0  0  0  0  0  0  0  0
    7.5189    3.8529   22.3579 C   0  0  0  0  0  0  0  0  0  0  0  0
    8.1503    5.3058   21.6520 Cl  0  0  0  0  0  0  0  0  0  0  0  0
    8.0261    2.5701   22.0689 C   0  0  0  0  0  0  0  0  0  0  0  0
    9.4312    2.3571   21.0805 Cl  0  0  0  0  0  0  0  0  0  0  0  0
    8.3860   -0.8051   23.2343 C   0  0  0  0  0  0  0  0  0  0  0  0
    8.6374   -0.3512   24.1950 H   0  0  0  0  0  0  0  0  0  0  0  0
    8.6461   -2.1195   22.9826 C   0  0  0  0  0  0  0  0  0  0  0  0
    9.0632   -2.8054   23.7050 H   0  0  0  0  0  0  0  0  0  0  0  0
    8.2902   -2.7127   21.7015 C   0  0  0  0  0  0  0  0  0  0  0  0
    8.3987   -3.8838   21.3767 O   0  0  0  0  0  0  0  0  0  0  0  0
    7.7846   -1.8162   20.7798 N   0  0  0  0  0  0  0  0  0  0  0  0
    7.4836   -2.2817   19.9391 H   0  0  0  0  0  0  0  0  0  0  0  0
    5.4581    0.7761   20.1283 C   0  0  0  0  0  0  0  0  0  0  0  0
    5.0086    0.8004   21.1237 H   0  0  0  0  0  0  0  0  0  0  0  0
    4.8294    1.3491   19.0243 C   0  0  0  0  0  0  0  0  0  0  0  0
    3.8807    1.8649   19.1183 H   0  0  0  0  0  0  0  0  0  0  0  0
  1  2  1  0
  2  3  2  0
  3  4  1  0
  4  5  1  0
  4  6  2  0
  6  7  1  0
  7  8  2  0
  8  9  1  0
  9 10  2  0
 10 11  1  0
 10 12  1  0
 12 13  1  0
 12 14  2  0
 14 15  1  0
 14 16  1  0
 16 17  1  0
 16 18  2  0
 18 19  1  0
  8 20  1  0
 20 21  1  0
 20 22  2  0
 22 23  1  0
 22 24  1  0
 24 25  2  0
 24 26  1  0
 26 27  1  0
  6 28  1  0
 28 29  1  0
 28 30  2  0
 30 31  1  0
 30  2  1  0
 26  7  1  0
 18  9  1  0
M  END
>  <cnnaffinity>  (1) 
-5.51739

>  <filename>  (1) 
[H]c1nc([H])c(-c2c(-c3c([H])c([H])c([H])c(Cl)c3Cl)c([H])c([H])c(=O)n2[H])c([H])c1[H]

$$$$
