
     RDKit          3D

 28 29  0  0  0  0  0  0  0  0999 V2000
    4.9866    1.7692   17.0029 H   0  0  0  0  0  0  0  0  0  0  0  0
    5.4482    1.2494   17.8392 C   0  0  0  0  0  0  0  0  0  0  0  0
    6.6062    0.6131   17.5914 N   0  0  0  0  0  0  0  0  0  0  0  0
    7.2083   -0.0051   18.6181 C   0  0  0  0  0  0  0  0  0  0  0  0
    8.1542   -0.5042   18.4039 H   0  0  0  0  0  0  0  0  0  0  0  0
    6.7008   -0.0142   19.9386 C   0  0  0  0  0  0  0  0  0  0  0  0
    7.4031   -0.6038   21.0244 N   0  0  0  0  0  0  0  0  0  0  0  0
    7.8598   -1.4900   20.8981 H   0  0  0  0  0  0  0  0  0  0  0  0
    7.2987   -0.1745   22.3310 C   0  0  0  0  0  0  0  0  0  0  0  0
    6.8068    0.8797   22.6705 O   0  0  0  0  0  0  0  0  0  0  0  0
    7.8274   -1.0980   23.1993 N   0  0  0  0  0  0  0  0  0  0  0  0
    8.4763   -1.7741   22.8339 H   0  0  0  0  0  0  0  0  0  0  0  0
    7.7774   -0.9453   24.5960 C   0  0  0  0  0  0  0  0  0  0  0  0
    6.6685   -0.3450   25.1996 C   0  0  0  0  0  0  0  0  0  0  0  0
    5.8337   -0.0662   24.5611 H   0  0  0  0  0  0  0  0  0  0  0  0
    6.6727   -0.0933   26.5704 C   0  0  0  0  0  0  0  0  0  0  0  0
    5.7798    0.3329   27.0185 H   0  0  0  0  0  0  0  0  0  0  0  0
    7.8026   -0.3956   27.3463 C   0  0  0  0  0  0  0  0  0  0  0  0
    7.8276   -0.1227   28.3985 H   0  0  0  0  0  0  0  0  0  0  0  0
    8.8916   -1.0526   26.7673 C   0  0  0  0  0  0  0  0  0  0  0  0
    9.7655   -1.2789   27.3791 H   0  0  0  0  0  0  0  0  0  0  0  0
    8.8453   -1.3995   25.4049 C   0  0  0  0  0  0  0  0  0  0  0  0
    9.8424   -2.2242   24.7681 C   0  0  0  0  0  0  0  0  0  0  0  0
   10.5397   -2.8853   24.1205 N   0  0  0  0  0  0  0  0  0  0  0  0
    5.4764    0.6301   20.1688 C   0  0  0  0  0  0  0  0  0  0  0  0
    5.0683    0.6508   21.1752 H   0  0  0  0  0  0  0  0  0  0  0  0
    4.8458    1.2657   19.1001 C   0  0  0  0  0  0  0  0  0  0  0  0
    3.9173    1.8007   19.2613 H   0  0  0  0  0  0  0  0  0  0  0  0
  1  2  1  0
  2  3  2  0
  3  4  1  0
  4  5  1  0
  4  6  2  0
  6  7  1  0
  7  8  1  0
  7  9  1  0
  9 10  2  0
  9 11  1  0
 11 12  1  0
 11 13  1  0
 13 14  2  0
 14 15  1  0
 14 16  1  0
 16 17  1  0
 16 18  2  0
 18 19  1  0
 18 20  1  0
 20 21  1  0
 20 22  2  0
 22 23  1  0
 23 24  3  0
  6 25  1  0
 25 26  1  0
 25 27  2  0
 27 28  1  0
 27  2  1  0
 22 13  1  0
M  END
>  <cnnaffinity>  (1) 
-4.59643

>  <filename>  (1) 
[H]c1nc([H])c(N([H])C(=O)N([H])c2c([H])c([H])c([H])c([H])c2C#N)c([H])c1[H]

$$$$
