
     RDKit          3D

 32 35  0  0  0  0  0  0  0  0999 V2000
    4.8946    1.8744   16.6192 H   0  0  0  0  0  0  0  0  0  0  0  0
    5.2638    1.4730   17.5591 C   0  0  0  0  0  0  0  0  0  0  0  0
    6.4376    0.8276   17.4845 N   0  0  0  0  0  0  0  0  0  0  0  0
    6.9450    0.3409   18.6216 C   0  0  0  0  0  0  0  0  0  0  0  0
    7.9054   -0.1760   18.5232 H   0  0  0  0  0  0  0  0  0  0  0  0
    6.3325    0.4723   19.8828 C   0  0  0  0  0  0  0  0  0  0  0  0
    7.0190   -0.0587   21.1159 C   0  0  1  0  0  0  0  0  0  0  0  0
    6.4210    0.1958   21.9981 H   0  0  0  0  0  0  0  0  0  0  0  0
    7.1682   -1.6083   21.1012 C   0  0  0  0  0  0  0  0  0  0  0  0
    6.9795   -2.0499   20.1179 H   0  0  0  0  0  0  0  0  0  0  0  0
    6.4898   -2.0951   21.8047 H   0  0  0  0  0  0  0  0  0  0  0  0
    8.5825   -1.8118   21.5031 C   0  0  0  0  0  0  0  0  0  0  0  0
    9.2608   -2.9035   21.7668 N   0  0  0  0  0  0  0  0  0  0  0  0
   10.5002   -2.4348   22.0559 N   0  0  0  0  0  0  0  0  0  0  0  0
   11.2202   -3.1177   22.2568 H   0  0  0  0  0  0  0  0  0  0  0  0
   10.5974   -1.0787   21.9686 C   0  0  0  0  0  0  0  0  0  0  0  0
   11.8200   -0.4202   22.1818 N   0  0  0  0  0  0  0  0  0  0  0  0
   11.9545    0.9406   22.3117 C   0  0  0  0  0  0  0  0  0  0  0  0
   11.1167    1.6141   22.1899 H   0  0  0  0  0  0  0  0  0  0  0  0
   13.1836    1.2953   22.5541 N   0  0  0  0  0  0  0  0  0  0  0  0
   13.9107    0.1266   22.5482 C   0  0  0  0  0  0  0  0  0  0  0  0
   14.9789    0.1158   22.7283 H   0  0  0  0  0  0  0  0  0  0  0  0
   13.1037   -0.9357   22.3036 C   0  0  0  0  0  0  0  0  0  0  0  0
   13.3159   -1.9877   22.1916 H   0  0  0  0  0  0  0  0  0  0  0  0
    9.3256   -0.6362   21.6305 C   0  0  0  0  0  0  0  0  0  0  0  0
    8.4533    0.5541   21.3342 C   0  0  0  0  0  0  0  0  0  0  0  0
    8.7869    1.0850   20.4330 H   0  0  0  0  0  0  0  0  0  0  0  0
    8.4300    1.3093   22.1313 H   0  0  0  0  0  0  0  0  0  0  0  0
    5.0855    1.1094   19.9263 C   0  0  0  0  0  0  0  0  0  0  0  0
    4.5558    1.2033   20.8746 H   0  0  0  0  0  0  0  0  0  0  0  0
    4.5456    1.6221   18.7462 C   0  0  0  0  0  0  0  0  0  0  0  0
    3.6003    2.1492   18.7331 H   0  0  0  0  0  0  0  0  0  0  0  0
  1  2  1  0
  2  3  2  0
  3  4  1  0
  4  5  1  0
  4  6  2  0
  6  7  1  0
  7  8  1  1
  7  9  1  0
  9 10  1  0
  9 11  1  0
  9 12  1  0
 12 13  2  0
 13 14  1  0
 14 15  1  0
 14 16  1  0
 16 17  1  0
 17 18  1  0
 18 19  1  0
 18 20  2  0
 20 21  1  0
 21 22  1  0
 21 23  2  0
 23 24  1  0
 16 25  2  0
 25 26  1  0
 26 27  1  0
 26 28  1  0
  6 29  1  0
 29 30  1  0
 29 31  2  0
 31 32  1  0
 31  2  1  0
 26  7  1  0
 25 12  1  0
 23 17  1  0
M  END
>  <cnnaffinity>  (1) 
-5.55693

>  <filename>  (1) 
[H]c1nc([H])c([C@@]2([H])C([H])([H])c3nn([H])c(-n4c([H])nc([H])c4[H])c3C2([H])[H])c([H])c1[H]

$$$$
