
     RDKit          3D

 48 52  0  0  0  0  0  0  0  0999 V2000
    4.7653    1.3751   18.7842 C   0  0  0  0  0  0  0  0  0  0  0  0
    5.4303    1.2359   17.5605 C   0  0  0  0  0  0  0  0  0  0  0  0
    6.5364    0.4962   17.3949 N   0  0  0  0  0  0  0  0  0  0  0  0
    7.0260   -0.1182   18.4800 C   0  0  0  0  0  0  0  0  0  0  0  0
    6.4592   -0.0280   19.7633 C   0  0  0  0  0  0  0  0  0  0  0  0
    7.1708   -0.5772   20.9866 C   0  0  0  0  0  0  0  0  0  0  0  0
    7.9615    0.4794   21.6967 C   0  0  0  0  0  0  0  0  0  0  0  0
    7.5139    1.1207   22.7570 N   0  0  0  0  0  0  0  0  0  0  0  0
    8.5360    1.9478   23.0815 N   0  0  0  0  0  0  0  0  0  0  0  0
    8.3711    2.8866   24.1955 C   0  0  0  0  0  0  0  0  0  0  0  0
    7.9932    4.2870   23.7367 C   0  0  0  0  0  0  0  0  0  0  0  0
    8.7199    5.4269   24.0963 C   0  0  0  0  0  0  0  0  0  0  0  0
    8.3820    6.6602   23.5221 C   0  0  0  0  0  0  0  0  0  0  0  0
    7.3618    6.8302   22.6742 N   0  0  0  0  0  0  0  0  0  0  0  0
    6.6379    5.7446   22.3685 C   0  0  0  0  0  0  0  0  0  0  0  0
    6.8996    4.4703   22.8788 C   0  0  0  0  0  0  0  0  0  0  0  0
    6.2733    3.6331   22.5889 H   0  0  0  0  0  0  0  0  0  0  0  0
    5.8129    5.8979   21.6742 H   0  0  0  0  0  0  0  0  0  0  0  0
    8.9745    7.5443   23.7461 H   0  0  0  0  0  0  0  0  0  0  0  0
    9.5691    5.3680   24.7704 H   0  0  0  0  0  0  0  0  0  0  0  0
    9.2968    2.9118   24.7781 H   0  0  0  0  0  0  0  0  0  0  0  0
    7.5778    2.4675   24.8230 H   0  0  0  0  0  0  0  0  0  0  0  0
    9.5555    1.7553   22.2065 C   0  0  0  0  0  0  0  0  0  0  0  0
   10.9430    2.2643   22.4348 C   0  0  0  0  0  0  0  0  0  0  0  0
   11.2555    3.5938   22.7904 C   0  0  0  0  0  0  0  0  0  0  0  0
   12.5589    3.9203   23.1828 C   0  0  0  0  0  0  0  0  0  0  0  0
   13.5714    3.0440   23.2296 N   0  0  0  0  0  0  0  0  0  0  0  0
   13.2913    1.8074   22.8133 C   0  0  0  0  0  0  0  0  0  0  0  0
   12.0307    1.3802   22.3770 C   0  0  0  0  0  0  0  0  0  0  0  0
   12.0635   -0.0674   21.9447 C   0  0  0  0  0  0  0  0  0  0  0  0
   13.5401   -0.4991   22.1086 C   0  0  0  0  0  0  0  0  0  0  0  0
   14.2927    0.6876   22.7621 C   0  0  0  0  0  0  0  0  0  0  0  0
   14.6524    0.4358   23.7640 H   0  0  0  0  0  0  0  0  0  0  0  0
   15.1774    0.9804   22.1944 H   0  0  0  0  0  0  0  0  0  0  0  0
   13.5994   -1.3889   22.7390 H   0  0  0  0  0  0  0  0  0  0  0  0
   14.0054   -0.7707   21.1572 H   0  0  0  0  0  0  0  0  0  0  0  0
   11.3924   -0.6649   22.5680 H   0  0  0  0  0  0  0  0  0  0  0  0
   11.6698   -0.1849   20.9307 H   0  0  0  0  0  0  0  0  0  0  0  0
   12.8053    4.9253   23.5141 H   0  0  0  0  0  0  0  0  0  0  0  0
   10.5148    4.3760   22.7380 H   0  0  0  0  0  0  0  0  0  0  0  0
    9.1992    0.8526   21.2989 N   0  0  0  0  0  0  0  0  0  0  0  0
    7.8622   -1.3762   20.6989 H   0  0  0  0  0  0  0  0  0  0  0  0
    6.4607   -0.9926   21.7071 H   0  0  0  0  0  0  0  0  0  0  0  0
    5.2908    0.7272   19.9055 C   0  0  0  0  0  0  0  0  0  0  0  0
    4.8244    0.8221   20.8894 H   0  0  0  0  0  0  0  0  0  0  0  0
    7.9343   -0.7033   18.3358 H   0  0  0  0  0  0  0  0  0  0  0  0
    5.0580    1.7395   16.6708 H   0  0  0  0  0  0  0  0  0  0  0  0
    3.8789    1.9963   18.8531 H   0  0  0  0  0  0  0  0  0  0  0  0
  1  2  2  0
  2  3  1  0
  3  4  2  0
  4  5  1  0
  5  6  1  0
  6  7  1  0
  7  8  2  0
  8  9  1  0
  9 10  1  0
 10 11  1  0
 11 12  2  0
 12 13  1  0
 13 14  2  0
 14 15  1  0
 15 16  2  0
 16 17  1  0
 15 18  1  0
 13 19  1  0
 12 20  1  0
 10 21  1  0
 10 22  1  0
  9 23  1  0
 23 24  1  0
 24 25  2  0
 25 26  1  0
 26 27  2  0
 27 28  1  0
 28 29  2  0
 29 30  1  0
 30 31  1  0
 31 32  1  0
 32 33  1  0
 32 34  1  0
 31 35  1  0
 31 36  1  0
 30 37  1  0
 30 38  1  0
 26 39  1  0
 25 40  1  0
 23 41  2  0
  6 42  1  0
  6 43  1  0
  5 44  2  0
 44 45  1  0
  4 46  1  0
  2 47  1  0
  1 48  1  0
 44  1  1  0
 41  7  1  0
 16 11  1  0
 29 24  1  0
 32 28  1  0
M  END
>  <cnnaffinity>  (1) 
-6.63933

>  <filename>  (1) 
[H]c1nc([H])c(C([H])([H])c2nc(-c3c([H])c([H])nc4c3C([H])([H])C([H])([H])C4([H])[H])n(C([H])([H])c3c([H])c([H])nc([H])c3[H])n2)c([H])c1[H]

$$$$
