
     RDKit          3D

 36 38  0  0  0  0  0  0  0  0999 V2000
    5.0291    1.7713   16.9812 H   0  0  0  0  0  0  0  0  0  0  0  0
    5.4557    1.2810   17.8574 C   0  0  0  0  0  0  0  0  0  0  0  0
    6.6202    0.6392   17.6759 N   0  0  0  0  0  0  0  0  0  0  0  0
    7.1832    0.0451   18.7264 C   0  0  0  0  0  0  0  0  0  0  0  0
    8.1118   -0.5009   18.5523 H   0  0  0  0  0  0  0  0  0  0  0  0
    6.6093    0.0859   19.9879 C   0  0  0  0  0  0  0  0  0  0  0  0
    7.4757   -0.7704   21.2393 S   0  0  0  0  0  0  0  0  0  0  0  0
    8.3021   -1.7669   20.5644 O   0  0  0  0  0  0  0  0  0  0  0  0
    6.4893   -1.1759   22.2400 O   0  0  0  0  0  0  0  0  0  0  0  0
    8.6416    0.3840   22.1002 C   0  0  0  0  0  0  0  0  0  0  0  0
    7.6966    1.4847   22.4688 C   0  0  0  0  0  0  0  0  0  0  0  0
    7.6690    2.6464   21.8880 N   0  0  0  0  0  0  0  0  0  0  0  0
    6.6606    3.3414   22.5355 C   0  0  0  0  0  0  0  0  0  0  0  0
    6.2404    4.6718   22.3532 C   0  0  0  0  0  0  0  0  0  0  0  0
    6.7399    5.2808   21.6054 H   0  0  0  0  0  0  0  0  0  0  0  0
    5.2195    5.1634   23.1632 C   0  0  0  0  0  0  0  0  0  0  0  0
    4.8786    6.1904   23.0328 H   0  0  0  0  0  0  0  0  0  0  0  0
    4.6226    4.3363   24.1456 C   0  0  0  0  0  0  0  0  0  0  0  0
    3.8127    4.7413   24.7479 H   0  0  0  0  0  0  0  0  0  0  0  0
    5.0338    3.0155   24.3466 C   0  0  0  0  0  0  0  0  0  0  0  0
    4.5726    2.4059   25.1233 H   0  0  0  0  0  0  0  0  0  0  0  0
    6.0637    2.5321   23.5229 C   0  0  0  0  0  0  0  0  0  0  0  0
    6.7572    1.3300   23.4527 N   0  0  0  0  0  0  0  0  0  0  0  0
    6.4353    0.4194   23.7460 H   0  0  0  0  0  0  0  0  0  0  0  0
    9.2432   -0.3467   23.3274 C   0  0  0  0  0  0  0  0  0  0  0  0
    9.8854   -1.1703   22.9965 H   0  0  0  0  0  0  0  0  0  0  0  0
    9.8468    0.3454   23.9278 H   0  0  0  0  0  0  0  0  0  0  0  0
    8.4681   -0.7735   23.9712 H   0  0  0  0  0  0  0  0  0  0  0  0
    9.7496    0.8462   21.1436 C   0  0  0  0  0  0  0  0  0  0  0  0
   10.3608   -0.0033   20.8343 H   0  0  0  0  0  0  0  0  0  0  0  0
   10.3901    1.5991   21.6217 H   0  0  0  0  0  0  0  0  0  0  0  0
    9.2958    1.2892   20.2606 H   0  0  0  0  0  0  0  0  0  0  0  0
    5.3671    0.6920   20.1864 C   0  0  0  0  0  0  0  0  0  0  0  0
    4.8586    0.6626   21.1520 H   0  0  0  0  0  0  0  0  0  0  0  0
    4.7919    1.3216   19.0867 C   0  0  0  0  0  0  0  0  0  0  0  0
    3.8480    1.8471   19.1748 H   0  0  0  0  0  0  0  0  0  0  0  0
  1  2  1  0
  2  3  2  0
  3  4  1  0
  4  5  1  0
  4  6  2  0
  6  7  1  0
  7  8  2  0
  7  9  2  0
  7 10  1  0
 10 11  1  0
 11 12  2  0
 12 13  1  0
 13 14  2  0
 14 15  1  0
 14 16  1  0
 16 17  1  0
 16 18  2  0
 18 19  1  0
 18 20  1  0
 20 21  1  0
 20 22  2  0
 22 23  1  0
 23 24  1  0
 10 25  1  0
 25 26  1  0
 25 27  1  0
 25 28  1  0
 10 29  1  0
 29 30  1  0
 29 31  1  0
 29 32  1  0
  6 33  1  0
 33 34  1  0
 33 35  2  0
 35 36  1  0
 35  2  1  0
 23 11  1  0
 22 13  1  0
M  END
>  <cnnaffinity>  (1) 
-5.01449

>  <filename>  (1) 
[H]c1nc([H])c(S(=O)(=O)C(c2nc3c([H])c([H])c([H])c([H])c3n2[H])(C([H])([H])[H])C([H])([H])[H])c([H])c1[H]

$$$$
