
     RDKit          3D

 40 42  0  0  0  0  0  0  0  0999 V2000
    5.1921    1.8168   16.8429 H   0  0  0  0  0  0  0  0  0  0  0  0
    5.5954    1.3474   17.7379 C   0  0  0  0  0  0  0  0  0  0  0  0
    6.7528    0.6870   17.5851 N   0  0  0  0  0  0  0  0  0  0  0  0
    7.2710    0.0961   18.6681 C   0  0  0  0  0  0  0  0  0  0  0  0
    8.2053   -0.4414   18.5043 H   0  0  0  0  0  0  0  0  0  0  0  0
    6.6587    0.1081   19.9237 C   0  0  0  0  0  0  0  0  0  0  0  0
    7.2257   -0.6781   21.0518 C   0  0  0  0  0  0  0  0  0  0  0  0
    6.5138   -1.3593   21.7745 O   0  0  0  0  0  0  0  0  0  0  0  0
    8.5698   -0.5610   21.2211 N   0  0  0  0  0  0  0  0  0  0  0  0
    9.0571    0.0577   20.6024 H   0  0  0  0  0  0  0  0  0  0  0  0
    9.3666   -1.3280   22.1973 C   0  0  0  0  0  0  0  0  0  0  0  0
   10.8538   -0.8843   22.1441 C   0  0  0  0  0  0  0  0  0  0  0  0
   11.8588   -1.8339   22.0953 C   0  0  0  0  0  0  0  0  0  0  0  0
   11.6063   -2.8800   22.0177 H   0  0  0  0  0  0  0  0  0  0  0  0
   13.2398   -1.5300   22.1822 C   0  0  0  0  0  0  0  0  0  0  0  0
   13.9600   -2.3430   22.1381 H   0  0  0  0  0  0  0  0  0  0  0  0
   13.6423   -0.2438   22.3906 C   0  0  0  0  0  0  0  0  0  0  0  0
   14.6899    0.0198   22.5164 H   0  0  0  0  0  0  0  0  0  0  0  0
   12.6675    0.7964   22.4657 C   0  0  0  0  0  0  0  0  0  0  0  0
   13.0943    2.1297   22.7298 C   0  0  0  0  0  0  0  0  0  0  0  0
   14.1572    2.2950   22.8888 H   0  0  0  0  0  0  0  0  0  0  0  0
   12.1931    3.1627   22.7928 C   0  0  0  0  0  0  0  0  0  0  0  0
   12.5260    4.1759   23.0050 H   0  0  0  0  0  0  0  0  0  0  0  0
   10.8136    2.9039   22.5773 C   0  0  0  0  0  0  0  0  0  0  0  0
   10.1061    3.7275   22.6138 H   0  0  0  0  0  0  0  0  0  0  0  0
   10.3653    1.6224   22.3318 C   0  0  0  0  0  0  0  0  0  0  0  0
    9.3042    1.4588   22.1868 H   0  0  0  0  0  0  0  0  0  0  0  0
   11.2698    0.5034   22.2973 C   0  0  0  0  0  0  0  0  0  0  0  0
    9.1882   -2.8104   21.7954 C   0  0  0  0  0  0  0  0  0  0  0  0
    9.6488   -2.9651   20.8155 H   0  0  0  0  0  0  0  0  0  0  0  0
    8.1256   -3.0419   21.7081 H   0  0  0  0  0  0  0  0  0  0  0  0
    9.6442   -3.4835   22.5284 H   0  0  0  0  0  0  0  0  0  0  0  0
    8.8301   -1.1402   23.6318 C   0  0  0  0  0  0  0  0  0  0  0  0
    7.7747   -1.4127   23.6713 H   0  0  0  0  0  0  0  0  0  0  0  0
    8.9399   -0.1043   23.9705 H   0  0  0  0  0  0  0  0  0  0  0  0
    9.3962   -1.7814   24.3171 H   0  0  0  0  0  0  0  0  0  0  0  0
    5.4291    0.7732   20.0645 C   0  0  0  0  0  0  0  0  0  0  0  0
    4.9070    0.7729   21.0241 H   0  0  0  0  0  0  0  0  0  0  0  0
    4.9006    1.4197   18.9515 C   0  0  0  0  0  0  0  0  0  0  0  0
    3.9715    1.9778   19.0067 H   0  0  0  0  0  0  0  0  0  0  0  0
  1  2  1  0
  2  3  2  0
  3  4  1  0
  4  5  1  0
  4  6  2  0
  6  7  1  0
  7  8  2  0
  7  9  1  0
  9 10  1  0
  9 11  1  0
 11 12  1  0
 12 13  2  0
 13 14  1  0
 13 15  1  0
 15 16  1  0
 15 17  2  0
 17 18  1  0
 17 19  1  0
 19 20  2  0
 20 21  1  0
 20 22  1  0
 22 23  1  0
 22 24  2  0
 24 25  1  0
 24 26  1  0
 26 27  1  0
 26 28  2  0
 11 29  1  0
 29 30  1  0
 29 31  1  0
 29 32  1  0
 11 33  1  0
 33 34  1  0
 33 35  1  0
 33 36  1  0
  6 37  1  0
 37 38  1  0
 37 39  2  0
 39 40  1  0
 39  2  1  0
 28 12  1  0
 28 19  1  0
M  END
>  <cnnaffinity>  (1) 
-5.81249

>  <filename>  (1) 
[H]c1nc([H])c(C(=O)N([H])C(c2c([H])c([H])c([H])c3c([H])c([H])c([H])c([H])c23)(C([H])([H])[H])C([H])([H])[H])c([H])c1[H]

$$$$
