
     RDKit          3D

 37 39  0  0  0  0  0  0  0  0999 V2000
    8.6804    3.2737   23.3736 H   0  0  0  0  0  0  0  0  0  0  0  0
    9.0135    2.3077   23.0047 C   0  0  0  0  0  0  0  0  0  0  0  0
    8.0626    1.5247   22.4725 C   0  0  0  0  0  0  0  0  0  0  0  0
    7.0120    1.8195   22.5332 H   0  0  0  0  0  0  0  0  0  0  0  0
    8.3274    0.3210   21.8448 N   0  0  0  0  0  0  0  0  0  0  0  0
    9.2693    0.2387   21.4933 H   0  0  0  0  0  0  0  0  0  0  0  0
    7.3393   -0.4862   21.1632 C   0  0  0  0  0  0  0  0  0  0  0  0
    6.6167    0.2551   20.0479 C   0  0  0  0  0  0  0  0  0  0  0  0
    7.2075    0.2831   18.7734 C   0  0  0  0  0  0  0  0  0  0  0  0
    8.1642   -0.2124   18.6020 H   0  0  0  0  0  0  0  0  0  0  0  0
    6.6494    0.8260   17.6874 N   0  0  0  0  0  0  0  0  0  0  0  0
    5.4379    1.3835   17.8361 C   0  0  0  0  0  0  0  0  0  0  0  0
    4.9941    1.7957   16.9332 H   0  0  0  0  0  0  0  0  0  0  0  0
    4.7597    1.4278   19.0585 C   0  0  0  0  0  0  0  0  0  0  0  0
    3.7791    1.8897   19.1089 H   0  0  0  0  0  0  0  0  0  0  0  0
    5.3658    0.8691   20.1855 C   0  0  0  0  0  0  0  0  0  0  0  0
    4.8736    0.8896   21.1613 H   0  0  0  0  0  0  0  0  0  0  0  0
    7.9366   -1.8372   20.6983 C   0  0  0  0  0  0  0  0  0  0  0  0
    9.0099   -1.8644   20.4920 H   0  0  0  0  0  0  0  0  0  0  0  0
    7.3524   -2.1341   19.8241 H   0  0  0  0  0  0  0  0  0  0  0  0
    7.3944   -2.5551   21.9468 C   0  0  0  0  0  0  0  0  0  0  0  0
    8.1440   -2.6760   22.7348 H   0  0  0  0  0  0  0  0  0  0  0  0
    6.9035   -3.5239   21.7835 H   0  0  0  0  0  0  0  0  0  0  0  0
    6.4711   -1.3230   22.1536 C   0  0  0  0  0  0  0  0  0  0  0  0
    6.3601   -0.8950   23.1563 H   0  0  0  0  0  0  0  0  0  0  0  0
    5.5006   -1.5142   21.6927 H   0  0  0  0  0  0  0  0  0  0  0  0
   10.4613    2.0515   23.1076 C   0  0  0  0  0  0  0  0  0  0  0  0
   11.3521    3.1359   22.9824 C   0  0  0  0  0  0  0  0  0  0  0  0
   10.9449    4.1299   22.8108 H   0  0  0  0  0  0  0  0  0  0  0  0
   12.7338    2.9363   23.0231 C   0  0  0  0  0  0  0  0  0  0  0  0
   13.4080    3.7761   22.8922 H   0  0  0  0  0  0  0  0  0  0  0  0
   13.2495    1.6494   23.2158 C   0  0  0  0  0  0  0  0  0  0  0  0
   14.3235    1.4849   23.2372 H   0  0  0  0  0  0  0  0  0  0  0  0
   12.3737    0.5722   23.3751 C   0  0  0  0  0  0  0  0  0  0  0  0
   12.7618   -0.4285   23.5040 H   0  0  0  0  0  0  0  0  0  0  0  0
   10.9888    0.7687   23.3279 C   0  0  0  0  0  0  0  0  0  0  0  0
   10.2993   -0.0557   23.4876 H   0  0  0  0  0  0  0  0  0  0  0  0
  1  2  1  0
  2  3  2  3
  3  4  1  0
  3  5  1  0
  5  6  1  0
  5  7  1  0
  7  8  1  0
  8  9  2  0
  9 10  1  0
  9 11  1  0
 11 12  2  0
 12 13  1  0
 12 14  1  0
 14 15  1  0
 14 16  2  0
 16 17  1  0
  7 18  1  0
 18 19  1  0
 18 20  1  0
 18 21  1  0
 21 22  1  0
 21 23  1  0
 21 24  1  0
 24 25  1  0
 24 26  1  0
  2 27  1  0
 27 28  2  0
 28 29  1  0
 28 30  1  0
 30 31  1  0
 30 32  2  0
 32 33  1  0
 32 34  1  0
 34 35  1  0
 34 36  2  0
 36 37  1  0
 24  7  1  0
 36 27  1  0
 16  8  1  0
M  END
>  <cnnaffinity>  (1) 
-4.91736

>  <filename>  (1) 
[H]C(=C([H])N([H])C1(c2c([H])nc([H])c([H])c2[H])C([H])([H])C([H])([H])C1([H])[H])c1c([H])c([H])c([H])c([H])c1[H]

$$$$
