
     RDKit          3D

 30 32  0  0  0  0  0  0  0  0999 V2000
    5.2321   -4.0832   25.5628 H   0  0  0  0  0  0  0  0  0  0  0  0
    6.2521   -3.9414   25.2112 C   0  0  0  0  0  0  0  0  0  0  0  0
    6.3958   -3.2171   24.1111 N   0  0  0  0  0  0  0  0  0  0  0  0
    7.6459   -3.0041   23.6874 C   0  0  0  0  0  0  0  0  0  0  0  0
    7.8677   -2.1918   22.5345 C   0  0  0  0  0  0  0  0  0  0  0  0
    8.9783   -1.4968   22.1754 C   0  0  0  0  0  0  0  0  0  0  0  0
    9.9525   -1.4388   22.6538 H   0  0  0  0  0  0  0  0  0  0  0  0
    8.7266   -0.7921   21.0248 N   0  0  0  0  0  0  0  0  0  0  0  0
    9.1327    0.1194   20.8504 H   0  0  0  0  0  0  0  0  0  0  0  0
    7.3637   -0.8851   20.7874 N   0  0  0  0  0  0  0  0  0  0  0  0
    6.7501   -0.0941   19.7884 C   0  0  0  0  0  0  0  0  0  0  0  0
    7.3226    0.0558   18.5086 C   0  0  0  0  0  0  0  0  0  0  0  0
    8.2857   -0.4052   18.2767 H   0  0  0  0  0  0  0  0  0  0  0  0
    6.7201    0.7271   17.5228 N   0  0  0  0  0  0  0  0  0  0  0  0
    5.5427    1.3189   17.7922 C   0  0  0  0  0  0  0  0  0  0  0  0
    5.0853    1.8677   16.9734 H   0  0  0  0  0  0  0  0  0  0  0  0
    4.9202    1.2598   19.0438 C   0  0  0  0  0  0  0  0  0  0  0  0
    3.9860    1.7833   19.2089 H   0  0  0  0  0  0  0  0  0  0  0  0
    5.5254    0.5289   20.0651 C   0  0  0  0  0  0  0  0  0  0  0  0
    5.0845    0.4340   21.0579 H   0  0  0  0  0  0  0  0  0  0  0  0
    6.7877   -1.8853   21.6164 C   0  0  0  0  0  0  0  0  0  0  0  0
    5.6769   -2.3484   21.4757 O   0  0  0  0  0  0  0  0  0  0  0  0
    8.7505   -3.4639   24.2932 N   0  0  0  0  0  0  0  0  0  0  0  0
    8.6045   -4.2372   25.3725 C   0  0  0  0  0  0  0  0  0  0  0  0
    9.8549   -4.8800   26.0479 C   0  0  0  0  0  0  0  0  0  0  0  0
   11.0029   -4.5919   25.4351 F   0  0  0  0  0  0  0  0  0  0  0  0
    9.9498   -4.4917   27.3372 F   0  0  0  0  0  0  0  0  0  0  0  0
    9.7439   -6.2246   26.0697 F   0  0  0  0  0  0  0  0  0  0  0  0
    7.3329   -4.5060   25.8900 C   0  0  0  0  0  0  0  0  0  0  0  0
    7.1878   -5.1399   26.7502 H   0  0  0  0  0  0  0  0  0  0  0  0
  1  2  1  0
  2  3  2  0
  3  4  1  0
  4  5  1  0
  5  6  2  0
  6  7  1  0
  6  8  1  0
  8  9  1  0
  8 10  1  0
 10 11  1  0
 11 12  2  0
 12 13  1  0
 12 14  1  0
 14 15  2  0
 15 16  1  0
 15 17  1  0
 17 18  1  0
 17 19  2  0
 19 20  1  0
 10 21  1  0
 21 22  2  0
  4 23  2  0
 23 24  1  0
 24 25  1  0
 25 26  1  0
 25 27  1  0
 25 28  1  0
 24 29  2  0
 29 30  1  0
 29  2  1  0
 21  5  1  0
 19 11  1  0
M  END
>  <cnnaffinity>  (1) 
-5.00965

>  <filename>  (1) 
[H]c1nc(-c2c([H])n([H])n(-c3c([H])nc([H])c([H])c3[H])c2=O)nc(C(F)(F)F)c1[H]

$$$$
