
     RDKit          3D

 38 40  0  0  0  0  0  0  0  0999 V2000
    9.3706    0.7146   20.7562 C   0  0  0  0  0  0  0  0  0  0  0  0
    8.6082   -0.4136   21.3894 C   0  0  0  0  0  0  0  0  0  0  0  0
    9.1686   -1.2047   22.3901 C   0  0  0  0  0  0  0  0  0  0  0  0
    8.5342   -2.2038   22.9899 N   0  0  0  0  0  0  0  0  0  0  0  0
    7.2762   -2.4247   22.5909 C   0  0  0  0  0  0  0  0  0  0  0  0
    6.4860   -3.4696   23.2411 C   0  0  0  0  0  0  0  0  0  0  0  0
    6.8973   -4.2334   24.2613 C   0  0  0  0  0  0  0  0  0  0  0  0
    6.1514   -5.3076   24.9313 C   0  0  0  0  0  0  0  0  0  0  0  0
    6.5592   -5.6819   26.2275 C   0  0  0  0  0  0  0  0  0  0  0  0
    5.8387   -6.6324   26.9531 C   0  0  0  0  0  0  0  0  0  0  0  0
    6.1234   -6.8879   28.2968 N   0  0  0  0  0  0  0  0  0  0  0  0
    7.0911   -6.7341   28.5256 H   0  0  0  0  0  0  0  0  0  0  0  0
    5.8651   -7.8212   28.5668 H   0  0  0  0  0  0  0  0  0  0  0  0
    4.7536   -7.2792   26.3396 C   0  0  0  0  0  0  0  0  0  0  0  0
    4.3637   -6.9411   25.0416 C   0  0  0  0  0  0  0  0  0  0  0  0
    5.0484   -5.9476   24.3398 C   0  0  0  0  0  0  0  0  0  0  0  0
    4.7502   -5.6635   23.3340 H   0  0  0  0  0  0  0  0  0  0  0  0
    3.5125   -7.4354   24.5801 H   0  0  0  0  0  0  0  0  0  0  0  0
    4.2244   -8.0318   26.9146 H   0  0  0  0  0  0  0  0  0  0  0  0
    7.4154   -5.2083   26.7039 H   0  0  0  0  0  0  0  0  0  0  0  0
    7.8808   -4.0547   24.6948 H   0  0  0  0  0  0  0  0  0  0  0  0
    5.4765   -3.5151   22.8464 H   0  0  0  0  0  0  0  0  0  0  0  0
    6.6360   -1.7555   21.6265 N   0  0  0  0  0  0  0  0  0  0  0  0
    7.2948   -0.7715   21.0229 C   0  0  0  0  0  0  0  0  0  0  0  0
    6.5713   -0.0586   19.9519 C   0  0  0  0  0  0  0  0  0  0  0  0
    5.3593    0.6105   20.1639 C   0  0  0  0  0  0  0  0  0  0  0  0
    4.7887    1.3034   19.0967 C   0  0  0  0  0  0  0  0  0  0  0  0
    5.4333    1.2797   17.8537 C   0  0  0  0  0  0  0  0  0  0  0  0
    6.5769    0.6155   17.6304 N   0  0  0  0  0  0  0  0  0  0  0  0
    7.1230   -0.0292   18.6671 C   0  0  0  0  0  0  0  0  0  0  0  0
    8.0695   -0.5274   18.4548 H   0  0  0  0  0  0  0  0  0  0  0  0
    5.0061    1.8101   17.0052 H   0  0  0  0  0  0  0  0  0  0  0  0
    3.8727    1.8735   19.2191 H   0  0  0  0  0  0  0  0  0  0  0  0
    4.8961    0.6084   21.1534 H   0  0  0  0  0  0  0  0  0  0  0  0
   10.1912   -1.0181   22.7298 H   0  0  0  0  0  0  0  0  0  0  0  0
   10.2707    0.9626   21.3213 H   0  0  0  0  0  0  0  0  0  0  0  0
    8.7467    1.6057   20.6464 H   0  0  0  0  0  0  0  0  0  0  0  0
    9.6623    0.4146   19.7526 H   0  0  0  0  0  0  0  0  0  0  0  0
  1  2  1  0
  2  3  2  0
  3  4  1  0
  4  5  2  0
  5  6  1  0
  6  7  2  3
  7  8  1  0
  8  9  2  0
  9 10  1  0
 10 11  1  0
 11 12  1  0
 11 13  1  0
 10 14  2  0
 14 15  1  0
 15 16  2  0
 16 17  1  0
 15 18  1  0
 14 19  1  0
  9 20  1  0
  7 21  1  0
  6 22  1  0
  5 23  1  0
 23 24  2  0
 24 25  1  0
 25 26  2  0
 26 27  1  0
 27 28  2  0
 28 29  1  0
 29 30  2  0
 30 31  1  0
 28 32  1  0
 27 33  1  0
 26 34  1  0
  3 35  1  0
  1 36  1  0
  1 37  1  0
  1 38  1  0
 24  2  1  0
 30 25  1  0
 16  8  1  0
M  END
>  <cnnaffinity>  (1) 
-5.67329

>  <filename>  (1) 
[H]C(=C([H])c1c([H])c([H])c([H])c(N([H])[H])c1[H])c1nc([H])c(C([H])([H])[H])c(-c2c([H])nc([H])c([H])c2[H])n1

$$$$
