
     RDKit          3D

 31 32  0  0  0  0  0  0  0  0999 V2000
    8.9635   -3.2296   20.6874 H   0  0  0  0  0  0  0  0  0  0  0  0
    8.3733   -3.6477   21.5011 C   0  0  0  0  0  0  0  0  0  0  0  0
    8.2316   -2.9804   22.6531 C   0  0  0  0  0  0  0  0  0  0  0  0
    8.7147   -1.5338   22.7530 C   0  0  0  0  0  0  0  0  0  0  0  0
   10.0259   -1.4897   23.1026 F   0  0  0  0  0  0  0  0  0  0  0  0
    8.0387   -0.8907   23.7684 F   0  0  0  0  0  0  0  0  0  0  0  0
    8.5048   -0.7285   21.4064 C   0  0  0  0  0  0  0  0  0  0  0  0
    9.4152   -0.3882   20.6779 O   0  0  0  0  0  0  0  0  0  0  0  0
    7.1826   -0.4964   21.1169 N   0  0  0  0  0  0  0  0  0  0  0  0
    6.5060   -0.7935   21.8032 H   0  0  0  0  0  0  0  0  0  0  0  0
    6.6420    0.1143   19.9592 C   0  0  0  0  0  0  0  0  0  0  0  0
    7.2396    0.1158   18.6770 C   0  0  0  0  0  0  0  0  0  0  0  0
    8.2147   -0.3441   18.5314 H   0  0  0  0  0  0  0  0  0  0  0  0
    6.6602    0.6676   17.6005 N   0  0  0  0  0  0  0  0  0  0  0  0
    5.4776    1.2831   17.7667 C   0  0  0  0  0  0  0  0  0  0  0  0
    5.0481    1.7410   16.8799 H   0  0  0  0  0  0  0  0  0  0  0  0
    4.8180    1.3554   18.9986 C   0  0  0  0  0  0  0  0  0  0  0  0
    3.8779    1.8899   19.0813 H   0  0  0  0  0  0  0  0  0  0  0  0
    5.4042    0.7497   20.1107 C   0  0  0  0  0  0  0  0  0  0  0  0
    4.9446    0.7780   21.0976 H   0  0  0  0  0  0  0  0  0  0  0  0
    7.6829   -3.6711   23.8941 C   0  0  0  0  0  0  0  0  0  0  0  0
    8.5045   -3.8260   24.6066 H   0  0  0  0  0  0  0  0  0  0  0  0
    6.9677   -3.0118   24.3946 H   0  0  0  0  0  0  0  0  0  0  0  0
    6.9993   -5.0271   23.5855 C   0  0  0  0  0  0  0  0  0  0  0  0
    6.9553   -5.6295   24.5024 H   0  0  0  0  0  0  0  0  0  0  0  0
    5.9583   -4.8572   23.2739 H   0  0  0  0  0  0  0  0  0  0  0  0
    7.6580   -5.8109   22.5352 N   0  0  0  0  0  0  0  0  0  0  0  0
    8.5876   -6.0705   22.8636 H   0  0  0  0  0  0  0  0  0  0  0  0
    7.7716   -5.0270   21.3010 C   0  0  0  0  0  0  0  0  0  0  0  0
    6.7675   -4.9474   20.8511 H   0  0  0  0  0  0  0  0  0  0  0  0
    8.3702   -5.5895   20.5806 H   0  0  0  0  0  0  0  0  0  0  0  0
  1  2  1  0
  2  3  2  0
  3  4  1  0
  4  5  1  0
  4  6  1  0
  4  7  1  0
  7  8  2  0
  7  9  1  0
  9 10  1  0
  9 11  1  0
 11 12  2  0
 12 13  1  0
 12 14  1  0
 14 15  2  0
 15 16  1  0
 15 17  1  0
 17 18  1  0
 17 19  2  0
 19 20  1  0
  3 21  1  0
 21 22  1  0
 21 23  1  0
 21 24  1  0
 24 25  1  0
 24 26  1  0
 24 27  1  0
 27 28  1  0
 27 29  1  0
 29 30  1  0
 29 31  1  0
 29  2  1  0
 19 11  1  0
M  END
>  <cnnaffinity>  (1) 
-5.02672

>  <filename>  (1) 
[H]C1=C(C(F)(F)C(=O)N([H])c2c([H])nc([H])c([H])c2[H])C([H])([H])C([H])([H])N([H])C1([H])[H]

$$$$
