
     RDKit          3D

 29 31  0  0  0  0  0  0  0  0999 V2000
    4.9183    1.8012   16.9700 H   0  0  0  0  0  0  0  0  0  0  0  0
    5.3920    1.3040   17.8164 C   0  0  0  0  0  0  0  0  0  0  0  0
    6.5570    0.6858   17.5620 N   0  0  0  0  0  0  0  0  0  0  0  0
    7.1708    0.0711   18.5821 C   0  0  0  0  0  0  0  0  0  0  0  0
    8.1072   -0.4225   18.3281 H   0  0  0  0  0  0  0  0  0  0  0  0
    6.6660    0.0166   19.8948 C   0  0  0  0  0  0  0  0  0  0  0  0
    7.3372   -0.7060   20.9808 C   0  0  0  0  0  0  0  0  0  0  0  0
    6.8197   -1.2312   22.1085 C   0  0  0  0  0  0  0  0  0  0  0  0
    5.8024   -1.2980   22.4115 H   0  0  0  0  0  0  0  0  0  0  0  0
    7.8411   -1.7875   22.8625 N   0  0  0  0  0  0  0  0  0  0  0  0
    7.6413   -2.4443   24.1128 C   0  0  0  0  0  0  0  0  0  0  0  0
    8.2481   -3.6787   24.3584 C   0  0  0  0  0  0  0  0  0  0  0  0
    8.8759   -4.1214   23.5920 H   0  0  0  0  0  0  0  0  0  0  0  0
    8.0668   -4.3062   25.5948 C   0  0  0  0  0  0  0  0  0  0  0  0
    8.5375   -5.2526   25.8356 H   0  0  0  0  0  0  0  0  0  0  0  0
    7.2770   -3.7025   26.5654 C   0  0  0  0  0  0  0  0  0  0  0  0
    7.1019   -4.3015   27.7497 F   0  0  0  0  0  0  0  0  0  0  0  0
    6.6593   -2.4747   26.3060 C   0  0  0  0  0  0  0  0  0  0  0  0
    5.8896   -1.9087   27.2413 F   0  0  0  0  0  0  0  0  0  0  0  0
    6.8273   -1.8420   25.0820 C   0  0  0  0  0  0  0  0  0  0  0  0
    6.3329   -0.8896   24.9167 H   0  0  0  0  0  0  0  0  0  0  0  0
    9.0375   -1.6058   22.2035 C   0  0  0  0  0  0  0  0  0  0  0  0
   10.6040   -1.9790   22.6038 S   0  0  0  0  0  0  0  0  0  0  0  0
    8.6913   -0.9764   21.0469 N   0  0  0  0  0  0  0  0  0  0  0  0
    9.4245   -0.6701   20.4313 H   0  0  0  0  0  0  0  0  0  0  0  0
    5.4393    0.6645   20.1334 C   0  0  0  0  0  0  0  0  0  0  0  0
    5.0091    0.6596   21.1349 H   0  0  0  0  0  0  0  0  0  0  0  0
    4.7980    1.3217   19.0826 C   0  0  0  0  0  0  0  0  0  0  0  0
    3.8644    1.8518   19.2322 H   0  0  0  0  0  0  0  0  0  0  0  0
  1  2  1  0
  2  3  2  0
  3  4  1  0
  4  5  1  0
  4  6  2  0
  6  7  1  0
  7  8  2  0
  8  9  1  0
  8 10  1  0
 10 11  1  0
 11 12  2  0
 12 13  1  0
 12 14  1  0
 14 15  1  0
 14 16  2  0
 16 17  1  0
 16 18  1  0
 18 19  1  0
 18 20  2  0
 20 21  1  0
 10 22  1  0
 22 23  2  0
 22 24  1  0
 24 25  1  0
  6 26  1  0
 26 27  1  0
 26 28  2  0
 28 29  1  0
 28  2  1  0
 24  7  1  0
 20 11  1  0
M  END
>  <cnnaffinity>  (1) 
-5.78332

>  <filename>  (1) 
[H]c1nc([H])c(-c2c([H])n(-c3c([H])c([H])c(F)c(F)c3[H])c(=S)n2[H])c([H])c1[H]

$$$$
