
     RDKit          3D

 30 32  0  0  0  0  0  0  0  0999 V2000
    5.0236    1.7612   16.8452 H   0  0  0  0  0  0  0  0  0  0  0  0
    5.4368    1.2538   17.7143 C   0  0  0  0  0  0  0  0  0  0  0  0
    6.5552    0.5358   17.5070 N   0  0  0  0  0  0  0  0  0  0  0  0
    7.1134   -0.0719   18.5588 C   0  0  0  0  0  0  0  0  0  0  0  0
    7.9827   -0.6915   18.3587 H   0  0  0  0  0  0  0  0  0  0  0  0
    6.6264    0.0622   19.8786 C   0  0  0  0  0  0  0  0  0  0  0  0
    7.3237   -0.5103   20.9962 N   0  0  0  0  0  0  0  0  0  0  0  0
    7.8341   -1.7608   20.7642 N   0  0  0  0  0  0  0  0  0  0  0  0
    8.3920   -2.3800   21.7618 C   0  0  0  0  0  0  0  0  0  0  0  0
    8.7405   -3.3858   21.5505 H   0  0  0  0  0  0  0  0  0  0  0  0
    8.5333   -1.8233   23.0972 C   0  0  0  0  0  0  0  0  0  0  0  0
    9.1441   -2.6659   24.1739 C   0  0  0  0  0  0  0  0  0  0  0  0
    8.5456   -2.9005   25.4305 C   0  0  0  0  0  0  0  0  0  0  0  0
    7.4535   -2.1976   25.7951 F   0  0  0  0  0  0  0  0  0  0  0  0
    9.0187   -3.8472   26.3384 C   0  0  0  0  0  0  0  0  0  0  0  0
    8.5076   -3.9583   27.2847 H   0  0  0  0  0  0  0  0  0  0  0  0
   10.1492   -4.6004   26.0218 C   0  0  0  0  0  0  0  0  0  0  0  0
   10.5241   -5.3621   26.7062 H   0  0  0  0  0  0  0  0  0  0  0  0
   10.8344   -4.3493   24.8341 C   0  0  0  0  0  0  0  0  0  0  0  0
   11.7480   -4.8716   24.5908 H   0  0  0  0  0  0  0  0  0  0  0  0
   10.3350   -3.3915   23.9569 C   0  0  0  0  0  0  0  0  0  0  0  0
   11.0402   -3.1520   22.8343 F   0  0  0  0  0  0  0  0  0  0  0  0
    8.0779   -0.5524   23.3082 C   0  0  0  0  0  0  0  0  0  0  0  0
    8.1434   -0.0253   24.2547 H   0  0  0  0  0  0  0  0  0  0  0  0
    7.4606    0.2208   22.2463 C   0  0  0  0  0  0  0  0  0  0  0  0
    7.0740    1.3711   22.3670 O   0  0  0  0  0  0  0  0  0  0  0  0
    5.4336    0.7714   20.0731 C   0  0  0  0  0  0  0  0  0  0  0  0
    5.0149    0.8683   21.0711 H   0  0  0  0  0  0  0  0  0  0  0  0
    4.8221    1.3635   18.9647 C   0  0  0  0  0  0  0  0  0  0  0  0
    3.9044    1.9376   19.0678 H   0  0  0  0  0  0  0  0  0  0  0  0
  1  2  1  0
  2  3  2  0
  3  4  1  0
  4  5  1  0
  4  6  2  0
  6  7  1  0
  7  8  1  0
  8  9  2  0
  9 10  1  0
  9 11  1  0
 11 12  1  0
 12 13  2  0
 13 14  1  0
 13 15  1  0
 15 16  1  0
 15 17  2  0
 17 18  1  0
 17 19  1  0
 19 20  1  0
 19 21  2  0
 21 22  1  0
 11 23  2  0
 23 24  1  0
 23 25  1  0
 25 26  2  0
  6 27  1  0
 27 28  1  0
 27 29  2  0
 29 30  1  0
 29  2  1  0
 25  7  1  0
 21 12  1  0
M  END
>  <cnnaffinity>  (1) 
-5.39078

>  <filename>  (1) 
[H]c1nc([H])c(-n2nc([H])c(-c3c(F)c([H])c([H])c([H])c3F)c([H])c2=O)c([H])c1[H]

$$$$
