
     RDKit          3D

 32 34  0  0  0  0  0  0  0  0999 V2000
    5.5507    3.3222   24.6297 H   0  0  0  0  0  0  0  0  0  0  0  0
    6.4026    2.8946   24.1057 C   0  0  0  0  0  0  0  0  0  0  0  0
    6.2346    1.6516   23.6569 N   0  0  0  0  0  0  0  0  0  0  0  0
    7.2787    1.1040   23.0081 C   0  0  0  0  0  0  0  0  0  0  0  0
    7.0966   -0.3578   22.5235 C   0  0  2  0  0  0  0  0  0  0  0  0
    6.0633   -0.5844   22.8242 H   0  0  0  0  0  0  0  0  0  0  0  0
    7.9915   -1.2301   23.1813 O   0  0  0  0  0  0  0  0  0  0  0  0
    8.6006   -2.1396   22.2821 C   0  0  0  0  0  0  0  0  0  0  0  0
    8.1569   -3.1372   22.3914 H   0  0  0  0  0  0  0  0  0  0  0  0
    9.6647   -2.2054   22.5237 H   0  0  0  0  0  0  0  0  0  0  0  0
    8.3543   -1.5748   20.8896 C   0  0  0  0  0  0  0  0  0  0  0  0
    9.2518   -1.1219   20.4488 H   0  0  0  0  0  0  0  0  0  0  0  0
    7.9714   -2.3406   20.2294 H   0  0  0  0  0  0  0  0  0  0  0  0
    7.2998   -0.6101   21.1031 N   0  0  0  0  0  0  0  0  0  0  0  0
    6.6537    0.0357   20.0504 C   0  0  0  0  0  0  0  0  0  0  0  0
    7.1640   -0.0028   18.7197 C   0  0  0  0  0  0  0  0  0  0  0  0
    8.0707   -0.5686   18.5108 H   0  0  0  0  0  0  0  0  0  0  0  0
    6.6032    0.6037   17.6675 N   0  0  0  0  0  0  0  0  0  0  0  0
    5.4637    1.2797   17.8778 C   0  0  0  0  0  0  0  0  0  0  0  0
    5.0329    1.7745   17.0110 H   0  0  0  0  0  0  0  0  0  0  0  0
    4.8441    1.3466   19.1292 C   0  0  0  0  0  0  0  0  0  0  0  0
    3.9042    1.8788   19.2270 H   0  0  0  0  0  0  0  0  0  0  0  0
    5.4407    0.7312   20.2332 C   0  0  0  0  0  0  0  0  0  0  0  0
    4.9880    0.7752   21.2225 H   0  0  0  0  0  0  0  0  0  0  0  0
    8.4362    1.7063   22.7760 N   0  0  0  0  0  0  0  0  0  0  0  0
    8.6159    2.9509   23.2490 C   0  0  0  0  0  0  0  0  0  0  0  0
   10.0535    3.5290   23.0521 C   0  0  0  0  0  0  0  0  0  0  0  0
   10.6434    3.0641   21.9458 F   0  0  0  0  0  0  0  0  0  0  0  0
   10.8497    3.1943   24.0863 F   0  0  0  0  0  0  0  0  0  0  0  0
   10.0678    4.8745   22.9776 F   0  0  0  0  0  0  0  0  0  0  0  0
    7.5845    3.6059   23.9308 C   0  0  0  0  0  0  0  0  0  0  0  0
    7.6336    4.6256   24.2807 H   0  0  0  0  0  0  0  0  0  0  0  0
  1  2  1  0
  2  3  2  0
  3  4  1  0
  4  5  1  0
  5  6  1  1
  5  7  1  0
  7  8  1  0
  8  9  1  0
  8 10  1  0
  8 11  1  0
 11 12  1  0
 11 13  1  0
 11 14  1  0
 14 15  1  0
 15 16  2  0
 16 17  1  0
 16 18  1  0
 18 19  2  0
 19 20  1  0
 19 21  1  0
 21 22  1  0
 21 23  2  0
 23 24  1  0
  4 25  2  0
 25 26  1  0
 26 27  1  0
 27 28  1  0
 27 29  1  0
 27 30  1  0
 26 31  2  0
 31 32  1  0
 31  2  1  0
 14  5  1  0
 23 15  1  0
M  END
>  <cnnaffinity>  (1) 
-4.98508

>  <filename>  (1) 
[H]c1nc([C@]2([H])OC([H])([H])C([H])([H])N2c2c([H])nc([H])c([H])c2[H])nc(C(F)(F)F)c1[H]

$$$$
