
     RDKit          3D

 24 25  0  0  0  0  0  0  0  0999 V2000
    4.9333    1.8110   16.9779 H   0  0  0  0  0  0  0  0  0  0  0  0
    5.3959    1.2983   17.8187 C   0  0  0  0  0  0  0  0  0  0  0  0
    6.5590    0.6799   17.5561 N   0  0  0  0  0  0  0  0  0  0  0  0
    7.1717    0.0711   18.5770 C   0  0  0  0  0  0  0  0  0  0  0  0
    8.1231   -0.4117   18.3475 H   0  0  0  0  0  0  0  0  0  0  0  0
    6.6698    0.0149   19.8919 C   0  0  0  0  0  0  0  0  0  0  0  0
    7.4182   -0.6905   20.9741 C   0  0  0  0  0  0  0  0  0  0  0  0
    6.7647   -1.5437   21.8832 C   0  0  0  0  0  0  0  0  0  0  0  0
    5.6946   -1.7284   21.8171 H   0  0  0  0  0  0  0  0  0  0  0  0
    7.3931   -2.2205   22.8575 N   0  0  0  0  0  0  0  0  0  0  0  0
    8.7093   -2.0524   23.0025 C   0  0  0  0  0  0  0  0  0  0  0  0
    9.2268   -2.5843   23.8038 H   0  0  0  0  0  0  0  0  0  0  0  0
    9.4425   -1.2051   22.1596 C   0  0  0  0  0  0  0  0  0  0  0  0
   10.7856   -1.1028   22.4990 O   0  0  0  0  0  0  0  0  0  0  0  0
   11.6577   -0.3629   21.7816 C   0  0  0  0  0  0  0  0  0  0  0  0
   12.8432   -0.4984   22.3546 F   0  0  0  0  0  0  0  0  0  0  0  0
   11.7501   -0.7785   20.5193 F   0  0  0  0  0  0  0  0  0  0  0  0
   11.3358    0.9398   21.7475 F   0  0  0  0  0  0  0  0  0  0  0  0
    8.8118   -0.5351   21.1114 C   0  0  0  0  0  0  0  0  0  0  0  0
    9.3690    0.1086   20.4368 H   0  0  0  0  0  0  0  0  0  0  0  0
    5.4404    0.6518   20.1354 C   0  0  0  0  0  0  0  0  0  0  0  0
    5.0167    0.6502   21.1399 H   0  0  0  0  0  0  0  0  0  0  0  0
    4.7983    1.3095   19.0828 C   0  0  0  0  0  0  0  0  0  0  0  0
    3.8645    1.8462   19.2271 H   0  0  0  0  0  0  0  0  0  0  0  0
  1  2  1  0
  2  3  2  0
  3  4  1  0
  4  5  1  0
  4  6  2  0
  6  7  1  0
  7  8  2  0
  8  9  1  0
  8 10  1  0
 10 11  2  0
 11 12  1  0
 11 13  1  0
 13 14  1  0
 14 15  1  0
 15 16  1  0
 15 17  1  0
 15 18  1  0
 13 19  2  0
 19 20  1  0
  6 21  1  0
 21 22  1  0
 21 23  2  0
 23 24  1  0
 23  2  1  0
 19  7  1  0
M  END
>  <cnnaffinity>  (1) 
-4.74463

>  <filename>  (1) 
[H]c1nc([H])c(-c2c([H])nc([H])c(OC(F)(F)F)c2[H])c([H])c1[H]

$$$$
