
     RDKit          3D

 35 37  0  0  0  0  0  0  0  0999 V2000
    5.6806   -2.5026   24.2113 O   0  0  0  0  0  0  0  0  0  0  0  0
    6.7176   -2.2947   24.8063 C   0  0  0  0  0  0  0  0  0  0  0  0
    6.7819   -2.1971   26.3103 C   0  0  0  0  0  0  0  0  0  0  0  0
    6.0826   -0.6223   26.9414 S   0  0  0  0  0  0  0  0  0  0  0  0
    7.1405    0.5186   26.0644 C   0  0  0  0  0  0  0  0  0  0  0  0
    8.4191    0.7994   26.5618 C   0  0  0  0  0  0  0  0  0  0  0  0
    9.3118    1.5788   25.8197 C   0  0  0  0  0  0  0  0  0  0  0  0
    8.9112    2.0865   24.5836 C   0  0  0  0  0  0  0  0  0  0  0  0
   10.0276    3.0644   23.6712 Cl  0  0  0  0  0  0  0  0  0  0  0  0
    7.6320    1.8333   24.0774 C   0  0  0  0  0  0  0  0  0  0  0  0
    6.7404    1.0639   24.8355 C   0  0  0  0  0  0  0  0  0  0  0  0
    5.7372    0.8459   24.4740 H   0  0  0  0  0  0  0  0  0  0  0  0
    7.3627    2.2281   23.1007 H   0  0  0  0  0  0  0  0  0  0  0  0
   10.3146    1.7780   26.1808 H   0  0  0  0  0  0  0  0  0  0  0  0
    8.7111    0.3950   27.5284 H   0  0  0  0  0  0  0  0  0  0  0  0
    6.1768   -3.0014   26.7298 H   0  0  0  0  0  0  0  0  0  0  0  0
    7.8179   -2.3123   26.6226 H   0  0  0  0  0  0  0  0  0  0  0  0
    7.8909   -2.0840   24.1426 N   0  0  0  0  0  0  0  0  0  0  0  0
    7.9371   -1.6413   22.8408 C   0  0  0  0  0  0  0  0  0  0  0  0
    8.9973   -1.6511   22.0944 N   0  0  0  0  0  0  0  0  0  0  0  0
    8.6256   -1.0659   20.8942 N   0  0  0  0  0  0  0  0  0  0  0  0
    7.3738   -0.7184   20.9865 C   0  0  0  0  0  0  0  0  0  0  0  0
    6.6285   -0.0093   19.9406 C   0  0  0  0  0  0  0  0  0  0  0  0
    5.4173    0.6593   20.1688 C   0  0  0  0  0  0  0  0  0  0  0  0
    4.8013    1.3059   19.0992 C   0  0  0  0  0  0  0  0  0  0  0  0
    5.4199    1.2756   17.8471 C   0  0  0  0  0  0  0  0  0  0  0  0
    6.5819    0.6461   17.6136 N   0  0  0  0  0  0  0  0  0  0  0  0
    7.1733    0.0342   18.6428 C   0  0  0  0  0  0  0  0  0  0  0  0
    8.1306   -0.4385   18.4203 H   0  0  0  0  0  0  0  0  0  0  0  0
    4.9716    1.7859   16.9980 H   0  0  0  0  0  0  0  0  0  0  0  0
    3.8697    1.8444   19.2272 H   0  0  0  0  0  0  0  0  0  0  0  0
    4.9643    0.7002   21.1596 H   0  0  0  0  0  0  0  0  0  0  0  0
    6.8814   -1.0741   22.2185 N   0  0  0  0  0  0  0  0  0  0  0  0
    5.9456   -1.2062   22.5624 H   0  0  0  0  0  0  0  0  0  0  0  0
    8.7893   -2.1587   24.5732 H   0  0  0  0  0  0  0  0  0  0  0  0
  1  2  2  0
  2  3  1  0
  3  4  1  0
  4  5  1  0
  5  6  2  0
  6  7  1  0
  7  8  2  0
  8  9  1  0
  8 10  1  0
 10 11  2  0
 11 12  1  0
 10 13  1  0
  7 14  1  0
  6 15  1  0
  3 16  1  0
  3 17  1  0
  2 18  1  0
 18 19  1  0
 19 20  2  0
 20 21  1  0
 21 22  2  0
 22 23  1  0
 23 24  2  0
 24 25  1  0
 25 26  2  0
 26 27  1  0
 27 28  2  0
 28 29  1  0
 26 30  1  0
 25 31  1  0
 24 32  1  0
 22 33  1  0
 33 34  1  0
 18 35  1  0
 11  5  1  0
 33 19  1  0
 28 23  1  0
M  END
>  <cnnaffinity>  (1) 
-5.46309

>  <filename>  (1) 
[H]c1nc([H])c(-c2nnc(N([H])C(=O)C([H])([H])Sc3c([H])c([H])c(Cl)c([H])c3[H])n2[H])c([H])c1[H]

$$$$
