
     RDKit          3D

 37 39  0  0  0  0  0  0  0  0999 V2000
    9.5661   -0.2554   20.2264 O   0  0  0  0  0  0  0  0  0  0  0  0
    8.7693   -0.5915   21.0782 C   0  0  0  0  0  0  0  0  0  0  0  0
    9.2341   -1.0896   22.4805 C   0  0  0  0  0  0  0  0  0  0  0  0
    8.4874   -0.6705   23.6718 N   0  0  0  0  0  0  0  0  0  0  0  0
    8.3604    0.6428   24.0295 C   0  0  0  0  0  0  0  0  0  0  0  0
    9.0010    1.5198   23.4773 O   0  0  0  0  0  0  0  0  0  0  0  0
    7.2838    0.8900   25.0356 C   0  0  0  0  0  0  0  0  0  0  0  0
    7.2670    0.3016   26.2927 C   0  0  0  0  0  0  0  0  0  0  0  0
    6.2774    0.6705   27.2410 C   0  0  0  0  0  0  0  0  0  0  0  0
    5.3001    1.5872   26.9222 C   0  0  0  0  0  0  0  0  0  0  0  0
    5.2706    2.1674   25.6175 C   0  0  0  0  0  0  0  0  0  0  0  0
    4.3011    3.1326   25.2097 C   0  0  0  0  0  0  0  0  0  0  0  0
    4.2343    3.6784   24.0152 N   0  0  0  0  0  0  0  0  0  0  0  0
    5.1779    3.3133   23.1047 C   0  0  0  0  0  0  0  0  0  0  0  0
    6.1746    2.4077   23.3650 C   0  0  0  0  0  0  0  0  0  0  0  0
    6.2582    1.8072   24.6568 C   0  0  0  0  0  0  0  0  0  0  0  0
    6.9133    2.1917   22.6069 H   0  0  0  0  0  0  0  0  0  0  0  0
    5.1046    3.8042   22.1342 H   0  0  0  0  0  0  0  0  0  0  0  0
    3.5591    3.4479   25.9435 H   0  0  0  0  0  0  0  0  0  0  0  0
    4.5541    1.8833   27.6586 H   0  0  0  0  0  0  0  0  0  0  0  0
    6.2990    0.2199   28.2288 H   0  0  0  0  0  0  0  0  0  0  0  0
    8.0239   -0.4257   26.5834 H   0  0  0  0  0  0  0  0  0  0  0  0
    7.9873   -1.3261   24.2490 H   0  0  0  0  0  0  0  0  0  0  0  0
   10.2835   -0.7940   22.5513 H   0  0  0  0  0  0  0  0  0  0  0  0
    9.2084   -2.1811   22.4481 H   0  0  0  0  0  0  0  0  0  0  0  0
    7.4082   -0.6343   20.8721 N   0  0  0  0  0  0  0  0  0  0  0  0
    6.7114    0.0077   19.8214 C   0  0  0  0  0  0  0  0  0  0  0  0
    5.5100    0.6501   20.1380 C   0  0  0  0  0  0  0  0  0  0  0  0
    4.8224    1.3040   19.1102 C   0  0  0  0  0  0  0  0  0  0  0  0
    5.3604    1.3017   17.8188 C   0  0  0  0  0  0  0  0  0  0  0  0
    6.5016    0.6700   17.4976 N   0  0  0  0  0  0  0  0  0  0  0  0
    7.1635    0.0472   18.4824 C   0  0  0  0  0  0  0  0  0  0  0  0
    8.1016   -0.4338   18.2236 H   0  0  0  0  0  0  0  0  0  0  0  0
    4.8668    1.8378   17.0117 H   0  0  0  0  0  0  0  0  0  0  0  0
    3.8950    1.8308   19.2964 H   0  0  0  0  0  0  0  0  0  0  0  0
    5.1708    0.6833   21.1766 H   0  0  0  0  0  0  0  0  0  0  0  0
    6.8735   -0.7219   21.7245 H   0  0  0  0  0  0  0  0  0  0  0  0
  1  2  2  0
  2  3  1  0
  3  4  1  0
  4  5  1  0
  5  6  2  0
  5  7  1  0
  7  8  2  0
  8  9  1  0
  9 10  2  0
 10 11  1  0
 11 12  2  0
 12 13  1  0
 13 14  2  0
 14 15  1  0
 15 16  2  0
 15 17  1  0
 14 18  1  0
 12 19  1  0
 10 20  1  0
  9 21  1  0
  8 22  1  0
  4 23  1  0
  3 24  1  0
  3 25  1  0
  2 26  1  0
 26 27  1  0
 27 28  2  0
 28 29  1  0
 29 30  2  0
 30 31  1  0
 31 32  2  0
 32 33  1  0
 30 34  1  0
 29 35  1  0
 28 36  1  0
 26 37  1  0
 16  7  1  0
 32 27  1  0
 16 11  1  0
M  END
>  <cnnaffinity>  (1) 
-4.99335

>  <filename>  (1) 
[H]c1nc([H])c(N([H])C(=O)C([H])([H])N([H])C(=O)c2c([H])c([H])c([H])c3c([H])nc([H])c([H])c23)c([H])c1[H]

$$$$
