
     RDKit          3D

 42 45  0  0  0  0  0  0  0  0999 V2000
    9.5820    4.4607   22.5184 O   0  0  0  0  0  0  0  0  0  0  0  0
    9.4123    4.1531   23.6845 C   0  0  0  0  0  0  0  0  0  0  0  0
    9.1556    2.7640   24.0871 C   0  0  0  0  0  0  0  0  0  0  0  0
    9.0574    1.7618   23.0371 C   0  0  0  0  0  0  0  0  0  0  0  0
    8.0299    0.9550   22.8446 N   0  0  0  0  0  0  0  0  0  0  0  0
    8.3556    0.3053   21.6957 C   0  0  0  0  0  0  0  0  0  0  0  0
    7.4483   -0.6628   20.9801 C   0  0  0  0  0  0  0  0  0  0  0  0
    6.6597   -0.0338   19.8309 C   0  0  0  0  0  0  0  0  0  0  0  0
    5.4544    0.6288   20.0959 C   0  0  0  0  0  0  0  0  0  0  0  0
    4.8136    1.3021   19.0559 C   0  0  0  0  0  0  0  0  0  0  0  0
    5.3971    1.3011   17.7871 C   0  0  0  0  0  0  0  0  0  0  0  0
    6.5386    0.6573   17.5015 N   0  0  0  0  0  0  0  0  0  0  0  0
    7.1433    0.0117   18.5076 C   0  0  0  0  0  0  0  0  0  0  0  0
    8.0832   -0.4801   18.2507 H   0  0  0  0  0  0  0  0  0  0  0  0
    4.9284    1.8410   16.9668 H   0  0  0  0  0  0  0  0  0  0  0  0
    3.8880    1.8381   19.2209 H   0  0  0  0  0  0  0  0  0  0  0  0
    5.0354    0.6380   21.1051 H   0  0  0  0  0  0  0  0  0  0  0  0
    8.0563   -1.4999   20.6195 H   0  0  0  0  0  0  0  0  0  0  0  0
    6.7663   -1.0687   21.7332 H   0  0  0  0  0  0  0  0  0  0  0  0
    9.5525    0.5990   21.2231 N   0  0  0  0  0  0  0  0  0  0  0  0
   10.0074    1.5413   22.0783 N   0  0  0  0  0  0  0  0  0  0  0  0
   11.4209    1.8737   22.0341 C   0  0  0  0  0  0  0  0  0  0  0  0
   12.2766    1.0030   22.9473 C   0  0  0  0  0  0  0  0  0  0  0  0
   11.8299    1.0702   24.2154 F   0  0  0  0  0  0  0  0  0  0  0  0
   13.5388    1.4662   22.9331 F   0  0  0  0  0  0  0  0  0  0  0  0
   12.3180   -0.2837   22.5777 F   0  0  0  0  0  0  0  0  0  0  0  0
   11.5610    2.9152   22.3186 H   0  0  0  0  0  0  0  0  0  0  0  0
   11.7503    1.7324   21.0046 H   0  0  0  0  0  0  0  0  0  0  0  0
    8.9177    2.4529   25.3854 C   0  0  0  0  0  0  0  0  0  0  0  0
    8.9401    3.4327   26.3308 N   0  0  0  0  0  0  0  0  0  0  0  0
    9.2014    4.7678   26.0710 C   0  0  0  0  0  0  0  0  0  0  0  0
    9.1990    5.6963   27.1308 C   0  0  0  0  0  0  0  0  0  0  0  0
    9.5647    7.0143   26.8853 C   0  0  0  0  0  0  0  0  0  0  0  0
    9.8499    7.4302   25.5667 C   0  0  0  0  0  0  0  0  0  0  0  0
    9.7765    6.5327   24.5144 C   0  0  0  0  0  0  0  0  0  0  0  0
    9.4680    5.1725   24.7597 C   0  0  0  0  0  0  0  0  0  0  0  0
    9.9424    6.8638   23.4890 H   0  0  0  0  0  0  0  0  0  0  0  0
   10.1241    8.4639   25.3745 H   0  0  0  0  0  0  0  0  0  0  0  0
    9.6503    7.7377   27.6947 H   0  0  0  0  0  0  0  0  0  0  0  0
    8.8569    5.3614   28.1026 H   0  0  0  0  0  0  0  0  0  0  0  0
    8.8690    3.1992   27.3062 H   0  0  0  0  0  0  0  0  0  0  0  0
    8.6861    1.4382   25.7274 H   0  0  0  0  0  0  0  0  0  0  0  0
  1  2  2  0
  2  3  1  0
  3  4  1  0
  4  5  2  0
  5  6  1  0
  6  7  1  0
  7  8  1  0
  8  9  2  0
  9 10  1  0
 10 11  2  0
 11 12  1  0
 12 13  2  0
 13 14  1  0
 11 15  1  0
 10 16  1  0
  9 17  1  0
  7 18  1  0
  7 19  1  0
  6 20  2  0
 20 21  1  0
 21 22  1  0
 22 23  1  0
 23 24  1  0
 23 25  1  0
 23 26  1  0
 22 27  1  0
 22 28  1  0
  3 29  2  0
 29 30  1  0
 30 31  1  0
 31 32  2  0
 32 33  1  0
 33 34  2  0
 34 35  1  0
 35 36  2  0
 35 37  1  0
 34 38  1  0
 33 39  1  0
 32 40  1  0
 30 41  1  0
 29 42  1  0
 36  2  1  0
 21  4  1  0
 36 31  1  0
 13  8  1  0
M  END
>  <cnnaffinity>  (1) 
-6.09759

>  <filename>  (1) 
[H]c1nc([H])c(C([H])([H])c2nc(-c3c([H])n([H])c4c([H])c([H])c([H])c([H])c4c3=O)n(C([H])([H])C(F)(F)F)n2)c([H])c1[H]

$$$$
