
     RDKit          3D

 53 57  0  0  0  0  0  0  0  0999 V2000
    5.7528    4.2085   22.0748 C   0  0  0  0  0  0  0  0  0  0  0  0
    6.5995    4.3322   23.3413 C   0  0  0  0  0  0  0  0  0  0  0  0
    6.1974    3.3049   24.4312 C   0  0  0  0  0  0  0  0  0  0  0  0
    7.5132    2.8316   25.0613 C   0  0  0  0  0  0  0  0  0  0  0  0
    8.5401    2.8558   23.9226 C   0  0  0  0  0  0  0  0  0  0  0  0
    8.5887    1.6242   23.1001 N   0  0  0  0  0  0  0  0  0  0  0  0
    7.4632    1.0869   22.5729 N   0  0  0  0  0  0  0  0  0  0  0  0
    7.9163    0.0998   21.8198 C   0  0  0  0  0  0  0  0  0  0  0  0
    7.0357   -0.7547   20.9446 C   0  0  0  0  0  0  0  0  0  0  0  0
    6.4070   -0.0512   19.7396 C   0  0  0  0  0  0  0  0  0  0  0  0
    5.2366    0.7029   19.8915 C   0  0  0  0  0  0  0  0  0  0  0  0
    4.7181    1.3902   18.7892 C   0  0  0  0  0  0  0  0  0  0  0  0
    5.3910    1.2994   17.5689 C   0  0  0  0  0  0  0  0  0  0  0  0
    6.4966    0.5605   17.3866 N   0  0  0  0  0  0  0  0  0  0  0  0
    6.9745   -0.0965   18.4511 C   0  0  0  0  0  0  0  0  0  0  0  0
    7.8695   -0.6958   18.2783 H   0  0  0  0  0  0  0  0  0  0  0  0
    5.0281    1.8345   16.6937 H   0  0  0  0  0  0  0  0  0  0  0  0
    3.8219    1.9978   18.8659 H   0  0  0  0  0  0  0  0  0  0  0  0
    4.7469    0.7504   20.8668 H   0  0  0  0  0  0  0  0  0  0  0  0
    7.6517   -1.5970   20.6152 H   0  0  0  0  0  0  0  0  0  0  0  0
    6.2418   -1.1635   21.5793 H   0  0  0  0  0  0  0  0  0  0  0  0
    9.2608   -0.0462   21.8377 N   0  0  0  0  0  0  0  0  0  0  0  0
    9.6693    0.9582   22.5962 C   0  0  0  0  0  0  0  0  0  0  0  0
   11.0532    1.4720   22.6928 C   0  0  0  0  0  0  0  0  0  0  0  0
   12.1804    0.6181   22.7802 C   0  0  0  0  0  0  0  0  0  0  0  0
   13.4842    1.1361   22.7770 C   0  0  0  0  0  0  0  0  0  0  0  0
   13.6450    2.5114   22.6692 C   0  0  0  0  0  0  0  0  0  0  0  0
   14.7322    3.3590   22.4851 N   0  0  0  0  0  0  0  0  0  0  0  0
   14.3480    4.6701   22.3880 C   0  0  0  0  0  0  0  0  0  0  0  0
   15.0567    5.6510   22.3356 O   0  0  0  0  0  0  0  0  0  0  0  0
   12.9610    4.6408   22.3474 N   0  0  0  0  0  0  0  0  0  0  0  0
   12.2666    5.5611   21.4949 C   0  0  0  0  0  0  0  0  0  0  0  0
   12.9417    6.3939   21.2865 H   0  0  0  0  0  0  0  0  0  0  0  0
   11.3466    5.9260   21.9591 H   0  0  0  0  0  0  0  0  0  0  0  0
   12.0286    5.0896   20.5335 H   0  0  0  0  0  0  0  0  0  0  0  0
   12.5269    3.3392   22.5315 C   0  0  0  0  0  0  0  0  0  0  0  0
   11.2450    2.8564   22.5568 C   0  0  0  0  0  0  0  0  0  0  0  0
   10.4288    3.5611   22.4169 H   0  0  0  0  0  0  0  0  0  0  0  0
   15.6924    3.1838   22.7020 H   0  0  0  0  0  0  0  0  0  0  0  0
   14.3488    0.4818   22.7880 H   0  0  0  0  0  0  0  0  0  0  0  0
   12.0351   -0.4567   22.8540 H   0  0  0  0  0  0  0  0  0  0  0  0
    8.1180    4.0957   23.0905 C   0  0  0  0  0  0  0  0  0  0  0  0
    8.6964    4.9646   23.4324 H   0  0  0  0  0  0  0  0  0  0  0  0
    8.3507    3.9670   22.0261 H   0  0  0  0  0  0  0  0  0  0  0  0
    9.5372    2.9700   24.3472 H   0  0  0  0  0  0  0  0  0  0  0  0
    7.4492    1.8564   25.5511 H   0  0  0  0  0  0  0  0  0  0  0  0
    7.8430    3.5537   25.8219 H   0  0  0  0  0  0  0  0  0  0  0  0
    5.5023    3.7246   25.1683 H   0  0  0  0  0  0  0  0  0  0  0  0
    5.7028    2.4414   23.9751 H   0  0  0  0  0  0  0  0  0  0  0  0
    6.4735    5.3499   23.7375 H   0  0  0  0  0  0  0  0  0  0  0  0
    5.8739    3.2127   21.6281 H   0  0  0  0  0  0  0  0  0  0  0  0
    4.6897    4.3565   22.2942 H   0  0  0  0  0  0  0  0  0  0  0  0
    6.0433    4.9527   21.3260 H   0  0  0  0  0  0  0  0  0  0  0  0
  1  2  1  0
  2  3  1  0
  3  4  1  0
  4  5  1  0
  5  6  1  0
  6  7  1  0
  7  8  2  0
  8  9  1  0
  9 10  1  0
 10 11  2  0
 11 12  1  0
 12 13  2  0
 13 14  1  0
 14 15  2  0
 15 16  1  0
 13 17  1  0
 12 18  1  0
 11 19  1  0
  9 20  1  0
  9 21  1  0
  8 22  1  0
 22 23  2  0
 23 24  1  0
 24 25  2  0
 25 26  1  0
 26 27  2  0
 27 28  1  0
 28 29  1  0
 29 30  2  0
 29 31  1  0
 31 32  1  0
 32 33  1  0
 32 34  1  0
 32 35  1  0
 31 36  1  0
 36 37  2  0
 37 38  1  0
 28 39  1  0
 26 40  1  0
 25 41  1  0
  5 42  1  0
 42 43  1  0
 42 44  1  0
  5 45  1  0
  4 46  1  0
  4 47  1  0
  3 48  1  0
  3 49  1  0
  2 50  1  0
  1 51  1  0
  1 52  1  0
  1 53  1  0
 42  2  1  0
 23  6  1  0
 37 24  1  0
 15 10  1  0
 36 27  1  0
M  END
>  <cnnaffinity>  (1) 
-6.73702

>  <filename>  (1) 
[H]c1nc([H])c(C([H])([H])c2nc(-c3c([H])c([H])c4c(c3[H])n(C([H])([H])[H])c(=O)n4[H])n(C3([H])C([H])([H])C([H])([H])C([H])(C([H])([H])[H])C3([H])[H])n2)c([H])c1[H]

$$$$
