
     RDKit          3D

 28 30  0  0  0  0  0  0  0  0999 V2000
    8.1009   -1.4187   20.4966 H   0  0  0  0  0  0  0  0  0  0  0  0
    7.4127   -0.6470   20.8536 C   0  0  0  0  0  0  0  0  0  0  0  0
    7.3486   -0.4041   22.1703 C   0  0  0  0  0  0  0  0  0  0  0  0
    6.6969    0.3777   22.5539 H   0  0  0  0  0  0  0  0  0  0  0  0
    8.1105   -1.1591   23.1625 C   0  0  0  0  0  0  0  0  0  0  0  0
    8.9422   -2.1415   22.9035 N   0  0  0  0  0  0  0  0  0  0  0  0
    9.3475   -2.6132   24.1301 C   0  0  0  0  0  0  0  0  0  0  0  0
   10.1723   -3.7165   24.4115 C   0  0  0  0  0  0  0  0  0  0  0  0
   10.6840   -4.1821   23.5821 H   0  0  0  0  0  0  0  0  0  0  0  0
   10.2692   -4.1607   25.7248 C   0  0  0  0  0  0  0  0  0  0  0  0
   10.8418   -5.0631   25.9442 H   0  0  0  0  0  0  0  0  0  0  0  0
    9.5880   -3.4615   26.7533 C   0  0  0  0  0  0  0  0  0  0  0  0
    9.6292   -3.8713   27.7566 H   0  0  0  0  0  0  0  0  0  0  0  0
    8.8747   -2.2833   26.5133 C   0  0  0  0  0  0  0  0  0  0  0  0
    8.4339   -1.7057   27.3273 H   0  0  0  0  0  0  0  0  0  0  0  0
    8.7423   -1.8785   25.1738 C   0  0  0  0  0  0  0  0  0  0  0  0
    7.9812   -0.9299   24.5133 N   0  0  0  0  0  0  0  0  0  0  0  0
    7.4289   -0.1964   24.9183 H   0  0  0  0  0  0  0  0  0  0  0  0
    6.6251    0.0354   19.8133 C   0  0  0  0  0  0  0  0  0  0  0  0
    7.1126    0.0667   18.4890 C   0  0  0  0  0  0  0  0  0  0  0  0
    8.0463   -0.4405   18.2524 H   0  0  0  0  0  0  0  0  0  0  0  0
    6.5246    0.7004   17.4723 N   0  0  0  0  0  0  0  0  0  0  0  0
    5.3744    1.3441   17.7376 C   0  0  0  0  0  0  0  0  0  0  0  0
    4.9149    1.8705   16.9016 H   0  0  0  0  0  0  0  0  0  0  0  0
    4.7755    1.3509   19.0010 C   0  0  0  0  0  0  0  0  0  0  0  0
    3.8468    1.8904   19.1491 H   0  0  0  0  0  0  0  0  0  0  0  0
    5.4057    0.6912   20.0574 C   0  0  0  0  0  0  0  0  0  0  0  0
    4.9571    0.6766   21.0518 H   0  0  0  0  0  0  0  0  0  0  0  0
  1  2  1  0
  2  3  2  3
  3  4  1  0
  3  5  1  0
  5  6  2  0
  6  7  1  0
  7  8  2  0
  8  9  1  0
  8 10  1  0
 10 11  1  0
 10 12  2  0
 12 13  1  0
 12 14  1  0
 14 15  1  0
 14 16  2  0
 16 17  1  0
 17 18  1  0
  2 19  1  0
 19 20  2  0
 20 21  1  0
 20 22  1  0
 22 23  2  0
 23 24  1  0
 23 25  1  0
 25 26  1  0
 25 27  2  0
 27 28  1  0
 17  5  1  0
 27 19  1  0
 16  7  1  0
M  END
>  <cnnaffinity>  (1) 
-4.82437

>  <filename>  (1) 
[H]C(=C([H])c1nc2c([H])c([H])c([H])c([H])c2n1[H])c1c([H])nc([H])c([H])c1[H]

$$$$
