
     RDKit          3D

 31 33  0  0  0  0  0  0  0  0999 V2000
    5.0253    1.7256   16.9352 H   0  0  0  0  0  0  0  0  0  0  0  0
    5.4414    1.2895   17.8400 C   0  0  0  0  0  0  0  0  0  0  0  0
    6.6232    0.6694   17.6993 N   0  0  0  0  0  0  0  0  0  0  0  0
    7.1598    0.1397   18.8046 C   0  0  0  0  0  0  0  0  0  0  0  0
    8.1238   -0.3553   18.7026 H   0  0  0  0  0  0  0  0  0  0  0  0
    6.5589    0.1754   20.0709 C   0  0  0  0  0  0  0  0  0  0  0  0
    7.2267   -0.5131   21.2065 C   0  0  0  0  0  0  0  0  0  0  0  0
    8.0333    0.3074   22.0183 O   0  0  0  0  0  0  0  0  0  0  0  0
    9.1655    0.7933   21.4832 C   0  0  0  0  0  0  0  0  0  0  0  0
    9.5180    0.5718   20.3495 O   0  0  0  0  0  0  0  0  0  0  0  0
    9.9217    1.6278   22.4575 C   0  0  0  0  0  0  0  0  0  0  0  0
    9.5300    1.8659   23.7902 C   0  0  0  0  0  0  0  0  0  0  0  0
    8.4842    1.2225   24.3178 F   0  0  0  0  0  0  0  0  0  0  0  0
   10.1830    2.7598   24.6324 C   0  0  0  0  0  0  0  0  0  0  0  0
    9.7737    2.8918   25.6285 H   0  0  0  0  0  0  0  0  0  0  0  0
   11.3102    3.4281   24.1545 C   0  0  0  0  0  0  0  0  0  0  0  0
   11.8280    4.1532   24.7755 H   0  0  0  0  0  0  0  0  0  0  0  0
   11.7828    3.1682   22.8722 C   0  0  0  0  0  0  0  0  0  0  0  0
   12.6715    3.6439   22.4799 H   0  0  0  0  0  0  0  0  0  0  0  0
   11.0978    2.2764   22.0544 C   0  0  0  0  0  0  0  0  0  0  0  0
   11.6066    2.0550   20.8435 F   0  0  0  0  0  0  0  0  0  0  0  0
    7.6898   -1.9185   21.0173 C   0  0  0  0  0  0  0  0  0  0  0  0
    7.4033   -2.3651   20.0764 H   0  0  0  0  0  0  0  0  0  0  0  0
    8.6695   -2.1697   21.4065 H   0  0  0  0  0  0  0  0  0  0  0  0
    6.5831   -1.6102   21.9862 C   0  0  0  0  0  0  0  0  0  0  0  0
    5.5779   -1.9110   21.7142 H   0  0  0  0  0  0  0  0  0  0  0  0
    6.8243   -1.6552   23.0447 H   0  0  0  0  0  0  0  0  0  0  0  0
    5.3400    0.8427   20.2020 C   0  0  0  0  0  0  0  0  0  0  0  0
    4.8721    0.9013   21.1859 H   0  0  0  0  0  0  0  0  0  0  0  0
    4.7649    1.4009   19.0609 C   0  0  0  0  0  0  0  0  0  0  0  0
    3.8185    1.9260   19.1080 H   0  0  0  0  0  0  0  0  0  0  0  0
  1  2  1  0
  2  3  2  0
  3  4  1  0
  4  5  1  0
  4  6  2  0
  6  7  1  0
  7  8  1  0
  8  9  1  0
  9 10  2  0
  9 11  1  0
 11 12  2  0
 12 13  1  0
 12 14  1  0
 14 15  1  0
 14 16  2  0
 16 17  1  0
 16 18  1  0
 18 19  1  0
 18 20  2  0
 20 21  1  0
  7 22  1  0
 22 23  1  0
 22 24  1  0
 22 25  1  0
 25 26  1  0
 25 27  1  0
  6 28  1  0
 28 29  1  0
 28 30  2  0
 30 31  1  0
 30  2  1  0
 25  7  1  0
 20 11  1  0
M  END
>  <cnnaffinity>  (1) 
-5.04054

>  <filename>  (1) 
[H]c1nc([H])c(C2(OC(=O)c3c(F)c([H])c([H])c([H])c3F)C([H])([H])C2([H])[H])c([H])c1[H]

$$$$
