
     RDKit          3D

 38 41  0  0  0  0  0  0  0  0999 V2000
    5.0488    1.8142   16.9055 H   0  0  0  0  0  0  0  0  0  0  0  0
    5.4061    1.2873   17.7872 C   0  0  0  0  0  0  0  0  0  0  0  0
    6.5477    0.5939   17.6450 N   0  0  0  0  0  0  0  0  0  0  0  0
    7.0236   -0.0196   18.7353 C   0  0  0  0  0  0  0  0  0  0  0  0
    7.9359   -0.5986   18.5981 H   0  0  0  0  0  0  0  0  0  0  0  0
    6.4183    0.0151   20.0041 C   0  0  0  0  0  0  0  0  0  0  0  0
    7.1928   -0.5449   21.1307 C   0  0  0  0  0  0  0  0  0  0  0  0
    8.5530   -0.4796   21.3695 C   0  0  0  0  0  0  0  0  0  0  0  0
    8.7513   -1.1206   22.5869 C   0  0  0  0  0  0  0  0  0  0  0  0
    7.6381   -1.6120   23.1010 N   0  0  0  0  0  0  0  0  0  0  0  0
    6.6929   -1.2304   22.2014 N   0  0  0  0  0  0  0  0  0  0  0  0
    5.7587   -1.6107   22.2887 H   0  0  0  0  0  0  0  0  0  0  0  0
   10.1896   -1.1414   23.0108 C   0  0  0  0  0  0  0  0  0  0  0  0
   10.3021   -0.6646   23.9888 H   0  0  0  0  0  0  0  0  0  0  0  0
   10.5687   -2.1586   23.1340 H   0  0  0  0  0  0  0  0  0  0  0  0
   10.9280   -0.3908   21.8436 C   0  0  2  0  0  0  0  0  0  0  0  0
   11.6535   -1.0838   21.4009 H   0  0  0  0  0  0  0  0  0  0  0  0
   11.7585    0.8375   22.3098 C   0  0  0  0  0  0  0  0  0  0  0  0
   12.2552    1.2633   21.4270 H   0  0  0  0  0  0  0  0  0  0  0  0
   12.5708    0.4990   22.9684 H   0  0  0  0  0  0  0  0  0  0  0  0
   10.9795    1.9479   22.9909 C   0  0  0  0  0  0  0  0  0  0  0  0
   10.6715    1.9349   24.3639 C   0  0  0  0  0  0  0  0  0  0  0  0
   11.0430    1.1262   24.9911 H   0  0  0  0  0  0  0  0  0  0  0  0
    9.8932    2.9433   24.9410 C   0  0  0  0  0  0  0  0  0  0  0  0
    9.6107    2.9401   25.9883 H   0  0  0  0  0  0  0  0  0  0  0  0
    9.4690    4.0013   24.1453 C   0  0  0  0  0  0  0  0  0  0  0  0
    8.7353    4.9786   24.7050 F   0  0  0  0  0  0  0  0  0  0  0  0
    9.7865    4.0823   22.7959 C   0  0  0  0  0  0  0  0  0  0  0  0
    9.4372    4.9493   22.2413 H   0  0  0  0  0  0  0  0  0  0  0  0
   10.5370    3.0418   22.2299 C   0  0  0  0  0  0  0  0  0  0  0  0
   10.7858    3.0347   21.1694 H   0  0  0  0  0  0  0  0  0  0  0  0
    9.8503   -0.0602   20.7480 C   0  0  0  0  0  0  0  0  0  0  0  0
   10.0399   -0.6335   19.8351 H   0  0  0  0  0  0  0  0  0  0  0  0
    9.8654    0.9877   20.4280 H   0  0  0  0  0  0  0  0  0  0  0  0
    5.1779    0.6738   20.1037 C   0  0  0  0  0  0  0  0  0  0  0  0
    4.6327    0.6820   21.0465 H   0  0  0  0  0  0  0  0  0  0  0  0
    4.6789    1.3410   18.9820 C   0  0  0  0  0  0  0  0  0  0  0  0
    3.7564    1.9167   19.0268 H   0  0  0  0  0  0  0  0  0  0  0  0
  1  2  1  0
  2  3  2  0
  3  4  1  0
  4  5  1  0
  4  6  2  0
  6  7  1  0
  7  8  2  0
  8  9  1  0
  9 10  2  0
 10 11  1  0
 11 12  1  0
  9 13  1  0
 13 14  1  0
 13 15  1  0
 13 16  1  0
 16 17  1  6
 16 18  1  0
 18 19  1  0
 18 20  1  0
 18 21  1  0
 21 22  2  0
 22 23  1  0
 22 24  1  0
 24 25  1  0
 24 26  2  0
 26 27  1  0
 26 28  1  0
 28 29  1  0
 28 30  2  0
 30 31  1  0
 16 32  1  0
 32 33  1  0
 32 34  1  0
  6 35  1  0
 35 36  1  0
 35 37  2  0
 37 38  1  0
 37  2  1  0
 11  7  1  0
 30 21  1  0
 32  8  1  0
M  END
>  <cnnaffinity>  (1) 
-5.56102

>  <filename>  (1) 
[H]c1nc([H])c(-c2c3c(nn2[H])C([H])([H])[C@]([H])(C([H])([H])c2c([H])c([H])c(F)c([H])c2[H])C3([H])[H])c([H])c1[H]

$$$$
