
     RDKit          3D

 27 28  0  0  0  0  0  0  0  0999 V2000
    8.8547   -3.1857   22.1007 H   0  0  0  0  0  0  0  0  0  0  0  0
    8.3686   -2.2342   21.9035 C   0  0  0  0  0  0  0  0  0  0  0  0
    8.2669   -1.2508   22.8406 N   0  0  0  0  0  0  0  0  0  0  0  0
    7.6333   -0.2918   22.1996 C   0  0  0  0  0  0  0  0  0  0  0  0
    7.2777    1.0420   22.7668 C   0  0  0  0  0  0  0  0  0  0  0  0
    7.1966    1.7897   21.9708 H   0  0  0  0  0  0  0  0  0  0  0  0
    6.3043    0.9624   23.2665 H   0  0  0  0  0  0  0  0  0  0  0  0
    8.3243    1.5020   23.7667 C   0  0  0  0  0  0  0  0  0  0  0  0
    8.3794    0.7836   24.6006 H   0  0  0  0  0  0  0  0  0  0  0  0
    9.3107    1.5403   23.2692 H   0  0  0  0  0  0  0  0  0  0  0  0
    7.9795    2.7812   24.2460 O   0  0  0  0  0  0  0  0  0  0  0  0
    8.9387    3.2461   25.1696 C   0  0  0  0  0  0  0  0  0  0  0  0
    9.0045    2.5711   26.0387 H   0  0  0  0  0  0  0  0  0  0  0  0
    9.9298    3.3306   24.6943 H   0  0  0  0  0  0  0  0  0  0  0  0
    8.6397    4.2353   25.5227 H   0  0  0  0  0  0  0  0  0  0  0  0
    7.3536   -0.6993   20.9259 N   0  0  0  0  0  0  0  0  0  0  0  0
    6.6594    0.0033   19.9024 C   0  0  0  0  0  0  0  0  0  0  0  0
    7.1847    0.0523   18.5997 C   0  0  0  0  0  0  0  0  0  0  0  0
    8.1341   -0.4413   18.3837 H   0  0  0  0  0  0  0  0  0  0  0  0
    6.5709    0.6824   17.5931 N   0  0  0  0  0  0  0  0  0  0  0  0
    5.3978    1.2918   17.8486 C   0  0  0  0  0  0  0  0  0  0  0  0
    4.9045    1.7710   17.0068 H   0  0  0  0  0  0  0  0  0  0  0  0
    4.8046    1.3119   19.1114 C   0  0  0  0  0  0  0  0  0  0  0  0
    3.8728    1.8448   19.2693 H   0  0  0  0  0  0  0  0  0  0  0  0
    5.4453    0.6513   20.1604 C   0  0  0  0  0  0  0  0  0  0  0  0
    5.0094    0.6268   21.1552 H   0  0  0  0  0  0  0  0  0  0  0  0
    7.8477   -1.9482   20.7287 N   0  0  0  0  0  0  0  0  0  0  0  0
  1  2  1  0
  2  3  1  0
  3  4  2  0
  4  5  1  0
  5  6  1  0
  5  7  1  0
  5  8  1  0
  8  9  1  0
  8 10  1  0
  8 11  1  0
 11 12  1  0
 12 13  1  0
 12 14  1  0
 12 15  1  0
  4 16  1  0
 16 17  1  0
 17 18  2  0
 18 19  1  0
 18 20  1  0
 20 21  2  0
 21 22  1  0
 21 23  1  0
 23 24  1  0
 23 25  2  0
 25 26  1  0
 16 27  1  0
 27  2  2  0
 25 17  1  0
M  END
>  <cnnaffinity>  (1) 
-4.46882

>  <filename>  (1) 
[H]c1nc(C([H])([H])C([H])([H])OC([H])([H])[H])n(-c2c([H])nc([H])c([H])c2[H])n1

$$$$
