
     RDKit          3D

 26 27  0  0  0  0  0  0  0  0999 V2000
    5.0091    1.7325   16.9591 H   0  0  0  0  0  0  0  0  0  0  0  0
    5.4421    1.2399   17.8275 C   0  0  0  0  0  0  0  0  0  0  0  0
    6.5717    0.5519   17.6072 N   0  0  0  0  0  0  0  0  0  0  0  0
    7.1434   -0.0317   18.6620 C   0  0  0  0  0  0  0  0  0  0  0  0
    8.0330   -0.6278   18.4646 H   0  0  0  0  0  0  0  0  0  0  0  0
    6.6743    0.0862   19.9736 C   0  0  0  0  0  0  0  0  0  0  0  0
    7.5497   -0.5887   20.9854 C   0  0  1  0  0  0  0  0  0  0  0  0
    8.5910   -0.2709   20.8391 H   0  0  0  0  0  0  0  0  0  0  0  0
    7.2103   -0.2389   22.2845 F   0  0  0  0  0  0  0  0  0  0  0  0
    7.4769   -2.0113   20.8387 N   0  0  0  0  0  0  0  0  0  0  0  0
    8.1986   -2.4284   21.4198 H   0  0  0  0  0  0  0  0  0  0  0  0
    6.1658   -2.5658   21.2060 C   0  0  0  0  0  0  0  0  0  0  0  0
    5.9109   -2.3483   22.2571 H   0  0  0  0  0  0  0  0  0  0  0  0
    5.4130   -2.0509   20.5888 H   0  0  0  0  0  0  0  0  0  0  0  0
    6.0761   -4.0401   20.9337 C   0  0  0  0  0  0  0  0  0  0  0  0
    5.8213   -4.5579   19.3096 S   0  0  0  0  0  0  0  0  0  0  0  0
    5.6598   -6.1976   19.7737 C   0  0  0  0  0  0  0  0  0  0  0  0
    5.4732   -6.9551   19.0220 H   0  0  0  0  0  0  0  0  0  0  0  0
    5.8076   -6.3516   21.1207 C   0  0  0  0  0  0  0  0  0  0  0  0
    5.7281   -7.3146   21.6169 H   0  0  0  0  0  0  0  0  0  0  0  0
    6.0691   -5.1128   21.7848 C   0  0  0  0  0  0  0  0  0  0  0  0
    6.2614   -5.0362   22.8526 H   0  0  0  0  0  0  0  0  0  0  0  0
    5.4595    0.7438   20.1910 C   0  0  0  0  0  0  0  0  0  0  0  0
    5.0067    0.7936   21.1847 H   0  0  0  0  0  0  0  0  0  0  0  0
    4.8345    1.3326   19.0869 C   0  0  0  0  0  0  0  0  0  0  0  0
    3.8986    1.8673   19.1854 H   0  0  0  0  0  0  0  0  0  0  0  0
  1  2  1  0
  2  3  2  0
  3  4  1  0
  4  5  1  0
  4  6  2  0
  6  7  1  0
  7  8  1  6
  7  9  1  0
  7 10  1  0
 10 11  1  0
 10 12  1  0
 12 13  1  0
 12 14  1  0
 12 15  1  0
 15 16  1  0
 16 17  1  0
 17 18  1  0
 17 19  2  0
 19 20  1  0
 19 21  1  0
 21 22  1  0
  6 23  1  0
 23 24  1  0
 23 25  2  0
 25 26  1  0
 25  2  1  0
 21 15  2  0
M  END
>  <cnnaffinity>  (1) 
-4.50396

>  <filename>  (1) 
[H]c1nc([H])c([C@@]([H])(F)N([H])C([H])([H])c2sc([H])c([H])c2[H])c([H])c1[H]

$$$$
