
     RDKit          3D

 26 27  0  0  0  0  0  0  0  0999 V2000
    4.9525    1.7848   16.9799 H   0  0  0  0  0  0  0  0  0  0  0  0
    5.4068    1.2846   17.8338 C   0  0  0  0  0  0  0  0  0  0  0  0
    6.5616    0.6483   17.5868 N   0  0  0  0  0  0  0  0  0  0  0  0
    7.1690    0.0691   18.6220 C   0  0  0  0  0  0  0  0  0  0  0  0
    8.1023   -0.4535   18.4113 H   0  0  0  0  0  0  0  0  0  0  0  0
    6.6855    0.0922   19.9411 C   0  0  0  0  0  0  0  0  0  0  0  0
    7.5211   -0.5751   20.9721 C   0  0  0  0  0  0  0  0  0  0  0  0
    9.1456   -0.6184   20.8867 S   0  0  0  0  0  0  0  0  0  0  0  0
    6.6839   -1.5143   22.2149 S   0  0  0  0  0  0  0  0  0  0  0  0
    6.4414   -2.9799   21.2096 C   0  0  0  0  0  0  0  0  0  0  0  0
    5.7843   -2.7700   20.0777 N   0  0  0  0  0  0  0  0  0  0  0  0
    5.4676   -3.8135   19.3122 C   0  0  0  0  0  0  0  0  0  0  0  0
    4.8889   -3.5753   18.4284 H   0  0  0  0  0  0  0  0  0  0  0  0
    5.8024   -5.1309   19.6281 C   0  0  0  0  0  0  0  0  0  0  0  0
    5.5175   -5.9368   18.9655 H   0  0  0  0  0  0  0  0  0  0  0  0
    6.5261   -5.3660   20.7974 C   0  0  0  0  0  0  0  0  0  0  0  0
    6.8216   -6.3752   21.0875 H   0  0  0  0  0  0  0  0  0  0  0  0
    6.8739   -4.2638   21.5935 C   0  0  0  0  0  0  0  0  0  0  0  0
    7.8214   -4.3626   22.7482 C   0  0  0  0  0  0  0  0  0  0  0  0
    7.2413   -3.9176   23.8757 F   0  0  0  0  0  0  0  0  0  0  0  0
    8.9225   -3.6182   22.5384 F   0  0  0  0  0  0  0  0  0  0  0  0
    8.2457   -5.6196   22.9685 F   0  0  0  0  0  0  0  0  0  0  0  0
    5.4322    0.6891   20.1686 C   0  0  0  0  0  0  0  0  0  0  0  0
    4.9608    0.6656   21.1524 H   0  0  0  0  0  0  0  0  0  0  0  0
    4.7969    1.3160   19.0905 C   0  0  0  0  0  0  0  0  0  0  0  0
    3.8522    1.8345   19.2112 H   0  0  0  0  0  0  0  0  0  0  0  0
  1  2  1  0
  2  3  2  0
  3  4  1  0
  4  5  1  0
  4  6  2  0
  6  7  1  0
  7  8  2  0
  7  9  1  0
  9 10  1  0
 10 11  2  0
 11 12  1  0
 12 13  1  0
 12 14  2  0
 14 15  1  0
 14 16  1  0
 16 17  1  0
 16 18  2  0
 18 19  1  0
 19 20  1  0
 19 21  1  0
 19 22  1  0
  6 23  1  0
 23 24  1  0
 23 25  2  0
 25 26  1  0
 25  2  1  0
 18 10  1  0
M  END
>  <cnnaffinity>  (1) 
-4.73392

>  <filename>  (1) 
[H]c1nc([H])c(C(=S)Sc2nc([H])c([H])c([H])c2C(F)(F)F)c([H])c1[H]

$$$$
