
     RDKit          3D

 44 47  0  0  0  0  0  0  0  0999 V2000
    4.0553   -7.2148   23.9876 O   0  0  0  0  0  0  0  0  0  0  0  0
    4.8449   -6.4947   24.5780 C   0  0  0  0  0  0  0  0  0  0  0  0
    5.6800   -5.4609   23.8298 C   0  0  0  0  0  0  0  0  0  0  0  0
    5.0888   -4.9232   22.4919 C   0  0  0  0  0  0  0  0  0  0  0  0
    5.9692   -3.8825   21.8757 C   0  0  0  0  0  0  0  0  0  0  0  0
    5.7476   -2.6256   21.6272 N   0  0  0  0  0  0  0  0  0  0  0  0
    7.0113   -2.1730   21.2888 C   0  0  0  0  0  0  0  0  0  0  0  0
    7.3555   -0.7235   21.0496 C   0  0  0  0  0  0  0  0  0  0  0  0
    6.6239   -0.0163   19.9324 C   0  0  0  0  0  0  0  0  0  0  0  0
    5.4035    0.6370   20.1435 C   0  0  0  0  0  0  0  0  0  0  0  0
    4.7976    1.3031   19.0740 C   0  0  0  0  0  0  0  0  0  0  0  0
    5.4299    1.2948   17.8264 C   0  0  0  0  0  0  0  0  0  0  0  0
    6.5958    0.6701   17.5975 N   0  0  0  0  0  0  0  0  0  0  0  0
    7.1618    0.0395   18.6340 C   0  0  0  0  0  0  0  0  0  0  0  0
    8.1078   -0.4653   18.4378 H   0  0  0  0  0  0  0  0  0  0  0  0
    4.9785    1.7962   16.9709 H   0  0  0  0  0  0  0  0  0  0  0  0
    3.8550    1.8226   19.1935 H   0  0  0  0  0  0  0  0  0  0  0  0
    4.9578    0.6159   21.1389 H   0  0  0  0  0  0  0  0  0  0  0  0
    8.7879   -0.3020   21.3063 C   0  0  0  0  0  0  0  0  0  0  0  0
    7.7392    0.1097   22.2764 C   0  0  0  0  0  0  0  0  0  0  0  0
    7.7183   -0.3717   23.2488 H   0  0  0  0  0  0  0  0  0  0  0  0
    7.4538    1.1597   22.2786 H   0  0  0  0  0  0  0  0  0  0  0  0
    9.4738   -1.0818   21.6184 H   0  0  0  0  0  0  0  0  0  0  0  0
    9.2086    0.4724   20.6706 H   0  0  0  0  0  0  0  0  0  0  0  0
    7.9172   -3.1146   21.2559 N   0  0  0  0  0  0  0  0  0  0  0  0
    7.2279   -4.2484   21.6243 O   0  0  0  0  0  0  0  0  0  0  0  0
    4.1070   -4.4553   22.6355 H   0  0  0  0  0  0  0  0  0  0  0  0
    4.9858   -5.7425   21.7700 H   0  0  0  0  0  0  0  0  0  0  0  0
    5.8803   -4.6212   24.5030 H   0  0  0  0  0  0  0  0  0  0  0  0
    6.6534   -5.9334   23.6394 H   0  0  0  0  0  0  0  0  0  0  0  0
    5.0336   -6.5981   25.9483 N   0  0  0  0  0  0  0  0  0  0  0  0
    3.8828   -7.0600   26.7470 C   0  0  0  0  0  0  0  0  0  0  0  0
    4.3663   -7.6459   28.0646 C   0  0  0  0  0  0  0  0  0  0  0  0
    5.1221   -6.6975   28.8035 O   0  0  0  0  0  0  0  0  0  0  0  0
    6.3052   -6.3477   28.1053 C   0  0  0  0  0  0  0  0  0  0  0  0
    6.0318   -5.8046   26.6884 C   0  0  0  0  0  0  0  0  0  0  0  0
    5.7287   -4.7501   26.7809 H   0  0  0  0  0  0  0  0  0  0  0  0
    6.9839   -5.8253   26.1501 H   0  0  0  0  0  0  0  0  0  0  0  0
    6.9708   -7.2214   28.0659 H   0  0  0  0  0  0  0  0  0  0  0  0
    6.7969   -5.5699   28.7017 H   0  0  0  0  0  0  0  0  0  0  0  0
    4.9847   -8.5310   27.8551 H   0  0  0  0  0  0  0  0  0  0  0  0
    3.5128   -7.9388   28.6846 H   0  0  0  0  0  0  0  0  0  0  0  0
    3.3355   -7.8108   26.1677 H   0  0  0  0  0  0  0  0  0  0  0  0
    3.1998   -6.2202   26.9515 H   0  0  0  0  0  0  0  0  0  0  0  0
  1  2  2  0
  2  3  1  0
  3  4  1  0
  4  5  1  0
  5  6  2  0
  6  7  1  0
  7  8  1  0
  8  9  1  0
  9 10  2  0
 10 11  1  0
 11 12  2  0
 12 13  1  0
 13 14  2  0
 14 15  1  0
 12 16  1  0
 11 17  1  0
 10 18  1  0
  8 19  1  0
 19 20  1  0
 20 21  1  0
 20 22  1  0
 19 23  1  0
 19 24  1  0
  7 25  2  0
 25 26  1  0
  4 27  1  0
  4 28  1  0
  3 29  1  0
  3 30  1  0
  2 31  1  0
 31 32  1  0
 32 33  1  0
 33 34  1  0
 34 35  1  0
 35 36  1  0
 36 37  1  0
 36 38  1  0
 35 39  1  0
 35 40  1  0
 33 41  1  0
 33 42  1  0
 32 43  1  0
 32 44  1  0
 26  5  1  0
 36 31  1  0
 20  8  1  0
 14  9  1  0
M  END
>  <cnnaffinity>  (1) 
-4.96208

>  <filename>  (1) 
[H]c1nc([H])c(C2(c3noc(C([H])([H])C([H])([H])C(=O)N4C([H])([H])C([H])([H])OC([H])([H])C4([H])[H])n3)C([H])([H])C2([H])[H])c([H])c1[H]

$$$$
