
     RDKit          3D

 42 45  0  0  0  0  0  0  0  0999 V2000
    5.9257   -4.8812   30.2255 H   0  0  0  0  0  0  0  0  0  0  0  0
    6.5822   -5.3144   29.4717 C   0  0  0  0  0  0  0  0  0  0  0  0
    6.7407   -4.5913   28.3641 N   0  0  0  0  0  0  0  0  0  0  0  0
    7.5469   -5.0692   27.4073 C   0  0  0  0  0  0  0  0  0  0  0  0
    7.7014   -4.2899   26.2698 N   0  0  0  0  0  0  0  0  0  0  0  0
    6.9014   -3.0676   26.0758 C   0  0  0  0  0  0  0  0  0  0  0  0
    5.9461   -3.1540   26.5954 H   0  0  0  0  0  0  0  0  0  0  0  0
    7.4304   -2.2033   26.5073 H   0  0  0  0  0  0  0  0  0  0  0  0
    6.6660   -2.7976   24.5841 C   0  0  0  0  0  0  0  0  0  0  0  0
    6.1136   -1.8636   24.4534 H   0  0  0  0  0  0  0  0  0  0  0  0
    6.0501   -3.6021   24.1537 H   0  0  0  0  0  0  0  0  0  0  0  0
    7.9451   -2.6788   23.8797 N   0  0  0  0  0  0  0  0  0  0  0  0
    7.9543   -2.0472   22.6182 C   0  0  0  0  0  0  0  0  0  0  0  0
    9.0507   -1.4627   22.0779 C   0  0  0  0  0  0  0  0  0  0  0  0
   10.0460   -1.4474   22.5046 H   0  0  0  0  0  0  0  0  0  0  0  0
    8.7761   -0.8097   20.8637 N   0  0  0  0  0  0  0  0  0  0  0  0
    9.1017    0.1584   20.8148 H   0  0  0  0  0  0  0  0  0  0  0  0
    7.3729   -0.8683   20.7463 N   0  0  0  0  0  0  0  0  0  0  0  0
    6.7188   -0.0783   19.7630 C   0  0  0  0  0  0  0  0  0  0  0  0
    7.2652    0.0694   18.4683 C   0  0  0  0  0  0  0  0  0  0  0  0
    8.2260   -0.3876   18.2348 H   0  0  0  0  0  0  0  0  0  0  0  0
    6.6540    0.7345   17.4828 N   0  0  0  0  0  0  0  0  0  0  0  0
    5.4813    1.3285   17.7627 C   0  0  0  0  0  0  0  0  0  0  0  0
    5.0111    1.8663   16.9430 H   0  0  0  0  0  0  0  0  0  0  0  0
    4.8821    1.2860   19.0258 C   0  0  0  0  0  0  0  0  0  0  0  0
    3.9555    1.8229   19.1958 H   0  0  0  0  0  0  0  0  0  0  0  0
    5.5069    0.5701   20.0513 C   0  0  0  0  0  0  0  0  0  0  0  0
    5.0875    0.5252   21.0561 H   0  0  0  0  0  0  0  0  0  0  0  0
    6.8106   -1.7589   21.6763 C   0  0  0  0  0  0  0  0  0  0  0  0
    5.6629   -2.1740   21.6261 O   0  0  0  0  0  0  0  0  0  0  0  0
    8.7554   -3.8945   24.0574 C   0  0  0  0  0  0  0  0  0  0  0  0
    8.2549   -4.7669   23.6064 H   0  0  0  0  0  0  0  0  0  0  0  0
    9.7166   -3.7589   23.5501 H   0  0  0  0  0  0  0  0  0  0  0  0
    8.9841   -4.1682   25.5552 C   0  0  0  0  0  0  0  0  0  0  0  0
    9.5651   -3.3300   25.9706 H   0  0  0  0  0  0  0  0  0  0  0  0
    9.5954   -5.0659   25.6676 H   0  0  0  0  0  0  0  0  0  0  0  0
    8.1650   -6.3338   27.5091 C   0  0  0  0  0  0  0  0  0  0  0  0
    8.7438   -6.6827   26.6633 H   0  0  0  0  0  0  0  0  0  0  0  0
    7.9812   -7.0798   28.6692 C   0  0  0  0  0  0  0  0  0  0  0  0
    8.4272   -8.0707   28.7945 H   0  0  0  0  0  0  0  0  0  0  0  0
    7.1866   -6.5475   29.6900 C   0  0  0  0  0  0  0  0  0  0  0  0
    7.0387   -7.0697   30.6255 H   0  0  0  0  0  0  0  0  0  0  0  0
  1  2  1  0
  2  3  2  0
  3  4  1  0
  4  5  1  0
  5  6  1  0
  6  7  1  0
  6  8  1  0
  6  9  1  0
  9 10  1  0
  9 11  1  0
  9 12  1  0
 12 13  1  0
 13 14  2  0
 14 15  1  0
 14 16  1  0
 16 17  1  0
 16 18  1  0
 18 19  1  0
 19 20  2  0
 20 21  1  0
 20 22  1  0
 22 23  2  0
 23 24  1  0
 23 25  1  0
 25 26  1  0
 25 27  2  0
 27 28  1  0
 18 29  1  0
 29 30  2  0
 12 31  1  0
 31 32  1  0
 31 33  1  0
 31 34  1  0
 34 35  1  0
 34 36  1  0
  4 37  2  0
 37 38  1  0
 37 39  1  0
 39 40  1  0
 39 41  2  0
 41 42  1  0
 41  2  1  0
 34  5  1  0
 29 13  1  0
 27 19  1  0
M  END
>  <cnnaffinity>  (1) 
-5.35907

>  <filename>  (1) 
[H]c1nc(N2C([H])([H])C([H])([H])N(c3c([H])n([H])n(-c4c([H])nc([H])c([H])c4[H])c3=O)C([H])([H])C2([H])[H])c([H])c([H])c1[H]

$$$$
