
     RDKit          3D

 34 36  0  0  0  0  0  0  0  0999 V2000
    4.9367    1.8217   16.9760 H   0  0  0  0  0  0  0  0  0  0  0  0
    5.4048    1.3024   17.8122 C   0  0  0  0  0  0  0  0  0  0  0  0
    6.5523    0.6595   17.5459 N   0  0  0  0  0  0  0  0  0  0  0  0
    7.1669    0.0356   18.5608 C   0  0  0  0  0  0  0  0  0  0  0  0
    8.1038   -0.4565   18.3215 H   0  0  0  0  0  0  0  0  0  0  0  0
    6.6694   -0.0020   19.8807 C   0  0  0  0  0  0  0  0  0  0  0  0
    7.3439   -0.7064   20.9643 N   0  0  0  0  0  0  0  0  0  0  0  0
    6.6540   -1.7082   21.6133 C   0  0  0  0  0  0  0  0  0  0  0  0
    5.6536   -1.9208   21.2352 H   0  0  0  0  0  0  0  0  0  0  0  0
    7.1994   -2.3892   22.6509 C   0  0  0  0  0  0  0  0  0  0  0  0
    6.5374   -3.5512   23.2269 C   0  0  0  0  0  0  0  0  0  0  0  0
    5.8215   -4.2643   22.5395 O   0  0  0  0  0  0  0  0  0  0  0  0
    6.7408   -3.7258   24.5641 N   0  0  0  0  0  0  0  0  0  0  0  0
    7.6486   -3.4077   24.8880 H   0  0  0  0  0  0  0  0  0  0  0  0
    6.0684   -4.6528   25.3333 C   0  0  0  0  0  0  0  0  0  0  0  0
    6.6938   -5.2205   26.4382 C   0  0  0  0  0  0  0  0  0  0  0  0
    7.6970   -4.9271   26.7221 H   0  0  0  0  0  0  0  0  0  0  0  0
    5.9969   -6.1928   27.1514 C   0  0  0  0  0  0  0  0  0  0  0  0
    6.4652   -6.6885   27.9989 H   0  0  0  0  0  0  0  0  0  0  0  0
    4.7511   -6.5854   26.8636 N   0  0  0  0  0  0  0  0  0  0  0  0
    4.1624   -5.9929   25.8171 C   0  0  0  0  0  0  0  0  0  0  0  0
    3.1524   -6.3210   25.5890 H   0  0  0  0  0  0  0  0  0  0  0  0
    4.7646   -5.0319   25.0217 C   0  0  0  0  0  0  0  0  0  0  0  0
    4.2614   -4.6093   24.1694 H   0  0  0  0  0  0  0  0  0  0  0  0
    8.5081   -2.0738   23.1305 C   0  0  0  0  0  0  0  0  0  0  0  0
    9.0812   -2.5603   24.0948 O   0  0  0  0  0  0  0  0  0  0  0  0
    9.1617   -1.1438   22.3816 N   0  0  0  0  0  0  0  0  0  0  0  0
   10.0954   -0.9332   22.6517 H   0  0  0  0  0  0  0  0  0  0  0  0
    8.6738   -0.3935   21.3560 C   0  0  0  0  0  0  0  0  0  0  0  0
    9.3646    0.4534   20.8439 O   0  0  0  0  0  0  0  0  0  0  0  0
    5.4515    0.6435   20.1325 C   0  0  0  0  0  0  0  0  0  0  0  0
    5.0220    0.6282   21.1375 H   0  0  0  0  0  0  0  0  0  0  0  0
    4.8170    1.3183   19.0815 C   0  0  0  0  0  0  0  0  0  0  0  0
    3.8843    1.8525   19.2357 H   0  0  0  0  0  0  0  0  0  0  0  0
  1  2  1  0
  2  3  2  0
  3  4  1  0
  4  5  1  0
  4  6  2  0
  6  7  1  0
  7  8  1  0
  8  9  1  0
  8 10  2  0
 10 11  1  0
 11 12  2  0
 11 13  1  0
 13 14  1  0
 13 15  1  0
 15 16  2  0
 16 17  1  0
 16 18  1  0
 18 19  1  0
 18 20  2  0
 20 21  1  0
 21 22  1  0
 21 23  2  0
 23 24  1  0
 10 25  1  0
 25 26  2  0
 25 27  1  0
 27 28  1  0
 27 29  1  0
 29 30  2  0
  6 31  1  0
 31 32  1  0
 31 33  2  0
 33 34  1  0
 33  2  1  0
 29  7  1  0
 23 15  1  0
M  END
>  <cnnaffinity>  (1) 
-5.29346

>  <filename>  (1) 
[H]c1nc([H])c(-n2c([H])c(C(=O)N([H])c3c([H])c([H])nc([H])c3[H])c(=O)n([H])c2=O)c([H])c1[H]

$$$$
