
     RDKit          3D

 36 38  0  0  0  0  0  0  0  0999 V2000
    8.0003    0.5948   24.8332 H   0  0  0  0  0  0  0  0  0  0  0  0
    7.6320    1.3620   24.1495 C   0  0  0  0  0  0  0  0  0  0  0  0
    7.3933    0.9683   22.7672 C   0  0  0  0  0  0  0  0  0  0  0  0
    6.9975    1.7290   22.0948 H   0  0  0  0  0  0  0  0  0  0  0  0
    7.6336   -0.2719   22.2908 C   0  0  0  0  0  0  0  0  0  0  0  0
    7.3713   -0.7756   20.9264 C   0  0  0  0  0  0  0  0  0  0  0  0
    6.6155   -0.0198   19.8985 C   0  0  0  0  0  0  0  0  0  0  0  0
    7.1460    0.0057   18.6021 C   0  0  0  0  0  0  0  0  0  0  0  0
    8.0727   -0.5213   18.3875 H   0  0  0  0  0  0  0  0  0  0  0  0
    6.5852    0.6560   17.5787 N   0  0  0  0  0  0  0  0  0  0  0  0
    5.4315    1.2999   17.8134 C   0  0  0  0  0  0  0  0  0  0  0  0
    4.9964    1.8320   16.9694 H   0  0  0  0  0  0  0  0  0  0  0  0
    4.7966    1.3076   19.0589 C   0  0  0  0  0  0  0  0  0  0  0  0
    3.8653    1.8461   19.1815 H   0  0  0  0  0  0  0  0  0  0  0  0
    5.3988    0.6431   20.1270 C   0  0  0  0  0  0  0  0  0  0  0  0
    4.9301    0.6397   21.1139 H   0  0  0  0  0  0  0  0  0  0  0  0
    7.8757   -1.9284   20.6900 N   0  0  0  0  0  0  0  0  0  0  0  0
    8.4823   -2.4610   21.9134 C   0  0  0  0  0  0  0  0  0  0  0  0
    9.5382   -2.6728   21.7233 H   0  0  0  0  0  0  0  0  0  0  0  0
    7.9962   -3.4078   22.1644 H   0  0  0  0  0  0  0  0  0  0  0  0
    8.2991   -1.4088   23.0357 C   0  0  0  0  0  0  0  0  0  0  0  0
    9.2592   -1.1152   23.4791 H   0  0  0  0  0  0  0  0  0  0  0  0
    7.6516   -1.7942   23.8326 H   0  0  0  0  0  0  0  0  0  0  0  0
    7.4842    2.6198   24.5890 C   0  0  0  0  0  0  0  0  0  0  0  0
    7.2162    3.3821   23.8537 H   0  0  0  0  0  0  0  0  0  0  0  0
    7.6120    3.0929   25.9828 C   0  0  0  0  0  0  0  0  0  0  0  0
    7.6926    4.4829   26.2134 C   0  0  0  0  0  0  0  0  0  0  0  0
    7.8449    5.1526   25.3695 H   0  0  0  0  0  0  0  0  0  0  0  0
    7.5865    5.0044   27.5038 C   0  0  0  0  0  0  0  0  0  0  0  0
    7.6237    6.0826   27.6633 H   0  0  0  0  0  0  0  0  0  0  0  0
    7.4000    4.1367   28.5859 C   0  0  0  0  0  0  0  0  0  0  0  0
    7.2181    4.5344   29.5812 H   0  0  0  0  0  0  0  0  0  0  0  0
    7.4407    2.7496   28.3913 C   0  0  0  0  0  0  0  0  0  0  0  0
    7.3494    2.0797   29.2446 H   0  0  0  0  0  0  0  0  0  0  0  0
    7.5665    2.2299   27.0992 C   0  0  0  0  0  0  0  0  0  0  0  0
    7.6452    1.1526   26.9634 H   0  0  0  0  0  0  0  0  0  0  0  0
  1  2  1  0
  2  3  1  0
  3  4  1  0
  3  5  2  3
  5  6  1  0
  6  7  1  0
  7  8  2  0
  8  9  1  0
  8 10  1  0
 10 11  2  0
 11 12  1  0
 11 13  1  0
 13 14  1  0
 13 15  2  0
 15 16  1  0
  6 17  2  0
 17 18  1  0
 18 19  1  0
 18 20  1  0
 18 21  1  0
 21 22  1  0
 21 23  1  0
  2 24  2  3
 24 25  1  0
 24 26  1  0
 26 27  2  0
 27 28  1  0
 27 29  1  0
 29 30  1  0
 29 31  2  0
 31 32  1  0
 31 33  1  0
 33 34  1  0
 33 35  2  0
 35 36  1  0
 21  5  1  0
 35 26  1  0
 15  7  1  0
M  END
>  <cnnaffinity>  (1) 
-5.1103

>  <filename>  (1) 
[H]C(C([H])=C1C(c2c([H])nc([H])c([H])c2[H])=NC([H])([H])C1([H])[H])=C([H])c1c([H])c([H])c([H])c([H])c1[H]

$$$$
