
     RDKit          3D

 26 28  0  0  0  0  0  0  0  0999 V2000
    6.8526   -5.0463   23.1672 H   0  0  0  0  0  0  0  0  0  0  0  0
    7.7177   -4.4095   23.0614 C   0  0  0  0  0  0  0  0  0  0  0  0
    8.8932   -4.6805   23.6957 N   0  0  0  0  0  0  0  0  0  0  0  0
    9.6557   -3.6933   23.3105 C   0  0  0  0  0  0  0  0  0  0  0  0
   10.6928   -3.5294   23.5961 H   0  0  0  0  0  0  0  0  0  0  0  0
    8.9814   -2.8706   22.4688 N   0  0  0  0  0  0  0  0  0  0  0  0
    9.4259   -1.7201   21.8097 C   0  0  0  0  0  0  0  0  0  0  0  0
    8.7114   -0.7673   21.1057 C   0  0  0  0  0  0  0  0  0  0  0  0
    7.3251   -0.6923   20.9460 N   0  0  0  0  0  0  0  0  0  0  0  0
    6.7641   -1.1087   21.6843 H   0  0  0  0  0  0  0  0  0  0  0  0
    6.6681   -0.0061   19.9160 C   0  0  0  0  0  0  0  0  0  0  0  0
    7.1753    0.0613   18.5925 C   0  0  0  0  0  0  0  0  0  0  0  0
    8.1215   -0.4316   18.3746 H   0  0  0  0  0  0  0  0  0  0  0  0
    6.5635    0.6821   17.5745 N   0  0  0  0  0  0  0  0  0  0  0  0
    5.3980    1.2963   17.8393 C   0  0  0  0  0  0  0  0  0  0  0  0
    4.9086    1.7805   16.9975 H   0  0  0  0  0  0  0  0  0  0  0  0
    4.8111    1.3074   19.1119 C   0  0  0  0  0  0  0  0  0  0  0  0
    3.8765    1.8413   19.2663 H   0  0  0  0  0  0  0  0  0  0  0  0
    5.4469    0.6369   20.1633 C   0  0  0  0  0  0  0  0  0  0  0  0
    5.0169    0.6246   21.1669 H   0  0  0  0  0  0  0  0  0  0  0  0
    9.6918    0.1466   20.6684 C   0  0  0  0  0  0  0  0  0  0  0  0
    9.5136    1.0342   20.0842 H   0  0  0  0  0  0  0  0  0  0  0  0
   10.9076   -0.1859   21.0767 N   0  0  0  0  0  0  0  0  0  0  0  0
   10.7259   -1.3250   21.7664 N   0  0  0  0  0  0  0  0  0  0  0  0
   11.5409   -1.7591   22.1675 H   0  0  0  0  0  0  0  0  0  0  0  0
    7.7091   -3.3271   22.3143 N   0  0  0  0  0  0  0  0  0  0  0  0
  1  2  1  0
  2  3  1  0
  3  4  2  0
  4  5  1  0
  4  6  1  0
  6  7  1  0
  7  8  2  0
  8  9  1  0
  9 10  1  0
  9 11  1  0
 11 12  2  0
 12 13  1  0
 12 14  1  0
 14 15  2  0
 15 16  1  0
 15 17  1  0
 17 18  1  0
 17 19  2  0
 19 20  1  0
  8 21  1  0
 21 22  1  0
 21 23  2  0
 23 24  1  0
 24 25  1  0
  6 26  1  0
 26  2  2  0
 24  7  1  0
 19 11  1  0
M  END
>  <cnnaffinity>  (1) 
-5.3998

>  <filename>  (1) 
[H]c1nc([H])n(-c2c(N([H])c3c([H])nc([H])c([H])c3[H])c([H])nn2[H])n1

$$$$
