
     RDKit          3D

 42 46  0  0  0  0  0  0  0  0999 V2000
   14.1316   -1.5995   21.7260 C   0  0  0  0  0  0  0  0  0  0  0  0
   13.4650   -0.3176   22.0503 C   0  0  0  0  0  0  0  0  0  0  0  0
   12.2014   -0.0921   21.9643 N   0  0  0  0  0  0  0  0  0  0  0  0
   12.0699    1.2581   22.2726 C   0  0  0  0  0  0  0  0  0  0  0  0
   10.9447    2.1004   22.3836 C   0  0  0  0  0  0  0  0  0  0  0  0
    9.6173    1.5024   22.2482 C   0  0  0  0  0  0  0  0  0  0  0  0
    9.2858    0.6186   21.3261 N   0  0  0  0  0  0  0  0  0  0  0  0
    8.0133    0.3030   21.6323 C   0  0  0  0  0  0  0  0  0  0  0  0
    7.2747   -0.7128   20.8136 C   0  0  0  0  0  0  0  0  0  0  0  0
    6.5481   -0.0655   19.6476 C   0  0  0  0  0  0  0  0  0  0  0  0
    5.3841    0.6731   19.8924 C   0  0  0  0  0  0  0  0  0  0  0  0
    4.7846    1.3531   18.8308 C   0  0  0  0  0  0  0  0  0  0  0  0
    5.3850    1.2907   17.5693 C   0  0  0  0  0  0  0  0  0  0  0  0
    6.5033    0.5931   17.3138 N   0  0  0  0  0  0  0  0  0  0  0  0
    7.0599   -0.0637   18.3396 C   0  0  0  0  0  0  0  0  0  0  0  0
    7.9718   -0.6216   18.1170 H   0  0  0  0  0  0  0  0  0  0  0  0
    4.9592    1.8332   16.7275 H   0  0  0  0  0  0  0  0  0  0  0  0
    3.8835    1.9407   18.9709 H   0  0  0  0  0  0  0  0  0  0  0  0
    4.9751    0.7188   20.9044 H   0  0  0  0  0  0  0  0  0  0  0  0
    8.0351   -1.4172   20.4617 H   0  0  0  0  0  0  0  0  0  0  0  0
    6.5752   -1.2428   21.4713 H   0  0  0  0  0  0  0  0  0  0  0  0
    7.5096    0.9520   22.6553 N   0  0  0  0  0  0  0  0  0  0  0  0
    8.5481    1.7322   23.0669 N   0  0  0  0  0  0  0  0  0  0  0  0
    8.3167    2.6040   24.1959 C   0  0  0  0  0  0  0  0  0  0  0  0
    9.3614    2.9170   25.2299 C   0  0  0  0  0  0  0  0  0  0  0  0
    8.2097    2.0203   25.5782 C   0  0  0  0  0  0  0  0  0  0  0  0
    7.4143    2.3764   26.2278 H   0  0  0  0  0  0  0  0  0  0  0  0
    8.4434    0.9682   25.6885 H   0  0  0  0  0  0  0  0  0  0  0  0
    9.3938    3.9286   25.6311 H   0  0  0  0  0  0  0  0  0  0  0  0
   10.3265    2.4295   25.1237 H   0  0  0  0  0  0  0  0  0  0  0  0
    7.6042    3.3862   23.9572 H   0  0  0  0  0  0  0  0  0  0  0  0
   11.1742    3.4640   22.6565 C   0  0  0  0  0  0  0  0  0  0  0  0
   12.4728    3.9721   22.7998 C   0  0  0  0  0  0  0  0  0  0  0  0
   13.5900    3.1220   22.7670 C   0  0  0  0  0  0  0  0  0  0  0  0
   13.3385    1.7784   22.5408 C   0  0  0  0  0  0  0  0  0  0  0  0
   14.2382    0.7463   22.4235 O   0  0  0  0  0  0  0  0  0  0  0  0
   14.6079    3.4814   22.8441 H   0  0  0  0  0  0  0  0  0  0  0  0
   12.6124    5.0364   22.9734 H   0  0  0  0  0  0  0  0  0  0  0  0
   10.3278    4.1334   22.7860 H   0  0  0  0  0  0  0  0  0  0  0  0
   14.7640   -1.5005   20.8400 H   0  0  0  0  0  0  0  0  0  0  0  0
   13.3532   -2.3343   21.5208 H   0  0  0  0  0  0  0  0  0  0  0  0
   14.7454   -1.9162   22.5664 H   0  0  0  0  0  0  0  0  0  0  0  0
  1  2  1  0
  2  3  2  0
  3  4  1  0
  4  5  2  0
  5  6  1  0
  6  7  2  0
  7  8  1  0
  8  9  1  0
  9 10  1  0
 10 11  2  0
 11 12  1  0
 12 13  2  0
 13 14  1  0
 14 15  2  0
 15 16  1  0
 13 17  1  0
 12 18  1  0
 11 19  1  0
  9 20  1  0
  9 21  1  0
  8 22  2  0
 22 23  1  0
 23 24  1  0
 24 25  1  0
 25 26  1  0
 26 27  1  0
 26 28  1  0
 25 29  1  0
 25 30  1  0
 24 31  1  0
  5 32  1  0
 32 33  2  0
 33 34  1  0
 34 35  2  0
 35 36  1  0
 34 37  1  0
 33 38  1  0
 32 39  1  0
  1 40  1  0
  1 41  1  0
  1 42  1  0
 36  2  1  0
 35  4  1  0
 23  6  1  0
 26 24  1  0
 15 10  1  0
M  END
>  <cnnaffinity>  (1) 
-6.51222

>  <filename>  (1) 
[H]c1nc([H])c(C([H])([H])c2nc(-c3c([H])c([H])c([H])c4oc(C([H])([H])[H])nc34)n(C3([H])C([H])([H])C3([H])[H])n2)c([H])c1[H]

$$$$
