
     RDKit          3D

 29 30  0  0  0  0  0  0  0  0999 V2000
    7.5982   -5.1466   20.8456 H   0  0  0  0  0  0  0  0  0  0  0  0
    7.9492   -4.6012   21.7210 C   0  0  0  0  0  0  0  0  0  0  0  0
    7.7135   -3.3004   21.7306 N   0  0  0  0  0  0  0  0  0  0  0  0
    8.2120   -2.6496   22.7628 C   0  0  0  0  0  0  0  0  0  0  0  0
    7.9359   -1.3529   22.9517 N   0  0  0  0  0  0  0  0  0  0  0  0
    8.5848   -0.9662   23.5955 H   0  0  0  0  0  0  0  0  0  0  0  0
    7.6300   -0.4691   21.9721 C   0  0  0  0  0  0  0  0  0  0  0  0
    7.3558   -0.7369   20.7772 N   0  0  0  0  0  0  0  0  0  0  0  0
    6.7053    0.0882   19.8461 C   0  0  0  0  0  0  0  0  0  0  0  0
    7.1853    0.1467   18.5091 C   0  0  0  0  0  0  0  0  0  0  0  0
    8.1124   -0.3696   18.2567 H   0  0  0  0  0  0  0  0  0  0  0  0
    6.5658    0.7801   17.5078 N   0  0  0  0  0  0  0  0  0  0  0  0
    5.4004    1.3981   17.7813 C   0  0  0  0  0  0  0  0  0  0  0  0
    4.9216    1.9054   16.9455 H   0  0  0  0  0  0  0  0  0  0  0  0
    4.8198    1.3884   19.0503 C   0  0  0  0  0  0  0  0  0  0  0  0
    3.8738    1.8922   19.2118 H   0  0  0  0  0  0  0  0  0  0  0  0
    5.4774    0.7223   20.0967 C   0  0  0  0  0  0  0  0  0  0  0  0
    5.0267    0.6417   21.0854 H   0  0  0  0  0  0  0  0  0  0  0  0
    7.7528    0.7530   22.5753 N   0  0  0  0  0  0  0  0  0  0  0  0
    7.3333    1.4690   22.0031 H   0  0  0  0  0  0  0  0  0  0  0  0
    7.3479    0.6458   23.4930 H   0  0  0  0  0  0  0  0  0  0  0  0
    8.9640   -3.1405   23.7398 N   0  0  0  0  0  0  0  0  0  0  0  0
    9.1514   -4.4672   23.7552 C   0  0  0  0  0  0  0  0  0  0  0  0
    9.9833   -5.0707   24.9403 C   0  0  0  0  0  0  0  0  0  0  0  0
    9.7074   -4.4711   26.1045 F   0  0  0  0  0  0  0  0  0  0  0  0
    9.7221   -6.3852   25.1036 F   0  0  0  0  0  0  0  0  0  0  0  0
   11.3067   -4.9590   24.7284 F   0  0  0  0  0  0  0  0  0  0  0  0
    8.6240   -5.2726   22.7380 C   0  0  0  0  0  0  0  0  0  0  0  0
    8.7333   -6.3457   22.6906 H   0  0  0  0  0  0  0  0  0  0  0  0
  1  2  1  0
  2  3  2  0
  3  4  1  0
  4  5  1  0
  5  6  1  0
  5  7  1  0
  7  8  2  3
  8  9  1  0
  9 10  2  0
 10 11  1  0
 10 12  1  0
 12 13  2  0
 13 14  1  0
 13 15  1  0
 15 16  1  0
 15 17  2  0
 17 18  1  0
  7 19  1  0
 19 20  1  0
 19 21  1  0
  4 22  2  0
 22 23  1  0
 23 24  1  0
 24 25  1  0
 24 26  1  0
 24 27  1  0
 23 28  2  0
 28 29  1  0
 28  2  1  0
 17  9  1  0
M  END
>  <cnnaffinity>  (1) 
-5.10551

>  <filename>  (1) 
[H]c1nc(N([H])C(=Nc2c([H])nc([H])c([H])c2[H])N([H])[H])nc(C(F)(F)F)c1[H]

$$$$
