
     RDKit          3D

 40 41  0  0  0  0  0  0  0  0999 V2000
    2.6958    5.5881   22.8037 C   0  0  0  0  0  0  0  0  0  0  0  0
    3.5077    4.3785   21.8155 S   0  0  0  0  0  0  0  0  0  0  0  0
    3.0391    4.6269   20.4604 O   0  0  0  0  0  0  0  0  0  0  0  0
    3.2826    3.0763   22.4407 O   0  0  0  0  0  0  0  0  0  0  0  0
    5.2322    4.8014   22.0213 C   0  0  0  0  0  0  0  0  0  0  0  0
    5.7800    5.9359   21.4037 C   0  0  0  0  0  0  0  0  0  0  0  0
    7.1441    6.1886   21.5540 C   0  0  0  0  0  0  0  0  0  0  0  0
    7.9507    5.3293   22.3020 C   0  0  0  0  0  0  0  0  0  0  0  0
    7.3985    4.2004   22.9231 C   0  0  0  0  0  0  0  0  0  0  0  0
    8.2823    3.2095   23.6486 C   0  0  0  0  0  0  0  0  0  0  0  0
    8.8580    2.2613   22.7484 O   0  0  0  0  0  0  0  0  0  0  0  0
    7.8912    1.2471   22.4111 N   0  0  0  0  0  4  0  0  0  0  0  0
    8.4008    0.2695   21.6218 C   0  0  0  0  0  0  0  0  0  0  0  0
    9.7052    0.0842   21.4607 N   0  0  0  0  0  0  0  0  0  0  0  0
   10.2656    0.8640   21.7973 H   0  0  0  0  0  0  0  0  0  0  0  0
   10.0007   -0.3471   20.5918 H   0  0  0  0  0  0  0  0  0  0  0  0
    7.4039   -0.6293   20.9925 C   0  0  0  0  0  0  0  0  0  0  0  0
    6.6277    0.0416   19.8516 C   0  0  0  0  0  0  0  0  0  0  0  0
    5.4596    0.7777   20.0952 C   0  0  0  0  0  0  0  0  0  0  0  0
    4.8447    1.4487   19.0318 C   0  0  0  0  0  0  0  0  0  0  0  0
    5.4228    1.3588   17.7637 C   0  0  0  0  0  0  0  0  0  0  0  0
    6.5350    0.6549   17.5035 N   0  0  0  0  0  0  0  0  0  0  0  0
    7.1122    0.0228   18.5298 C   0  0  0  0  0  0  0  0  0  0  0  0
    8.0231   -0.5282   18.2906 H   0  0  0  0  0  0  0  0  0  0  0  0
    4.9817    1.8843   16.9197 H   0  0  0  0  0  0  0  0  0  0  0  0
    3.9635    2.0646   19.1787 H   0  0  0  0  0  0  0  0  0  0  0  0
    5.0202    0.8243   21.0977 H   0  0  0  0  0  0  0  0  0  0  0  0
    7.9094   -1.5353   20.6362 H   0  0  0  0  0  0  0  0  0  0  0  0
    6.7015   -0.9723   21.7681 H   0  0  0  0  0  0  0  0  0  0  0  0
    7.1623    1.6905   21.8306 H   0  0  0  0  0  0  0  0  0  0  0  0
    7.7235    2.6774   24.4318 H   0  0  0  0  0  0  0  0  0  0  0  0
    9.1443    3.7075   24.1018 H   0  0  0  0  0  0  0  0  0  0  0  0
    6.0319    3.9434   22.7799 C   0  0  0  0  0  0  0  0  0  0  0  0
    5.5817    3.0690   23.2493 H   0  0  0  0  0  0  0  0  0  0  0  0
    9.0112    5.5324   22.4250 H   0  0  0  0  0  0  0  0  0  0  0  0
    7.5911    7.0501   21.0714 H   0  0  0  0  0  0  0  0  0  0  0  0
    5.1839    6.5986   20.7801 H   0  0  0  0  0  0  0  0  0  0  0  0
    1.6362    5.3729   22.6911 H   0  0  0  0  0  0  0  0  0  0  0  0
    2.9421    6.5705   22.4034 H   0  0  0  0  0  0  0  0  0  0  0  0
    3.0147    5.4843   23.8355 H   0  0  0  0  0  0  0  0  0  0  0  0
  1  2  1  0
  2  3  2  0
  2  4  2  0
  2  5  1  0
  5  6  2  0
  6  7  1  0
  7  8  2  0
  8  9  1  0
  9 10  1  0
 10 11  1  0
 11 12  1  0
 12 13  2  3
 13 14  1  0
 14 15  1  0
 14 16  1  0
 13 17  1  0
 17 18  1  0
 18 19  2  0
 19 20  1  0
 20 21  2  0
 21 22  1  0
 22 23  2  0
 23 24  1  0
 21 25  1  0
 20 26  1  0
 19 27  1  0
 17 28  1  0
 17 29  1  0
 12 30  1  0
 10 31  1  0
 10 32  1  0
  9 33  2  0
 33 34  1  0
  8 35  1  0
  7 36  1  0
  6 37  1  0
  1 38  1  0
  1 39  1  0
  1 40  1  0
 33  5  1  0
 23 18  1  0
M  CHG  1  12   1
M  END
>  <cnnaffinity>  (1) 
-4.61812

>  <filename>  (1) 
[H]c1nc([H])c(C([H])([H])C(N([H])[H])=[N+]([H])OC([H])([H])c2c([H])c([H])c([H])c(S(=O)(=O)C([H])([H])[H])c2[H])c([H])c1[H]

$$$$
