
     RDKit          3D

 28 29  0  0  0  0  0  0  0  0999 V2000
    4.9073    1.7711   17.0067 H   0  0  0  0  0  0  0  0  0  0  0  0
    5.4019    1.2895   17.8481 C   0  0  0  0  0  0  0  0  0  0  0  0
    6.5698    0.6785   17.5861 N   0  0  0  0  0  0  0  0  0  0  0  0
    7.1799    0.0630   18.5989 C   0  0  0  0  0  0  0  0  0  0  0  0
    8.1305   -0.4342   18.3804 H   0  0  0  0  0  0  0  0  0  0  0  0
    6.6533   -0.0013   19.9033 C   0  0  0  0  0  0  0  0  0  0  0  0
    7.4052   -0.6977   20.9675 C   0  0  0  0  0  0  0  0  0  0  0  0
    9.0319   -0.6786   21.0166 S   0  0  0  0  0  0  0  0  0  0  0  0
    6.6280   -1.3783   22.0857 C   0  0  0  0  0  0  0  0  0  0  0  0
    5.6344   -1.6956   21.7401 H   0  0  0  0  0  0  0  0  0  0  0  0
    7.1758   -2.2711   22.3992 H   0  0  0  0  0  0  0  0  0  0  0  0
    6.5048   -0.4694   23.2264 C   0  0  0  0  0  0  0  0  0  0  0  0
    6.3863    0.2911   24.1550 C   0  0  0  0  0  0  0  0  0  0  0  0
    6.2502    1.1962   25.2622 C   0  0  0  0  0  0  0  0  0  0  0  0
    5.7277    2.4877   25.0629 C   0  0  0  0  0  0  0  0  0  0  0  0
    5.4268    2.8000   24.0663 H   0  0  0  0  0  0  0  0  0  0  0  0
    5.5976    3.3670   26.1409 C   0  0  0  0  0  0  0  0  0  0  0  0
    5.1943    4.3622   25.9796 H   0  0  0  0  0  0  0  0  0  0  0  0
    5.9864    2.9663   27.4236 C   0  0  0  0  0  0  0  0  0  0  0  0
    5.8843    3.6505   28.2592 H   0  0  0  0  0  0  0  0  0  0  0  0
    6.5066    1.6841   27.6305 C   0  0  0  0  0  0  0  0  0  0  0  0
    6.8090    1.3722   28.6259 H   0  0  0  0  0  0  0  0  0  0  0  0
    6.6390    0.8007   26.5562 C   0  0  0  0  0  0  0  0  0  0  0  0
    7.0439   -0.1949   26.7182 H   0  0  0  0  0  0  0  0  0  0  0  0
    5.4388    0.6474   20.1599 C   0  0  0  0  0  0  0  0  0  0  0  0
    5.0089    0.6321   21.1601 H   0  0  0  0  0  0  0  0  0  0  0  0
    4.8048    1.3127   19.1130 C   0  0  0  0  0  0  0  0  0  0  0  0
    3.8695    1.8468   19.2680 H   0  0  0  0  0  0  0  0  0  0  0  0
  1  2  1  0
  2  3  2  0
  3  4  1  0
  4  5  1  0
  4  6  2  0
  6  7  1  0
  7  8  2  0
  7  9  1  0
  9 10  1  0
  9 11  1  0
  9 12  1  0
 12 13  3  0
 13 14  1  0
 14 15  2  0
 15 16  1  0
 15 17  1  0
 17 18  1  0
 17 19  2  0
 19 20  1  0
 19 21  1  0
 21 22  1  0
 21 23  2  0
 23 24  1  0
  6 25  1  0
 25 26  1  0
 25 27  2  0
 27 28  1  0
 27  2  1  0
 23 14  1  0
M  END
>  <cnnaffinity>  (1) 
-4.81197

>  <filename>  (1) 
[H]c1nc([H])c(C(=S)C([H])([H])C#Cc2c([H])c([H])c([H])c([H])c2[H])c([H])c1[H]

$$$$
