
     RDKit          3D

 31 32  0  0  0  0  0  0  0  0999 V2000
    4.8594    1.8635   16.9259 H   0  0  0  0  0  0  0  0  0  0  0  0
    5.3810    1.3975   17.7618 C   0  0  0  0  0  0  0  0  0  0  0  0
    6.5584    0.8189   17.4661 N   0  0  0  0  0  0  0  0  0  0  0  0
    7.2076    0.2034   18.4640 C   0  0  0  0  0  0  0  0  0  0  0  0
    8.1539   -0.2791   18.2243 H   0  0  0  0  0  0  0  0  0  0  0  0
    6.7200    0.1287   19.7821 C   0  0  0  0  0  0  0  0  0  0  0  0
    7.6170   -0.8557   20.9716 S   0  0  0  0  0  0  0  0  0  0  0  0
    6.6912   -2.7237   20.7457 S   0  0  0  0  0  0  0  0  0  0  0  0
    5.3749   -2.7822   21.8364 N   0  0  0  0  0  0  0  0  0  0  0  0
    5.0866   -1.8178   22.0015 H   0  0  0  0  0  0  0  0  0  0  0  0
    5.5513   -3.5196   23.0994 C   0  0  0  0  0  0  0  0  0  0  0  0
    4.6616   -3.2742   23.7007 H   0  0  0  0  0  0  0  0  0  0  0  0
    5.5253   -5.0255   22.8076 C   0  0  0  0  0  0  0  0  0  0  0  0
    6.3510   -5.2576   22.1180 H   0  0  0  0  0  0  0  0  0  0  0  0
    4.5940   -5.2523   22.2803 H   0  0  0  0  0  0  0  0  0  0  0  0
    5.6986   -5.8747   24.0733 C   0  0  0  0  0  0  0  0  0  0  0  0
    4.8282   -5.7645   24.7365 H   0  0  0  0  0  0  0  0  0  0  0  0
    5.7193   -6.9287   23.7804 H   0  0  0  0  0  0  0  0  0  0  0  0
    6.9817   -5.4716   24.8230 C   0  0  0  0  0  0  0  0  0  0  0  0
    7.1256   -6.0876   25.7178 H   0  0  0  0  0  0  0  0  0  0  0  0
    7.8461   -5.6738   24.1718 H   0  0  0  0  0  0  0  0  0  0  0  0
    6.9917   -3.9713   25.1724 C   0  0  0  0  0  0  0  0  0  0  0  0
    7.9398   -3.7023   25.6520 H   0  0  0  0  0  0  0  0  0  0  0  0
    6.2065   -3.7481   25.9097 H   0  0  0  0  0  0  0  0  0  0  0  0
    6.8095   -3.1249   23.8996 C   0  0  0  0  0  0  0  0  0  0  0  0
    7.6867   -3.2932   23.2575 H   0  0  0  0  0  0  0  0  0  0  0  0
    6.7720   -2.0507   24.1167 H   0  0  0  0  0  0  0  0  0  0  0  0
    5.5177    0.7741   20.0878 C   0  0  0  0  0  0  0  0  0  0  0  0
    5.1405    0.8006   21.1092 H   0  0  0  0  0  0  0  0  0  0  0  0
    4.8261    1.3971   19.0430 C   0  0  0  0  0  0  0  0  0  0  0  0
    3.8628    1.8620   19.2057 H   0  0  0  0  0  0  0  0  0  0  0  0
  1  2  1  0
  2  3  2  0
  3  4  1  0
  4  5  1  0
  4  6  2  0
  6  7  1  0
  7  8  1  0
  8  9  1  0
  9 10  1  0
  9 11  1  0
 11 12  1  0
 11 13  1  0
 13 14  1  0
 13 15  1  0
 13 16  1  0
 16 17  1  0
 16 18  1  0
 16 19  1  0
 19 20  1  0
 19 21  1  0
 19 22  1  0
 22 23  1  0
 22 24  1  0
 22 25  1  0
 25 26  1  0
 25 27  1  0
  6 28  1  0
 28 29  1  0
 28 30  2  0
 30 31  1  0
 30  2  1  0
 25 11  1  0
M  END
>  <cnnaffinity>  (1) 
-4.45929

>  <filename>  (1) 
[H]c1nc([H])c(SSN([H])C2([H])C([H])([H])C([H])([H])C([H])([H])C([H])([H])C2([H])[H])c([H])c1[H]

$$$$
