
     RDKit          3D

 35 37  0  0  0  0  0  0  0  0999 V2000
    6.6858   -1.3686   21.6111 H   0  0  0  0  0  0  0  0  0  0  0  0
    7.3142   -0.7132   21.0033 C   0  0  0  0  0  0  0  0  0  0  0  0
    8.5997   -0.5253   21.3486 C   0  0  0  0  0  0  0  0  0  0  0  0
    9.3726   -1.1751   22.4106 C   0  0  0  0  0  0  0  0  0  0  0  0
    8.8694   -2.4042   23.1520 C   0  0  0  0  0  0  0  0  0  0  0  0
    7.9238   -3.1999   22.5887 N   0  0  0  0  0  0  0  0  0  0  0  0
    7.5632   -4.2935   23.2488 C   0  0  0  0  0  0  0  0  0  0  0  0
    6.6482   -5.1370   22.7270 O   0  0  0  0  0  0  0  0  0  0  0  0
    6.0502   -4.8543   21.4666 C   0  0  0  0  0  0  0  0  0  0  0  0
    5.3521   -5.6709   21.2843 H   0  0  0  0  0  0  0  0  0  0  0  0
    6.7846   -4.8212   20.6556 H   0  0  0  0  0  0  0  0  0  0  0  0
    5.4961   -3.9090   21.4721 H   0  0  0  0  0  0  0  0  0  0  0  0
    8.0817   -4.6611   24.5060 C   0  0  0  0  0  0  0  0  0  0  0  0
    7.7239   -5.5682   24.9766 H   0  0  0  0  0  0  0  0  0  0  0  0
    9.0248   -3.8374   25.0947 C   0  0  0  0  0  0  0  0  0  0  0  0
    9.4653   -4.0751   26.0668 H   0  0  0  0  0  0  0  0  0  0  0  0
    9.4210   -2.6850   24.4054 C   0  0  0  0  0  0  0  0  0  0  0  0
   10.1636   -2.0127   24.8086 H   0  0  0  0  0  0  0  0  0  0  0  0
   10.4900   -0.5845   22.6796 N   0  0  0  0  0  0  0  0  0  0  0  0
   10.6846    0.5365   21.7570 C   0  0  0  0  0  0  0  0  0  0  0  0
   11.6531    0.4274   21.2616 H   0  0  0  0  0  0  0  0  0  0  0  0
   10.7213    1.4685   22.3312 H   0  0  0  0  0  0  0  0  0  0  0  0
    9.4892    0.5420   20.7704 C   0  0  0  0  0  0  0  0  0  0  0  0
    8.9945    1.5146   20.6884 H   0  0  0  0  0  0  0  0  0  0  0  0
    9.7275    0.2366   19.7515 H   0  0  0  0  0  0  0  0  0  0  0  0
    6.6434   -0.0100   19.9009 C   0  0  0  0  0  0  0  0  0  0  0  0
    7.1626    0.0668   18.5908 C   0  0  0  0  0  0  0  0  0  0  0  0
    8.1060   -0.4274   18.3698 H   0  0  0  0  0  0  0  0  0  0  0  0
    6.5612    0.6868   17.5670 N   0  0  0  0  0  0  0  0  0  0  0  0
    5.3975    1.3018   17.8305 C   0  0  0  0  0  0  0  0  0  0  0  0
    4.9171    1.7904   16.9870 H   0  0  0  0  0  0  0  0  0  0  0  0
    4.7972    1.3145   19.0960 C   0  0  0  0  0  0  0  0  0  0  0  0
    3.8684    1.8493   19.2502 H   0  0  0  0  0  0  0  0  0  0  0  0
    5.4175    0.6362   20.1447 C   0  0  0  0  0  0  0  0  0  0  0  0
    5.0061    0.6233   21.1560 H   0  0  0  0  0  0  0  0  0  0  0  0
  1  2  1  0
  2  3  2  3
  3  4  1  0
  4  5  1  0
  5  6  2  0
  6  7  1  0
  7  8  1  0
  8  9  1  0
  9 10  1  0
  9 11  1  0
  9 12  1  0
  7 13  2  0
 13 14  1  0
 13 15  1  0
 15 16  1  0
 15 17  2  0
 17 18  1  0
  4 19  2  0
 19 20  1  0
 20 21  1  0
 20 22  1  0
 20 23  1  0
 23 24  1  0
 23 25  1  0
  2 26  1  0
 26 27  2  0
 27 28  1  0
 27 29  1  0
 29 30  2  0
 30 31  1  0
 30 32  1  0
 32 33  1  0
 32 34  2  0
 34 35  1  0
 23  3  1  0
 34 26  1  0
 17  5  1  0
M  END
>  <cnnaffinity>  (1) 
-5.47662

>  <filename>  (1) 
[H]C(=C1C(c2nc(OC([H])([H])[H])c([H])c([H])c2[H])=NC([H])([H])C1([H])[H])c1c([H])nc([H])c([H])c1[H]

$$$$
