
     RDKit          3D

 30 32  0  0  0  0  0  0  0  0999 V2000
    5.0341    1.8504   17.0676 H   0  0  0  0  0  0  0  0  0  0  0  0
    5.4962    1.2895   17.8767 C   0  0  0  0  0  0  0  0  0  0  0  0
    6.6552    0.6785   17.5892 N   0  0  0  0  0  0  0  0  0  0  0  0
    7.2442   -0.0075   18.5790 C   0  0  0  0  0  0  0  0  0  0  0  0
    8.1789   -0.5057   18.3329 H   0  0  0  0  0  0  0  0  0  0  0  0
    6.7151   -0.1436   19.8805 C   0  0  0  0  0  0  0  0  0  0  0  0
    7.3800   -0.9442   20.8837 N   0  0  0  0  0  0  0  0  0  0  0  0
    8.6175   -0.7061   21.4867 C   0  0  0  0  0  0  0  0  0  0  0  0
    9.4605    0.4644   21.1343 C   0  0  1  0  0  0  0  0  0  0  0  0
    9.5815    0.4897   20.0501 H   0  0  0  0  0  0  0  0  0  0  0  0
    8.7522    1.7428   21.6043 C   0  0  0  0  0  0  0  0  0  0  0  0
    7.9535    2.0390   20.9135 H   0  0  0  0  0  0  0  0  0  0  0  0
    8.2848    1.5606   22.5829 H   0  0  0  0  0  0  0  0  0  0  0  0
    9.8028    2.7286   21.7580 N   0  0  0  0  0  0  0  0  0  0  0  0
    9.7397    3.4761   21.0839 H   0  0  0  0  0  0  0  0  0  0  0  0
   11.1192    2.0896   21.7556 C   0  0  0  0  0  0  0  0  0  0  0  0
   11.7109    2.3601   20.8651 H   0  0  0  0  0  0  0  0  0  0  0  0
   11.6889    2.4234   22.6310 H   0  0  0  0  0  0  0  0  0  0  0  0
   10.8384    0.5800   21.8054 C   0  0  0  0  0  0  0  0  0  0  0  0
   10.7754    0.2392   22.8478 H   0  0  0  0  0  0  0  0  0  0  0  0
   11.6174    0.0054   21.2932 H   0  0  0  0  0  0  0  0  0  0  0  0
    8.8305   -1.5050   22.4840 N   0  0  0  0  0  0  0  0  0  0  0  0
    7.7240   -2.2933   22.5022 N   0  0  0  0  0  0  0  0  0  0  0  0
    7.5667   -3.0033   23.1980 H   0  0  0  0  0  0  0  0  0  0  0  0
    6.8097   -2.0250   21.5529 C   0  0  0  0  0  0  0  0  0  0  0  0
    5.4089   -2.8755   21.2792 S   0  0  0  0  0  0  0  0  0  0  0  0
    5.5067    0.5066   20.1685 C   0  0  0  0  0  0  0  0  0  0  0  0
    5.0652    0.4602   21.1681 H   0  0  0  0  0  0  0  0  0  0  0  0
    4.8921    1.2340   19.1382 C   0  0  0  0  0  0  0  0  0  0  0  0
    3.9657    1.7709   19.3091 H   0  0  0  0  0  0  0  0  0  0  0  0
  1  2  1  0
  2  3  2  0
  3  4  1  0
  4  5  1  0
  4  6  2  0
  6  7  1  0
  7  8  1  0
  8  9  1  0
  9 10  1  6
  9 11  1  0
 11 12  1  0
 11 13  1  0
 11 14  1  0
 14 15  1  0
 14 16  1  0
 16 17  1  0
 16 18  1  0
 16 19  1  0
 19 20  1  0
 19 21  1  0
  8 22  2  0
 22 23  1  0
 23 24  1  0
 23 25  1  0
 25 26  2  0
  6 27  1  0
 27 28  1  0
 27 29  2  0
 29 30  1  0
 29  2  1  0
 25  7  1  0
 19  9  1  0
M  END
>  <cnnaffinity>  (1) 
-4.85491

>  <filename>  (1) 
[H]c1nc([H])c(-n2c([C@@]3([H])C([H])([H])N([H])C([H])([H])C3([H])[H])nn([H])c2=S)c([H])c1[H]

$$$$
