
     RDKit          3D

 48 52  0  0  0  0  0  0  0  0999 V2000
    9.5298    0.4398   25.7055 C   0  0  0  0  0  0  0  0  0  0  0  0
    8.2428    0.7799   26.4091 C   0  0  0  0  0  0  0  0  0  0  0  0
    7.9816    0.2003   27.6566 C   0  0  0  0  0  0  0  0  0  0  0  0
    6.7922    0.4852   28.3248 C   0  0  0  0  0  0  0  0  0  0  0  0
    5.8648    1.3122   27.8320 N   0  0  0  0  0  0  0  0  0  0  0  0
    6.1145    1.8683   26.6420 C   0  0  0  0  0  0  0  0  0  0  0  0
    7.2638    1.6450   25.8679 C   0  0  0  0  0  0  0  0  0  0  0  0
    7.4242    2.3678   24.5197 C   0  0  0  0  0  0  0  0  0  0  0  0
    7.5304    1.5151   23.2804 C   0  0  0  0  0  0  0  0  0  0  0  0
    6.5455    0.7822   22.7797 N   0  0  0  0  0  0  0  0  0  0  0  0
    7.1011    0.2160   21.6781 C   0  0  0  0  0  0  0  0  0  0  0  0
    6.4141   -0.7329   20.7385 C   0  0  0  0  0  0  0  0  0  0  0  0
    5.9941   -0.0537   19.4388 C   0  0  0  0  0  0  0  0  0  0  0  0
    5.1366    1.0501   19.5258 C   0  0  0  0  0  0  0  0  0  0  0  0
    4.8468    1.7777   18.3733 C   0  0  0  0  0  0  0  0  0  0  0  0
    5.4269    1.3854   17.1680 C   0  0  0  0  0  0  0  0  0  0  0  0
    6.2212    0.3121   17.0484 N   0  0  0  0  0  0  0  0  0  0  0  0
    6.4868   -0.3863   18.1624 C   0  0  0  0  0  0  0  0  0  0  0  0
    7.1524   -1.2410   18.0298 H   0  0  0  0  0  0  0  0  0  0  0  0
    5.2654    1.9825   16.2719 H   0  0  0  0  0  0  0  0  0  0  0  0
    4.2013    2.6489   18.3991 H   0  0  0  0  0  0  0  0  0  0  0  0
    4.7323    1.3441   20.4966 H   0  0  0  0  0  0  0  0  0  0  0  0
    7.1130   -1.5531   20.5534 H   0  0  0  0  0  0  0  0  0  0  0  0
    5.5527   -1.1426   21.2713 H   0  0  0  0  0  0  0  0  0  0  0  0
    8.3496    0.5501   21.4559 N   0  0  0  0  0  0  0  0  0  0  0  0
    8.6273    1.4135   22.4708 N   0  0  0  0  0  0  0  0  0  0  0  0
    9.9969    1.7713   22.6419 C   0  0  0  0  0  0  0  0  0  0  0  0
   10.4020    3.1205   22.8354 C   0  0  0  0  0  0  0  0  0  0  0  0
   11.7470    3.4531   22.9229 C   0  0  0  0  0  0  0  0  0  0  0  0
   12.6804    2.4007   22.8494 C   0  0  0  0  0  0  0  0  0  0  0  0
   14.0348    2.3885   22.9239 N   0  0  0  0  0  0  0  0  0  0  0  0
   14.5482    1.1350   22.8900 N   0  0  0  0  0  0  0  0  0  0  0  0
   13.5198    0.3257   22.7457 C   0  0  0  0  0  0  0  0  0  0  0  0
   12.2936    1.0523   22.6960 C   0  0  0  0  0  0  0  0  0  0  0  0
   10.9244    0.7358   22.5665 C   0  0  0  0  0  0  0  0  0  0  0  0
   10.5770   -0.2792   22.3900 H   0  0  0  0  0  0  0  0  0  0  0  0
   13.6542   -0.7504   22.7103 H   0  0  0  0  0  0  0  0  0  0  0  0
   14.6453    3.1823   23.0699 H   0  0  0  0  0  0  0  0  0  0  0  0
   12.0818    4.4776   23.0326 H   0  0  0  0  0  0  0  0  0  0  0  0
    9.6504    3.9005   22.8842 H   0  0  0  0  0  0  0  0  0  0  0  0
    8.2860    3.0395   24.5767 H   0  0  0  0  0  0  0  0  0  0  0  0
    6.5534    3.0127   24.3535 H   0  0  0  0  0  0  0  0  0  0  0  0
    5.3399    2.5427   26.2716 H   0  0  0  0  0  0  0  0  0  0  0  0
    6.5682    0.0271   29.2891 H   0  0  0  0  0  0  0  0  0  0  0  0
    8.7113   -0.4725   28.0969 H   0  0  0  0  0  0  0  0  0  0  0  0
    9.3247   -0.1277   24.7917 H   0  0  0  0  0  0  0  0  0  0  0  0
   10.0941    1.3346   25.4231 H   0  0  0  0  0  0  0  0  0  0  0  0
   10.1742   -0.1795   26.3365 H   0  0  0  0  0  0  0  0  0  0  0  0
  1  2  1  0
  2  3  2  0
  3  4  1  0
  4  5  2  0
  5  6  1  0
  6  7  2  0
  7  8  1  0
  8  9  1  0
  9 10  2  0
 10 11  1  0
 11 12  1  0
 12 13  1  0
 13 14  2  0
 14 15  1  0
 15 16  2  0
 16 17  1  0
 17 18  2  0
 18 19  1  0
 16 20  1  0
 15 21  1  0
 14 22  1  0
 12 23  1  0
 12 24  1  0
 11 25  2  0
 25 26  1  0
 26 27  1  0
 27 28  2  0
 28 29  1  0
 29 30  2  0
 30 31  1  0
 31 32  1  0
 32 33  2  0
 33 34  1  0
 34 35  2  0
 35 36  1  0
 33 37  1  0
 31 38  1  0
 29 39  1  0
 28 40  1  0
  8 41  1  0
  8 42  1  0
  6 43  1  0
  4 44  1  0
  3 45  1  0
  1 46  1  0
  1 47  1  0
  1 48  1  0
  7  2  1  0
 26  9  1  0
 35 27  1  0
 18 13  1  0
 34 30  1  0
M  END
>  <cnnaffinity>  (1) 
-6.46941

>  <filename>  (1) 
[H]c1nc([H])c(C([H])([H])c2nc(C([H])([H])c3c([H])nc([H])c([H])c3C([H])([H])[H])n(-c3c([H])c([H])c4c(c([H])nn4[H])c3[H])n2)c([H])c1[H]

$$$$
