
     RDKit          3D

 32 35  0  0  0  0  0  0  0  0999 V2000
    4.9139    1.7774   16.9996 H   0  0  0  0  0  0  0  0  0  0  0  0
    5.4024    1.2909   17.8427 C   0  0  0  0  0  0  0  0  0  0  0  0
    6.5705    0.6765   17.5855 N   0  0  0  0  0  0  0  0  0  0  0  0
    7.1828    0.0543   18.5960 C   0  0  0  0  0  0  0  0  0  0  0  0
    8.1290   -0.4369   18.3779 H   0  0  0  0  0  0  0  0  0  0  0  0
    6.6554    0.0146   19.9026 C   0  0  0  0  0  0  0  0  0  0  0  0
    7.3569   -0.6479   20.9602 N   0  0  0  0  0  0  0  0  0  0  0  0
    8.1386   -1.7368   20.7220 N   0  0  0  0  0  0  0  0  0  0  0  0
    8.6226   -2.1027   21.8458 N   0  0  0  0  0  0  0  0  0  0  0  0
    8.2011   -1.3035   22.8579 N   0  0  0  0  0  0  0  0  0  0  0  0
    7.4258   -0.4162   22.2930 C   0  0  0  0  0  0  0  0  0  0  0  0
    6.7948    0.6300   22.8418 O   0  0  0  0  0  0  0  0  0  0  0  0
    6.6673    0.7991   24.2314 C   0  0  0  0  0  0  0  0  0  0  0  0
    6.4998   -0.2768   25.0817 C   0  0  0  0  0  0  0  0  0  0  0  0
    6.5155   -1.2934   24.6954 H   0  0  0  0  0  0  0  0  0  0  0  0
    6.3258   -0.0720   26.4799 C   0  0  0  0  0  0  0  0  0  0  0  0
    6.2299   -0.9384   27.1302 H   0  0  0  0  0  0  0  0  0  0  0  0
    6.2873    1.1924   27.0173 C   0  0  0  0  0  0  0  0  0  0  0  0
    6.1571    1.3483   28.0907 H   0  0  0  0  0  0  0  0  0  0  0  0
    6.4088    2.3271   26.1610 C   0  0  0  0  0  0  0  0  0  0  0  0
    6.3528    3.6550   26.6742 C   0  0  0  0  0  0  0  0  0  0  0  0
    6.2191    3.8098   27.7470 H   0  0  0  0  0  0  0  0  0  0  0  0
    6.4669    4.7133   25.8067 C   0  0  0  0  0  0  0  0  0  0  0  0
    6.4289    5.7395   26.1559 H   0  0  0  0  0  0  0  0  0  0  0  0
    6.6370    4.4430   24.4177 C   0  0  0  0  0  0  0  0  0  0  0  0
    6.7292    5.2758   23.7237 H   0  0  0  0  0  0  0  0  0  0  0  0
    6.6947    3.2365   23.8969 N   0  0  0  0  0  0  0  0  0  0  0  0
    6.5895    2.1600   24.7391 C   0  0  0  0  0  0  0  0  0  0  0  0
    5.4385    0.6490   20.1670 C   0  0  0  0  0  0  0  0  0  0  0  0
    5.0109    0.6367   21.1688 H   0  0  0  0  0  0  0  0  0  0  0  0
    4.8066    1.3049   19.1074 C   0  0  0  0  0  0  0  0  0  0  0  0
    3.8760    1.8412   19.2645 H   0  0  0  0  0  0  0  0  0  0  0  0
  1  2  1  0
  2  3  2  0
  3  4  1  0
  4  5  1  0
  4  6  2  0
  6  7  1  0
  7  8  1  0
  8  9  2  0
  9 10  1  0
 10 11  2  0
 11 12  1  0
 12 13  1  0
 13 14  2  0
 14 15  1  0
 14 16  1  0
 16 17  1  0
 16 18  2  0
 18 19  1  0
 18 20  1  0
 20 21  2  0
 21 22  1  0
 21 23  1  0
 23 24  1  0
 23 25  2  0
 25 26  1  0
 25 27  1  0
 27 28  2  0
  6 29  1  0
 29 30  1  0
 29 31  2  0
 31 32  1  0
 31  2  1  0
 11  7  1  0
 28 13  1  0
 28 20  1  0
M  END
>  <cnnaffinity>  (1) 
-5.36072

>  <filename>  (1) 
[H]c1nc([H])c(-n2nnnc2Oc2c([H])c([H])c([H])c3c([H])c([H])c([H])nc23)c([H])c1[H]

$$$$
