
     RDKit          3D

 34 37  0  0  0  0  0  0  0  0999 V2000
    4.9041    1.8645   16.9828 H   0  0  0  0  0  0  0  0  0  0  0  0
    5.3995    1.3407   17.7964 C   0  0  0  0  0  0  0  0  0  0  0  0
    6.5430    0.7117   17.4823 N   0  0  0  0  0  0  0  0  0  0  0  0
    7.1829    0.0398   18.4536 C   0  0  0  0  0  0  0  0  0  0  0  0
    8.0968   -0.4706   18.1470 H   0  0  0  0  0  0  0  0  0  0  0  0
    6.7306   -0.0366   19.7949 C   0  0  0  0  0  0  0  0  0  0  0  0
    7.3986   -0.7585   20.8284 N   0  0  0  0  0  0  0  0  0  0  0  0
    6.9100   -0.6287   21.7154 H   0  0  0  0  0  0  0  0  0  0  0  0
    8.8163   -0.6514   21.0355 C   0  0  0  0  0  0  0  0  0  0  0  0
    9.6864    0.4261   20.7659 C   0  0  0  0  0  0  0  0  0  0  0  0
    9.4087    1.3671   20.3214 H   0  0  0  0  0  0  0  0  0  0  0  0
   10.9338    0.1787   21.1530 N   0  0  0  0  0  0  0  0  0  0  0  0
   10.8737   -1.0473   21.6888 N   0  0  0  0  0  0  0  0  0  0  0  0
   11.7349   -1.4972   21.9874 H   0  0  0  0  0  0  0  0  0  0  0  0
    9.6294   -1.6054   21.6460 C   0  0  0  0  0  0  0  0  0  0  0  0
    9.2626   -2.8577   22.2746 C   0  0  0  0  0  0  0  0  0  0  0  0
    9.7777   -3.4990   23.3780 C   0  0  0  0  0  0  0  0  0  0  0  0
   10.6918   -3.2686   23.9136 H   0  0  0  0  0  0  0  0  0  0  0  0
    8.8143   -4.4706   23.7970 C   0  0  0  0  0  0  0  0  0  0  0  0
    8.6861   -5.3127   24.9268 C   0  0  0  0  0  0  0  0  0  0  0  0
    9.4936   -5.3937   25.6470 H   0  0  0  0  0  0  0  0  0  0  0  0
    7.5009   -6.0047   25.1259 C   0  0  0  0  0  0  0  0  0  0  0  0
    7.3989   -6.6474   25.9973 H   0  0  0  0  0  0  0  0  0  0  0  0
    6.4353   -5.9172   24.1908 C   0  0  0  0  0  0  0  0  0  0  0  0
    5.5125   -6.4767   24.3578 H   0  0  0  0  0  0  0  0  0  0  0  0
    6.5558   -5.1353   23.0518 C   0  0  0  0  0  0  0  0  0  0  0  0
    5.7587   -5.0954   22.3173 H   0  0  0  0  0  0  0  0  0  0  0  0
    7.7406   -4.4005   22.8752 C   0  0  0  0  0  0  0  0  0  0  0  0
    8.0675   -3.4610   21.9362 N   0  0  0  0  0  0  0  0  0  0  0  0
    7.4387   -3.0697   21.2475 H   0  0  0  0  0  0  0  0  0  0  0  0
    5.5157    0.6085   20.0853 C   0  0  0  0  0  0  0  0  0  0  0  0
    5.1042    0.5530   21.0922 H   0  0  0  0  0  0  0  0  0  0  0  0
    4.8418    1.3099   19.0783 C   0  0  0  0  0  0  0  0  0  0  0  0
    3.8978    1.8182   19.2645 H   0  0  0  0  0  0  0  0  0  0  0  0
  1  2  1  0
  2  3  2  0
  3  4  1  0
  4  5  1  0
  4  6  2  0
  6  7  1  0
  7  8  1  0
  7  9  1  0
  9 10  1  0
 10 11  1  0
 10 12  2  0
 12 13  1  0
 13 14  1  0
 13 15  1  0
 15 16  1  0
 16 17  2  0
 17 18  1  0
 17 19  1  0
 19 20  2  0
 20 21  1  0
 20 22  1  0
 22 23  1  0
 22 24  2  0
 24 25  1  0
 24 26  1  0
 26 27  1  0
 26 28  2  0
 28 29  1  0
 29 30  1  0
  6 31  1  0
 31 32  1  0
 31 33  2  0
 33 34  1  0
 33  2  1  0
 15  9  2  0
 29 16  1  0
 28 19  1  0
M  END
>  <cnnaffinity>  (1) 
-5.84314

>  <filename>  (1) 
[H]c1nc([H])c(N([H])c2c([H])nn([H])c2-c2c([H])c3c([H])c([H])c([H])c([H])c3n2[H])c([H])c1[H]

$$$$
