
     RDKit          3D

 32 35  0  0  0  0  0  0  0  0999 V2000
    9.5226   -1.6323   25.4723 H   0  0  0  0  0  0  0  0  0  0  0  0
    8.6104   -1.1500   25.1025 C   0  0  0  0  0  0  0  0  0  0  0  0
    8.3945    0.1420   25.3718 C   0  0  0  0  0  0  0  0  0  0  0  0
    9.5939    1.3233   25.9441 S   0  0  0  0  0  0  0  0  0  0  0  0
    8.3858    2.6037   26.0871 C   0  0  0  0  0  0  0  0  0  0  0  0
    8.6763    4.1495   26.5011 S   0  0  0  0  0  0  0  0  0  0  0  0
    7.1646    2.0934   25.7781 N   0  0  0  0  0  0  0  0  0  0  0  0
    6.3449    2.6742   25.7202 H   0  0  0  0  0  0  0  0  0  0  0  0
    7.0670    0.8158   25.2635 C   0  0  0  0  0  0  0  0  0  0  0  0
    6.0353    0.3941   24.8082 O   0  0  0  0  0  0  0  0  0  0  0  0
    7.7102   -1.9590   24.2128 C   0  0  0  0  0  0  0  0  0  0  0  0
    7.8404   -1.5728   22.7774 C   0  0  0  0  0  0  0  0  0  0  0  0
    8.8505   -1.8314   22.0099 N   0  0  0  0  0  0  0  0  0  0  0  0
    8.5687   -1.2632   20.7803 N   0  0  0  0  0  0  0  0  0  0  0  0
    7.4070   -0.7002   20.8980 C   0  0  0  0  0  0  0  0  0  0  0  0
    6.6498    0.0245   19.8895 C   0  0  0  0  0  0  0  0  0  0  0  0
    7.1747    0.0557   18.5909 C   0  0  0  0  0  0  0  0  0  0  0  0
    8.1149   -0.4510   18.3797 H   0  0  0  0  0  0  0  0  0  0  0  0
    6.5772    0.6722   17.5700 N   0  0  0  0  0  0  0  0  0  0  0  0
    5.4178    1.2975   17.8227 C   0  0  0  0  0  0  0  0  0  0  0  0
    4.9535    1.8016   16.9777 H   0  0  0  0  0  0  0  0  0  0  0  0
    4.8090    1.3195   19.0826 C   0  0  0  0  0  0  0  0  0  0  0  0
    3.8721    1.8470   19.2153 H   0  0  0  0  0  0  0  0  0  0  0  0
    5.4327    0.6730   20.1473 C   0  0  0  0  0  0  0  0  0  0  0  0
    4.9888    0.6722   21.1440 H   0  0  0  0  0  0  0  0  0  0  0  0
    6.8842   -0.8587   22.1366 O   0  0  0  0  0  0  0  0  0  0  0  0
    7.5380   -3.4326   24.5638 C   0  0  0  0  0  0  0  0  0  0  0  0
    8.0695   -3.7884   25.4426 H   0  0  0  0  0  0  0  0  0  0  0  0
    7.4645   -4.1341   23.7393 H   0  0  0  0  0  0  0  0  0  0  0  0
    6.4097   -2.4899   24.7780 C   0  0  0  0  0  0  0  0  0  0  0  0
    6.2011   -2.1882   25.7995 H   0  0  0  0  0  0  0  0  0  0  0  0
    5.5622   -2.5511   24.1031 H   0  0  0  0  0  0  0  0  0  0  0  0
  1  2  1  0
  2  3  2  3
  3  4  1  0
  4  5  1  0
  5  6  2  0
  5  7  1  0
  7  8  1  0
  7  9  1  0
  9 10  2  0
  2 11  1  0
 11 12  1  0
 12 13  2  0
 13 14  1  0
 14 15  2  0
 15 16  1  0
 16 17  2  0
 17 18  1  0
 17 19  1  0
 19 20  2  0
 20 21  1  0
 20 22  1  0
 22 23  1  0
 22 24  2  0
 24 25  1  0
 15 26  1  0
 11 27  1  0
 27 28  1  0
 27 29  1  0
 27 30  1  0
 30 31  1  0
 30 32  1  0
  9  3  1  0
 30 11  1  0
 26 12  1  0
 24 16  1  0
M  END
>  <cnnaffinity>  (1) 
-5.55659

>  <filename>  (1) 
[H]C(=C1SC(=S)N([H])C1=O)C1(c2nnc(-c3c([H])nc([H])c([H])c3[H])o2)C([H])([H])C1([H])[H]

$$$$
