
     RDKit          3D

 37 39  0  0  0  0  0  0  0  0999 V2000
   11.0255    6.5254   25.1233 C   0  0  0  0  0  0  0  0  0  0  0  0
   10.7269    5.3251   24.4385 O   0  0  0  0  0  0  0  0  0  0  0  0
   11.7138    4.6042   23.8612 C   0  0  0  0  0  0  0  0  0  0  0  0
   13.0495    5.0242   23.8096 C   0  0  0  0  0  0  0  0  0  0  0  0
   14.0426    4.1711   23.3074 C   0  0  0  0  0  0  0  0  0  0  0  0
   13.7319    2.9083   22.8232 C   0  0  0  0  0  0  0  0  0  0  0  0
   12.3849    2.5265   22.7725 C   0  0  0  0  0  0  0  0  0  0  0  0
   11.3542    3.3493   23.2781 C   0  0  0  0  0  0  0  0  0  0  0  0
   10.0664    2.8433   23.1112 N   0  0  0  0  0  0  0  0  0  0  0  0
   10.1177    1.7257   22.4814 C   0  0  0  0  0  0  0  0  0  0  0  0
    8.9112    1.1120   22.1940 N   0  0  0  0  0  0  0  0  0  0  0  0
    8.7450    0.0313   21.3738 C   0  0  0  0  0  0  0  0  0  0  0  0
    9.7062   -0.4760   20.8259 O   0  0  0  0  0  0  0  0  0  0  0  0
    7.2911   -0.4685   21.2101 C   0  0  0  0  0  0  0  0  0  0  0  0
    7.2667   -2.0125   21.1557 C   0  0  0  0  0  0  0  0  0  0  0  0
    7.5003   -2.4441   22.1362 H   0  0  0  0  0  0  0  0  0  0  0  0
    8.0459   -2.3624   20.4792 H   0  0  0  0  0  0  0  0  0  0  0  0
    6.2963   -2.3979   20.8227 H   0  0  0  0  0  0  0  0  0  0  0  0
    6.5999    0.1929   20.0095 C   0  0  0  0  0  0  0  0  0  0  0  0
    5.3702    0.8519   20.1570 C   0  0  0  0  0  0  0  0  0  0  0  0
    4.7519    1.4084   19.0317 C   0  0  0  0  0  0  0  0  0  0  0  0
    5.3885    1.2979   17.7924 C   0  0  0  0  0  0  0  0  0  0  0  0
    6.5630    0.6747   17.6223 N   0  0  0  0  0  0  0  0  0  0  0  0
    7.1409    0.1429   18.7088 C   0  0  0  0  0  0  0  0  0  0  0  0
    8.1080   -0.3324   18.5452 H   0  0  0  0  0  0  0  0  0  0  0  0
    4.9385    1.7235   16.8957 H   0  0  0  0  0  0  0  0  0  0  0  0
    3.7989    1.9216   19.1003 H   0  0  0  0  0  0  0  0  0  0  0  0
    4.9086    0.9356   21.1427 H   0  0  0  0  0  0  0  0  0  0  0  0
    6.7457   -0.1607   22.1122 H   0  0  0  0  0  0  0  0  0  0  0  0
    8.1323    1.6835   22.4767 H   0  0  0  0  0  0  0  0  0  0  0  0
   11.6913    1.0872   22.0553 S   0  0  0  0  0  0  0  0  0  0  0  0
   14.5252    2.2404   22.4947 H   0  0  0  0  0  0  0  0  0  0  0  0
   15.0770    4.5063   23.3065 H   0  0  0  0  0  0  0  0  0  0  0  0
   13.3119    6.0178   24.1557 H   0  0  0  0  0  0  0  0  0  0  0  0
   10.0600    6.9154   25.4436 H   0  0  0  0  0  0  0  0  0  0  0  0
   11.5150    7.2461   24.4613 H   0  0  0  0  0  0  0  0  0  0  0  0
   11.6645    6.3463   25.9977 H   0  0  0  0  0  0  0  0  0  0  0  0
  1  2  1  0
  2  3  1  0
  3  4  2  0
  4  5  1  0
  5  6  2  0
  6  7  1  0
  7  8  2  0
  8  9  1  0
  9 10  2  0
 10 11  1  0
 11 12  1  0
 12 13  2  0
 12 14  1  0
 14 15  1  0
 15 16  1  0
 15 17  1  0
 15 18  1  0
 14 19  1  0
 19 20  2  0
 20 21  1  0
 21 22  2  0
 22 23  1  0
 23 24  2  0
 24 25  1  0
 22 26  1  0
 21 27  1  0
 20 28  1  0
 14 29  1  0
 11 30  1  0
 10 31  1  0
  6 32  1  0
  5 33  1  0
  4 34  1  0
  1 35  1  0
  1 36  1  0
  1 37  1  0
  8  3  1  0
 24 19  1  0
 31  7  1  0
M  END
>  <cnnaffinity>  (1) 
-5.3487

>  <filename>  (1) 
[H]c1nc([H])c(C([H])(C(=O)N([H])c2nc3c(OC([H])([H])[H])c([H])c([H])c([H])c3s2)C([H])([H])[H])c([H])c1[H]

$$$$
