
     RDKit          3D

 35 36  0  0  0  0  0  0  0  0999 V2000
   10.8706   -3.5077   23.8815 O   0  0  0  0  0  0  0  0  0  0  0  0
    9.4560   -3.7874   23.7313 S   0  0  0  0  0  0  0  0  0  0  0  0
    8.9724   -5.1159   23.4464 O   0  0  0  0  0  0  0  0  0  0  0  0
    8.8694   -2.9215   22.4597 N   0  0  0  0  0  0  0  0  0  0  0  0
    9.3464   -1.5583   22.2469 C   0  0  0  0  0  0  0  0  0  0  0  0
    8.6576   -0.9809   21.0423 C   0  0  0  0  0  0  0  0  0  0  0  0
    7.3463   -0.7184   20.9999 C   0  0  0  0  0  0  0  0  0  0  0  0
    6.6495   -0.0195   19.9042 C   0  0  0  0  0  0  0  0  0  0  0  0
    5.4227    0.6292   20.1365 C   0  0  0  0  0  0  0  0  0  0  0  0
    4.8011    1.3036   19.0848 C   0  0  0  0  0  0  0  0  0  0  0  0
    5.4144    1.2995   17.8266 C   0  0  0  0  0  0  0  0  0  0  0  0
    6.5781    0.6791   17.5756 N   0  0  0  0  0  0  0  0  0  0  0  0
    7.1721    0.0520   18.5972 C   0  0  0  0  0  0  0  0  0  0  0  0
    8.1170   -0.4381   18.3643 H   0  0  0  0  0  0  0  0  0  0  0  0
    4.9516    1.8095   16.9835 H   0  0  0  0  0  0  0  0  0  0  0  0
    3.8684    1.8397   19.2236 H   0  0  0  0  0  0  0  0  0  0  0  0
    4.9823    0.6259   21.1356 H   0  0  0  0  0  0  0  0  0  0  0  0
    6.7063   -1.0135   21.8387 H   0  0  0  0  0  0  0  0  0  0  0  0
    9.2944   -0.6931   20.2127 H   0  0  0  0  0  0  0  0  0  0  0  0
   10.4405   -1.5044   22.1443 H   0  0  0  0  0  0  0  0  0  0  0  0
    9.0488   -0.9720   23.1331 H   0  0  0  0  0  0  0  0  0  0  0  0
    9.0485   -3.6168   21.7526 H   0  0  0  0  0  0  0  0  0  0  0  0
    8.5862   -3.0125   25.0200 C   0  0  0  0  0  0  0  0  0  0  0  0
    9.3984   -2.0320   25.5890 C   0  0  0  0  0  0  0  0  0  0  0  0
    9.0575   -1.3427   26.6635 N   0  0  0  0  0  0  0  0  0  0  0  0
    7.8454   -1.5661   27.1812 C   0  0  0  0  0  0  0  0  0  0  0  0
    6.9337   -2.4555   26.6120 C   0  0  0  0  0  0  0  0  0  0  0  0
    7.2406   -3.1863   25.4488 C   0  0  0  0  0  0  0  0  0  0  0  0
    6.1239   -4.0352   24.7823 C   0  0  0  0  0  0  0  0  0  0  0  0
    6.0778   -3.8424   23.4550 F   0  0  0  0  0  0  0  0  0  0  0  0
    6.3072   -5.3473   24.9793 F   0  0  0  0  0  0  0  0  0  0  0  0
    4.9043   -3.7261   25.2612 F   0  0  0  0  0  0  0  0  0  0  0  0
    5.9742   -2.5673   27.0960 H   0  0  0  0  0  0  0  0  0  0  0  0
    7.5808   -0.9986   28.0667 H   0  0  0  0  0  0  0  0  0  0  0  0
   10.3684   -1.7958   25.1459 H   0  0  0  0  0  0  0  0  0  0  0  0
  1  2  2  0
  2  3  2  0
  2  4  1  0
  4  5  1  0
  5  6  1  0
  6  7  2  3
  7  8  1  0
  8  9  2  0
  9 10  1  0
 10 11  2  0
 11 12  1  0
 12 13  2  0
 13 14  1  0
 11 15  1  0
 10 16  1  0
  9 17  1  0
  7 18  1  0
  6 19  1  0
  5 20  1  0
  5 21  1  0
  4 22  1  0
  2 23  1  0
 23 24  2  0
 24 25  1  0
 25 26  2  0
 26 27  1  0
 27 28  2  0
 28 29  1  0
 29 30  1  0
 29 31  1  0
 29 32  1  0
 27 33  1  0
 26 34  1  0
 24 35  1  0
 13  8  1  0
 28 23  1  0
M  END
>  <cnnaffinity>  (1) 
-5.86225

>  <filename>  (1) 
[H]C(=C([H])C([H])([H])N([H])S(=O)(=O)c1c([H])nc([H])c([H])c1C(F)(F)F)c1c([H])nc([H])c([H])c1[H]

$$$$
