
     RDKit          3D

 42 46  0  0  0  0  0  0  0  0999 V2000
    7.0391   -6.0352   20.9014 F   0  0  0  0  0  0  0  0  0  0  0  0
    7.7901   -5.4988   21.8772 C   0  0  0  0  0  0  0  0  0  0  0  0
    8.1599   -6.2932   22.9577 C   0  0  0  0  0  0  0  0  0  0  0  0
    8.9818   -5.7598   23.9525 C   0  0  0  0  0  0  0  0  0  0  0  0
    9.4430   -4.4505   23.8211 C   0  0  0  0  0  0  0  0  0  0  0  0
   10.2942   -3.9926   24.7695 F   0  0  0  0  0  0  0  0  0  0  0  0
    9.0927   -3.6515   22.7231 C   0  0  0  0  0  0  0  0  0  0  0  0
    9.6838   -2.2623   22.5336 C   0  0  0  0  0  0  0  0  0  0  0  0
    8.6469   -1.2542   22.2655 N   0  0  0  0  0  0  0  0  0  0  0  0
    8.4426   -0.8128   20.9971 N   0  0  0  0  0  0  0  0  0  0  0  0
    7.2146   -0.3277   21.0392 C   0  0  0  0  0  0  0  0  0  0  0  0
    6.5606    0.2396   19.8608 C   0  0  0  0  0  0  0  0  0  0  0  0
    5.3051    0.8642   19.9309 C   0  0  0  0  0  0  0  0  0  0  0  0
    4.7769    1.4063   18.7623 C   0  0  0  0  0  0  0  0  0  0  0  0
    5.5043    1.2885   17.5725 C   0  0  0  0  0  0  0  0  0  0  0  0
    6.6853    0.6569   17.4884 N   0  0  0  0  0  0  0  0  0  0  0  0
    7.1958    0.1459   18.6126 C   0  0  0  0  0  0  0  0  0  0  0  0
    8.1478   -0.3729   18.5086 H   0  0  0  0  0  0  0  0  0  0  0  0
    5.1232    1.7180   16.6482 H   0  0  0  0  0  0  0  0  0  0  0  0
    3.8314    1.9387   18.7615 H   0  0  0  0  0  0  0  0  0  0  0  0
    4.7671    0.9154   20.8794 H   0  0  0  0  0  0  0  0  0  0  0  0
    6.5911   -0.4763   22.2389 N   0  0  0  0  0  0  0  0  0  0  0  0
    7.5070   -1.0516   22.9843 C   0  0  0  0  0  0  0  0  0  0  0  0
    7.4117   -1.5221   24.3644 C   0  0  0  0  0  0  0  0  0  0  0  0
    6.5038   -2.4919   24.7770 C   0  0  0  0  0  0  0  0  0  0  0  0
    6.5830   -3.1408   25.9593 N   0  0  0  0  0  0  0  0  0  0  0  0
    7.5669   -2.8245   26.8189 C   0  0  0  0  0  0  0  0  0  0  0  0
    8.4847   -1.7849   26.5589 C   0  0  0  0  0  0  0  0  0  0  0  0
    8.3597   -1.1426   25.3229 C   0  0  0  0  0  0  0  0  0  0  0  0
    9.3000   -0.1632   25.3187 N   0  0  0  0  0  0  0  0  0  0  0  0
    9.9691   -0.2496   26.5144 C   0  0  0  0  0  0  0  0  0  0  0  0
    9.5227   -1.1995   27.2895 N   0  0  0  0  0  0  0  0  0  0  0  0
   10.7999    0.4028   26.7402 H   0  0  0  0  0  0  0  0  0  0  0  0
    9.4110    0.5196   24.5925 H   0  0  0  0  0  0  0  0  0  0  0  0
    7.6265   -3.3924   27.7505 H   0  0  0  0  0  0  0  0  0  0  0  0
    5.6881   -2.7955   24.1167 H   0  0  0  0  0  0  0  0  0  0  0  0
   10.3676   -2.2525   21.6792 H   0  0  0  0  0  0  0  0  0  0  0  0
   10.2540   -1.9686   23.4157 H   0  0  0  0  0  0  0  0  0  0  0  0
    8.2075   -4.1789   21.7645 C   0  0  0  0  0  0  0  0  0  0  0  0
    7.8088   -3.5761   20.9480 H   0  0  0  0  0  0  0  0  0  0  0  0
    9.3100   -6.3498   24.8021 H   0  0  0  0  0  0  0  0  0  0  0  0
    7.7896   -7.3075   22.9929 H   0  0  0  0  0  0  0  0  0  0  0  0
  1  2  1  0
  2  3  2  0
  3  4  1  0
  4  5  2  0
  5  6  1  0
  5  7  1  0
  7  8  1  0
  8  9  1  0
  9 10  1  0
 10 11  2  0
 11 12  1  0
 12 13  2  0
 13 14  1  0
 14 15  2  0
 15 16  1  0
 16 17  2  0
 17 18  1  0
 15 19  1  0
 14 20  1  0
 13 21  1  0
 11 22  1  0
 22 23  2  0
 23 24  1  0
 24 25  2  0
 25 26  1  0
 26 27  2  0
 27 28  1  0
 28 29  2  0
 29 30  1  0
 30 31  1  0
 31 32  2  0
 31 33  1  0
 30 34  1  0
 27 35  1  0
 25 36  1  0
  8 37  1  0
  8 38  1  0
  7 39  2  0
 39 40  1  0
  4 41  1  0
  3 42  1  0
 39  2  1  0
 23  9  1  0
 29 24  1  0
 17 12  1  0
 32 28  1  0
M  END
>  <cnnaffinity>  (1) 
-6.63949

>  <filename>  (1) 
[H]c1nc([H])c(-c2nc(-c3c([H])nc([H])c4nc([H])n([H])c34)n(C([H])([H])c3c([H])c(F)c([H])c([H])c3F)n2)c([H])c1[H]

$$$$
