
     RDKit          3D

 31 33  0  0  0  0  0  0  0  0999 V2000
    4.9694    1.8132   16.9497 H   0  0  0  0  0  0  0  0  0  0  0  0
    5.4421    1.3622   17.8208 C   0  0  0  0  0  0  0  0  0  0  0  0
    6.6282    0.7668   17.6255 N   0  0  0  0  0  0  0  0  0  0  0  0
    7.1921    0.1394   18.6667 C   0  0  0  0  0  0  0  0  0  0  0  0
    8.1620   -0.3149   18.4748 H   0  0  0  0  0  0  0  0  0  0  0  0
    6.6137    0.0736   19.9534 C   0  0  0  0  0  0  0  0  0  0  0  0
    7.2503   -0.6328   21.0293 N   0  0  0  0  0  0  0  0  0  0  0  0
    7.5618   -1.9695   21.0704 C   0  0  0  0  0  0  0  0  0  0  0  0
    7.3448   -2.6202   20.2432 H   0  0  0  0  0  0  0  0  0  0  0  0
    8.1033   -2.3409   22.1993 N   0  0  0  0  0  0  0  0  0  0  0  0
    8.1310   -1.2174   22.9679 C   0  0  0  0  0  0  0  0  0  0  0  0
    8.5425   -1.1870   23.9708 H   0  0  0  0  0  0  0  0  0  0  0  0
    7.6066   -0.1559   22.3001 C   0  0  0  0  0  0  0  0  0  0  0  0
    7.4014    1.1351   22.9569 C   0  0  0  0  0  0  0  0  0  0  0  0
    7.3377    1.1831   24.1784 O   0  0  0  0  0  0  0  0  0  0  0  0
    7.3280    2.2294   22.1519 N   0  0  0  0  0  0  0  0  0  0  0  0
    7.3108    2.0596   21.1635 H   0  0  0  0  0  0  0  0  0  0  0  0
    6.9212    3.5005   22.5270 C   0  0  0  0  0  0  0  0  0  0  0  0
    7.1544    4.0177   23.7956 C   0  0  0  0  0  0  0  0  0  0  0  0
    7.6441    3.4288   24.5577 H   0  0  0  0  0  0  0  0  0  0  0  0
    6.7088    5.3141   24.0333 C   0  0  0  0  0  0  0  0  0  0  0  0
    6.8544    5.7648   25.0140 H   0  0  0  0  0  0  0  0  0  0  0  0
    6.0845    6.0785   23.1267 N   0  0  0  0  0  0  0  0  0  0  0  0
    5.8672    5.5468   21.9159 C   0  0  0  0  0  0  0  0  0  0  0  0
    5.3571    6.1844   21.1943 H   0  0  0  0  0  0  0  0  0  0  0  0
    6.2558    4.2583   21.5681 C   0  0  0  0  0  0  0  0  0  0  0  0
    6.0200    3.8321   20.6003 H   0  0  0  0  0  0  0  0  0  0  0  0
    5.3888    0.7245   20.1483 C   0  0  0  0  0  0  0  0  0  0  0  0
    4.9167    0.7191   21.1311 H   0  0  0  0  0  0  0  0  0  0  0  0
    4.7935    1.3696   19.0589 C   0  0  0  0  0  0  0  0  0  0  0  0
    3.8256    1.8458   19.1530 H   0  0  0  0  0  0  0  0  0  0  0  0
  1  2  1  0
  2  3  2  0
  3  4  1  0
  4  5  1  0
  4  6  2  0
  6  7  1  0
  7  8  1  0
  8  9  1  0
  8 10  2  0
 10 11  1  0
 11 12  1  0
 11 13  2  0
 13 14  1  0
 14 15  2  0
 14 16  1  0
 16 17  1  0
 16 18  1  0
 18 19  2  0
 19 20  1  0
 19 21  1  0
 21 22  1  0
 21 23  2  0
 23 24  1  0
 24 25  1  0
 24 26  2  0
 26 27  1  0
  6 28  1  0
 28 29  1  0
 28 30  2  0
 30 31  1  0
 30  2  1  0
 13  7  1  0
 26 18  1  0
M  END
>  <cnnaffinity>  (1) 
-4.95819

>  <filename>  (1) 
[H]c1nc([H])c(-n2c([H])nc([H])c2C(=O)N([H])c2c([H])c([H])nc([H])c2[H])c([H])c1[H]

$$$$
