
     RDKit          3D

 29 31  0  0  0  0  0  0  0  0999 V2000
    4.9268    1.7793   16.9981 H   0  0  0  0  0  0  0  0  0  0  0  0
    5.4085    1.2870   17.8439 C   0  0  0  0  0  0  0  0  0  0  0  0
    6.5713    0.6628   17.5919 N   0  0  0  0  0  0  0  0  0  0  0  0
    7.1873    0.0551   18.6067 C   0  0  0  0  0  0  0  0  0  0  0  0
    8.1309   -0.4275   18.3722 H   0  0  0  0  0  0  0  0  0  0  0  0
    6.6718    0.0044   19.9118 C   0  0  0  0  0  0  0  0  0  0  0  0
    7.3778   -0.6870   20.9308 N   0  0  0  0  0  0  0  0  0  0  0  0
    8.6889   -0.9666   20.8181 N   0  0  0  0  0  0  0  0  0  0  0  0
    9.0025   -1.5808   21.9474 C   0  0  0  0  0  0  0  0  0  0  0  0
   10.0031   -1.9426   22.1315 H   0  0  0  0  0  0  0  0  0  0  0  0
    7.8902   -1.7134   22.8065 C   0  0  0  0  0  0  0  0  0  0  0  0
    7.7546   -2.6047   24.3226 S   0  0  0  0  0  0  0  0  0  0  0  0
    7.3499   -4.2028   23.6276 C   0  0  0  0  0  0  0  0  0  0  0  0
    6.0137   -4.5323   23.3571 C   0  0  0  0  0  0  0  0  0  0  0  0
    5.2297   -3.8242   23.6192 H   0  0  0  0  0  0  0  0  0  0  0  0
    5.7087   -5.7496   22.7418 C   0  0  0  0  0  0  0  0  0  0  0  0
    4.6698   -6.0093   22.5516 H   0  0  0  0  0  0  0  0  0  0  0  0
    6.7369   -6.6335   22.3894 C   0  0  0  0  0  0  0  0  0  0  0  0
    6.4944   -7.5877   21.9307 H   0  0  0  0  0  0  0  0  0  0  0  0
    8.0727   -6.2940   22.6410 C   0  0  0  0  0  0  0  0  0  0  0  0
    8.8787   -6.9757   22.3836 H   0  0  0  0  0  0  0  0  0  0  0  0
    8.3805   -5.0778   23.2552 C   0  0  0  0  0  0  0  0  0  0  0  0
    9.4131   -4.7907   23.4418 H   0  0  0  0  0  0  0  0  0  0  0  0
    6.8642   -1.1404   22.1005 C   0  0  0  0  0  0  0  0  0  0  0  0
    5.8178   -1.0649   22.3134 H   0  0  0  0  0  0  0  0  0  0  0  0
    5.4471    0.6433   20.1734 C   0  0  0  0  0  0  0  0  0  0  0  0
    5.0041    0.6471   21.1716 H   0  0  0  0  0  0  0  0  0  0  0  0
    4.8196    1.3009   19.1120 C   0  0  0  0  0  0  0  0  0  0  0  0
    3.8848    1.8337   19.2648 H   0  0  0  0  0  0  0  0  0  0  0  0
  1  2  1  0
  2  3  2  0
  3  4  1  0
  4  5  1  0
  4  6  2  0
  6  7  1  0
  7  8  1  0
  8  9  2  0
  9 10  1  0
  9 11  1  0
 11 12  1  0
 12 13  1  0
 13 14  2  0
 14 15  1  0
 14 16  1  0
 16 17  1  0
 16 18  2  0
 18 19  1  0
 18 20  1  0
 20 21  1  0
 20 22  2  0
 22 23  1  0
 11 24  2  0
 24 25  1  0
  6 26  1  0
 26 27  1  0
 26 28  2  0
 28 29  1  0
 28  2  1  0
 24  7  1  0
 22 13  1  0
M  END
>  <cnnaffinity>  (1) 
-5.28201

>  <filename>  (1) 
[H]c1nc([H])c(-n2nc([H])c(Sc3c([H])c([H])c([H])c([H])c3[H])c2[H])c([H])c1[H]

$$$$
