
     RDKit          3D

 37 39  0  0  0  0  0  0  0  0999 V2000
    5.0374    1.6643   16.8748 H   0  0  0  0  0  0  0  0  0  0  0  0
    5.5283    1.2081   17.7312 C   0  0  0  0  0  0  0  0  0  0  0  0
    6.6660    0.5381   17.4811 N   0  0  0  0  0  0  0  0  0  0  0  0
    7.2850   -0.0488   18.5137 C   0  0  0  0  0  0  0  0  0  0  0  0
    8.2176   -0.5660   18.2869 H   0  0  0  0  0  0  0  0  0  0  0  0
    6.8064   -0.0021   19.8439 C   0  0  0  0  0  0  0  0  0  0  0  0
    7.4832   -0.6780   20.8890 N   0  0  0  0  0  0  0  0  0  0  0  0
    7.6700   -1.6602   20.7490 H   0  0  0  0  0  0  0  0  0  0  0  0
    7.5210   -0.3019   22.2171 C   0  0  0  0  0  0  0  0  0  0  0  0
    7.2985    0.8367   22.5864 O   0  0  0  0  0  0  0  0  0  0  0  0
    7.9899   -1.4277   23.1896 C   0  0  0  0  0  0  0  0  0  0  0  0
    7.4208   -2.8077   22.7934 C   0  0  0  0  0  0  0  0  0  0  0  0
    6.0660   -2.8846   22.3355 C   0  0  0  0  0  0  0  0  0  0  0  0
    5.5516   -1.9569   22.1233 H   0  0  0  0  0  0  0  0  0  0  0  0
    5.4092   -4.0815   22.1163 C   0  0  0  0  0  0  0  0  0  0  0  0
    4.3864   -4.0748   21.7710 H   0  0  0  0  0  0  0  0  0  0  0  0
    6.1502   -5.2660   22.3311 C   0  0  0  0  0  0  0  0  0  0  0  0
    7.5059   -5.2192   22.7175 C   0  0  0  0  0  0  0  0  0  0  0  0
    7.9038   -6.5880   22.7499 C   0  0  0  0  0  0  0  0  0  0  0  0
    8.8852   -6.9752   22.9830 H   0  0  0  0  0  0  0  0  0  0  0  0
    6.9068   -7.3909   22.4407 N   0  0  0  0  0  0  0  0  0  0  0  0
    5.8462   -6.5890   22.1850 N   0  0  0  0  0  0  0  0  0  0  0  0
    4.9283   -7.0006   22.1121 H   0  0  0  0  0  0  0  0  0  0  0  0
    8.1366   -3.9748   22.9795 C   0  0  0  0  0  0  0  0  0  0  0  0
    9.1709   -3.9427   23.3102 H   0  0  0  0  0  0  0  0  0  0  0  0
    9.5431   -1.3576   23.1793 C   0  0  0  0  0  0  0  0  0  0  0  0
    9.9703   -2.0199   23.9414 H   0  0  0  0  0  0  0  0  0  0  0  0
    9.9687   -1.6249   22.2031 H   0  0  0  0  0  0  0  0  0  0  0  0
    9.8594   -0.3378   23.4324 H   0  0  0  0  0  0  0  0  0  0  0  0
    7.5223   -1.1646   24.6398 C   0  0  0  0  0  0  0  0  0  0  0  0
    7.9720   -1.9177   25.2991 H   0  0  0  0  0  0  0  0  0  0  0  0
    7.8370   -0.1760   24.9863 H   0  0  0  0  0  0  0  0  0  0  0  0
    6.4324   -1.2468   24.7361 H   0  0  0  0  0  0  0  0  0  0  0  0
    5.6370    0.7266   20.0920 C   0  0  0  0  0  0  0  0  0  0  0  0
    5.2834    0.8277   21.1170 H   0  0  0  0  0  0  0  0  0  0  0  0
    4.9764    1.3236   19.0124 C   0  0  0  0  0  0  0  0  0  0  0  0
    4.0643    1.8940   19.1586 H   0  0  0  0  0  0  0  0  0  0  0  0
  1  2  1  0
  2  3  2  0
  3  4  1  0
  4  5  1  0
  4  6  2  0
  6  7  1  0
  7  8  1  0
  7  9  1  0
  9 10  2  0
  9 11  1  0
 11 12  1  0
 12 13  2  0
 13 14  1  0
 13 15  1  0
 15 16  1  0
 15 17  2  0
 17 18  1  0
 18 19  1  0
 19 20  1  0
 19 21  2  0
 21 22  1  0
 22 23  1  0
 18 24  2  0
 24 25  1  0
 11 26  1  0
 26 27  1  0
 26 28  1  0
 26 29  1  0
 11 30  1  0
 30 31  1  0
 30 32  1  0
 30 33  1  0
  6 34  1  0
 34 35  1  0
 34 36  2  0
 36 37  1  0
 36  2  1  0
 24 12  1  0
 22 17  1  0
M  END
>  <cnnaffinity>  (1) 
-5.60243

>  <filename>  (1) 
[H]c1nc([H])c(N([H])C(=O)C(c2c([H])c([H])c3c(c([H])nn3[H])c2[H])(C([H])([H])[H])C([H])([H])[H])c([H])c1[H]

$$$$
