
     RDKit          3D

 42 44  0  0  0  0  0  0  0  0999 V2000
    5.0105    1.7783   16.9069 H   0  0  0  0  0  0  0  0  0  0  0  0
    5.4720    1.2597   17.7450 C   0  0  0  0  0  0  0  0  0  0  0  0
    6.6209    0.6115   17.4887 N   0  0  0  0  0  0  0  0  0  0  0  0
    7.2176   -0.0152   18.5129 C   0  0  0  0  0  0  0  0  0  0  0  0
    8.1494   -0.5281   18.2887 H   0  0  0  0  0  0  0  0  0  0  0  0
    6.6981   -0.0268   19.8273 C   0  0  0  0  0  0  0  0  0  0  0  0
    7.3540   -0.6763   20.9490 N   0  0  0  0  0  0  0  0  0  0  0  0
    7.8691    0.1269   22.0188 C   0  0  0  0  0  0  0  0  0  0  0  0
    7.6557    1.3166   22.0856 O   0  0  0  0  0  0  0  0  0  0  0  0
    8.6969   -0.5874   22.9797 C   0  0  0  0  0  0  0  0  0  0  0  0
    9.2057    0.0566   23.6794 H   0  0  0  0  0  0  0  0  0  0  0  0
    8.6724   -1.9322   23.0444 C   0  0  0  0  0  0  0  0  0  0  0  0
    9.3763   -2.8130   24.0334 C   0  0  0  0  0  0  0  0  0  0  0  0
    9.7044   -3.7266   23.5234 H   0  0  0  0  0  0  0  0  0  0  0  0
   10.2762   -2.3144   24.4127 H   0  0  0  0  0  0  0  0  0  0  0  0
    8.4539   -3.1702   25.2151 C   0  0  0  0  0  0  0  0  0  0  0  0
    9.0271   -3.7009   25.9948 H   0  0  0  0  0  0  0  0  0  0  0  0
    8.1321   -2.2256   25.6623 H   0  0  0  0  0  0  0  0  0  0  0  0
    7.2600   -3.9117   24.7760 N   0  0  0  0  0  0  0  0  0  0  0  0
    7.4375   -5.3733   24.6837 C   0  0  0  0  0  0  0  0  0  0  0  0
    6.7533   -5.7497   23.9082 H   0  0  0  0  0  0  0  0  0  0  0  0
    8.4511   -5.6352   24.3554 H   0  0  0  0  0  0  0  0  0  0  0  0
    7.0383   -5.9740   26.0579 C   0  0  0  0  0  0  0  0  0  0  0  0
    6.3972   -6.8512   25.9276 H   0  0  0  0  0  0  0  0  0  0  0  0
    7.9201   -6.3043   26.6161 H   0  0  0  0  0  0  0  0  0  0  0  0
    6.2858   -4.8184   26.7599 C   0  0  0  0  0  0  0  0  0  0  0  0
    5.3392   -5.1225   27.2183 H   0  0  0  0  0  0  0  0  0  0  0  0
    6.8979   -4.3691   27.5545 H   0  0  0  0  0  0  0  0  0  0  0  0
    6.0637   -3.7868   25.6404 C   0  0  1  0  0  0  0  0  0  0  0  0
    5.2242   -4.1271   25.0089 H   0  0  0  0  0  0  0  0  0  0  0  0
    5.7166   -2.3816   26.1204 C   0  0  0  0  0  0  0  0  0  0  0  0
    5.6606   -1.6838   25.2762 H   0  0  0  0  0  0  0  0  0  0  0  0
    4.7392   -2.4015   26.6154 H   0  0  0  0  0  0  0  0  0  0  0  0
    6.4450   -1.9946   26.8448 H   0  0  0  0  0  0  0  0  0  0  0  0
    7.8157   -2.5991   22.1875 N   0  0  0  0  0  0  0  0  0  0  0  0
    7.3145   -3.3922   22.5452 H   0  0  0  0  0  0  0  0  0  0  0  0
    6.9869   -1.9849   21.2748 C   0  0  0  0  0  0  0  0  0  0  0  0
    6.0474   -2.5926   20.8182 O   0  0  0  0  0  0  0  0  0  0  0  0
    5.5037    0.6454   20.0724 C   0  0  0  0  0  0  0  0  0  0  0  0
    5.1037    0.6700   21.0855 H   0  0  0  0  0  0  0  0  0  0  0  0
    4.8755    1.2990   19.0084 C   0  0  0  0  0  0  0  0  0  0  0  0
    3.9498    1.8426   19.1589 H   0  0  0  0  0  0  0  0  0  0  0  0
  1  2  1  0
  2  3  2  0
  3  4  1  0
  4  5  1  0
  4  6  2  0
  6  7  1  0
  7  8  1  0
  8  9  2  0
  8 10  1  0
 10 11  1  0
 10 12  2  0
 12 13  1  0
 13 14  1  0
 13 15  1  0
 13 16  1  0
 16 17  1  0
 16 18  1  0
 16 19  1  0
 19 20  1  0
 20 21  1  0
 20 22  1  0
 20 23  1  0
 23 24  1  0
 23 25  1  0
 23 26  1  0
 26 27  1  0
 26 28  1  0
 26 29  1  0
 29 30  1  6
 29 31  1  0
 31 32  1  0
 31 33  1  0
 31 34  1  0
 12 35  1  0
 35 36  1  0
 35 37  1  0
 37 38  2  0
  6 39  1  0
 39 40  1  0
 39 41  2  0
 41 42  1  0
 41  2  1  0
 37  7  1  0
 29 19  1  0
M  END
>  <cnnaffinity>  (1) 
-5.43682

>  <filename>  (1) 
[H]c1nc([H])c(-n2c(=O)c([H])c(C([H])([H])C([H])([H])N3C([H])([H])C([H])([H])C([H])([H])[C@@]3([H])C([H])([H])[H])n([H])c2=O)c([H])c1[H]

$$$$
