
     RDKit          3D

 41 43  0  0  0  0  0  0  0  0999 V2000
    5.6570   -2.5591   21.1647 C   0  0  0  0  0  0  0  0  0  0  0  0
    6.9659   -1.8691   21.4048 C   0  0  0  0  0  0  0  0  0  0  0  0
    7.8579   -2.3886   22.3365 C   0  0  0  0  0  0  0  0  0  0  0  0
    9.0624   -1.9002   22.5703 N   0  0  0  0  0  0  0  0  0  0  0  0
    9.3611   -0.7950   21.8949 C   0  0  0  0  0  0  0  0  0  0  0  0
   10.5434   -0.1842   22.1271 N   0  0  0  0  0  0  0  0  0  0  0  0
   11.3814   -0.6296   23.2263 C   0  0  0  0  0  0  0  0  0  0  0  0
   10.7911   -0.3791   24.6018 C   0  0  0  0  0  0  0  0  0  0  0  0
   10.6237    0.8329   25.1479 C   0  0  0  0  0  0  0  0  0  0  0  0
   10.8377    2.1032   24.4098 C   0  0  0  0  0  0  0  0  0  0  0  0
    9.7329    2.9200   24.1131 C   0  0  0  0  0  0  0  0  0  0  0  0
    9.8840    4.0452   23.2997 C   0  0  0  0  0  0  0  0  0  0  0  0
   11.1484    4.3857   22.8040 C   0  0  0  0  0  0  0  0  0  0  0  0
   12.2617    3.6107   23.1375 C   0  0  0  0  0  0  0  0  0  0  0  0
   12.1066    2.4743   23.9375 C   0  0  0  0  0  0  0  0  0  0  0  0
   12.9661    1.8560   24.1909 H   0  0  0  0  0  0  0  0  0  0  0  0
   13.2471    3.8739   22.7666 H   0  0  0  0  0  0  0  0  0  0  0  0
   11.2637    5.2621   22.1730 H   0  0  0  0  0  0  0  0  0  0  0  0
    9.0146    4.6438   23.0457 H   0  0  0  0  0  0  0  0  0  0  0  0
    8.7468    2.6303   24.4754 H   0  0  0  0  0  0  0  0  0  0  0  0
   10.2356    0.9189   26.1631 H   0  0  0  0  0  0  0  0  0  0  0  0
   10.3801   -1.2560   25.0975 H   0  0  0  0  0  0  0  0  0  0  0  0
   12.3644   -0.1546   23.1100 H   0  0  0  0  0  0  0  0  0  0  0  0
   11.5145   -1.7051   23.0778 H   0  0  0  0  0  0  0  0  0  0  0  0
   10.3093    0.7939   22.0649 H   0  0  0  0  0  0  0  0  0  0  0  0
    8.6173   -0.1684   20.9964 N   0  0  0  0  0  0  0  0  0  0  0  0
    7.4263   -0.7008   20.7580 C   0  0  0  0  0  0  0  0  0  0  0  0
    6.6344    0.0239   19.7441 C   0  0  0  0  0  0  0  0  0  0  0  0
    5.4005    0.6467   19.9795 C   0  0  0  0  0  0  0  0  0  0  0  0
    4.7985    1.3314   18.9198 C   0  0  0  0  0  0  0  0  0  0  0  0
    5.4386    1.3448   17.6741 C   0  0  0  0  0  0  0  0  0  0  0  0
    6.6268    0.7623   17.4423 N   0  0  0  0  0  0  0  0  0  0  0  0
    7.2136    0.1513   18.4750 C   0  0  0  0  0  0  0  0  0  0  0  0
    8.1977   -0.2739   18.2781 H   0  0  0  0  0  0  0  0  0  0  0  0
    4.9874    1.8496   16.8230 H   0  0  0  0  0  0  0  0  0  0  0  0
    3.8644    1.8720   19.0473 H   0  0  0  0  0  0  0  0  0  0  0  0
    4.9248    0.6256   20.9662 H   0  0  0  0  0  0  0  0  0  0  0  0
    7.5491   -3.2489   22.9410 H   0  0  0  0  0  0  0  0  0  0  0  0
    5.6171   -3.5107   21.6996 H   0  0  0  0  0  0  0  0  0  0  0  0
    5.4982   -2.7401   20.0980 H   0  0  0  0  0  0  0  0  0  0  0  0
    4.8419   -1.9460   21.5353 H   0  0  0  0  0  0  0  0  0  0  0  0
  1  2  1  0
  2  3  2  0
  3  4  1  0
  4  5  2  0
  5  6  1  0
  6  7  1  0
  7  8  1  0
  8  9  2  3
  9 10  1  0
 10 11  2  0
 11 12  1  0
 12 13  2  0
 13 14  1  0
 14 15  2  0
 15 16  1  0
 14 17  1  0
 13 18  1  0
 12 19  1  0
 11 20  1  0
  9 21  1  0
  8 22  1  0
  7 23  1  0
  7 24  1  0
  6 25  1  0
  5 26  1  0
 26 27  2  0
 27 28  1  0
 28 29  2  0
 29 30  1  0
 30 31  2  0
 31 32  1  0
 32 33  2  0
 33 34  1  0
 31 35  1  0
 30 36  1  0
 29 37  1  0
  3 38  1  0
  1 39  1  0
  1 40  1  0
  1 41  1  0
 27  2  1  0
 33 28  1  0
 15 10  1  0
M  END
>  <cnnaffinity>  (1) 
-5.65658

>  <filename>  (1) 
[H]C(=C([H])C([H])([H])N([H])c1nc([H])c(C([H])([H])[H])c(-c2c([H])nc([H])c([H])c2[H])n1)c1c([H])c([H])c([H])c([H])c1[H]

$$$$
