
     RDKit          3D

 40 43  0  0  0  0  0  0  0  0999 V2000
   11.6234   -0.7504   22.2783 C   0  0  0  0  0  0  0  0  0  0  0  0
   10.8958   -1.6662   22.9038 C   0  0  0  0  0  0  0  0  0  0  0  0
    9.9459   -2.5733   22.1514 C   0  0  0  0  0  0  0  0  0  0  0  0
    8.6545   -1.9367   21.9342 N   0  0  0  0  0  0  0  0  0  0  0  0
    8.3975   -1.3974   20.7288 N   0  0  0  0  0  0  0  0  0  0  0  0
    7.3148   -0.6825   20.9459 C   0  0  0  0  0  0  0  0  0  0  0  0
    6.6388    0.0399   19.8865 C   0  0  0  0  0  0  0  0  0  0  0  0
    5.4237    0.6827   20.1357 C   0  0  0  0  0  0  0  0  0  0  0  0
    4.7972    1.3222   19.0738 C   0  0  0  0  0  0  0  0  0  0  0  0
    5.4143    1.2934   17.8169 C   0  0  0  0  0  0  0  0  0  0  0  0
    6.5764    0.6679   17.5687 N   0  0  0  0  0  0  0  0  0  0  0  0
    7.1794    0.0569   18.5928 C   0  0  0  0  0  0  0  0  0  0  0  0
    8.1251   -0.4398   18.3704 H   0  0  0  0  0  0  0  0  0  0  0  0
    4.9536    1.8004   16.9735 H   0  0  0  0  0  0  0  0  0  0  0  0
    3.8601    1.8474   19.2149 H   0  0  0  0  0  0  0  0  0  0  0  0
    5.0008    0.6618   21.1420 H   0  0  0  0  0  0  0  0  0  0  0  0
    6.8792   -0.6974   22.2270 N   0  0  0  0  0  0  0  0  0  0  0  0
    7.7390   -1.5019   22.8279 C   0  0  0  0  0  0  0  0  0  0  0  0
    7.7606   -1.9264   24.2816 C   0  0  0  0  0  0  0  0  0  0  0  0
    7.1668   -0.8320   25.1716 C   0  0  0  0  0  0  0  0  0  0  0  0
    7.2661   -1.2992   26.9089 S   0  0  0  0  0  0  0  0  0  0  0  0
    6.3790   -2.8235   26.7347 C   0  0  0  0  0  0  0  0  0  0  0  0
    5.5861   -3.2935   27.7902 C   0  0  0  0  0  0  0  0  0  0  0  0
    4.8816   -4.4941   27.6772 C   0  0  0  0  0  0  0  0  0  0  0  0
    4.9559   -5.2349   26.4889 C   0  0  0  0  0  0  0  0  0  0  0  0
    5.7253   -4.7670   25.4240 C   0  0  0  0  0  0  0  0  0  0  0  0
    6.4294   -3.5622   25.5331 C   0  0  0  0  0  0  0  0  0  0  0  0
    7.0958   -3.1900   24.3956 O   0  0  0  0  0  0  0  0  0  0  0  0
    5.7990   -5.2909   24.4765 H   0  0  0  0  0  0  0  0  0  0  0  0
    4.4085   -6.1689   26.3901 H   0  0  0  0  0  0  0  0  0  0  0  0
    4.2791   -4.8414   28.5110 H   0  0  0  0  0  0  0  0  0  0  0  0
    5.5156   -2.6937   28.6945 H   0  0  0  0  0  0  0  0  0  0  0  0
    7.7484    0.0822   25.0530 H   0  0  0  0  0  0  0  0  0  0  0  0
    6.1271   -0.6459   24.8851 H   0  0  0  0  0  0  0  0  0  0  0  0
    8.8022   -2.0932   24.5881 H   0  0  0  0  0  0  0  0  0  0  0  0
    9.7898   -3.5404   22.6456 H   0  0  0  0  0  0  0  0  0  0  0  0
   10.3289   -2.7434   21.1416 H   0  0  0  0  0  0  0  0  0  0  0  0
   10.8985   -1.7544   23.9912 H   0  0  0  0  0  0  0  0  0  0  0  0
   11.5018   -0.5995   21.2069 H   0  0  0  0  0  0  0  0  0  0  0  0
   12.3599   -0.1311   22.7783 H   0  0  0  0  0  0  0  0  0  0  0  0
  1  2  2  3
  2  3  1  0
  3  4  1  0
  4  5  1  0
  5  6  2  0
  6  7  1  0
  7  8  2  0
  8  9  1  0
  9 10  2  0
 10 11  1  0
 11 12  2  0
 12 13  1  0
 10 14  1  0
  9 15  1  0
  8 16  1  0
  6 17  1  0
 17 18  2  0
 18 19  1  0
 19 20  1  0
 20 21  1  0
 21 22  1  0
 22 23  2  0
 23 24  1  0
 24 25  2  0
 25 26  1  0
 26 27  2  0
 27 28  1  0
 26 29  1  0
 25 30  1  0
 24 31  1  0
 23 32  1  0
 20 33  1  0
 20 34  1  0
 19 35  1  0
  3 36  1  0
  3 37  1  0
  2 38  1  0
  1 39  1  0
  1 40  1  0
 18  4  1  0
 28 19  1  0
 12  7  1  0
 27 22  1  0
M  END
>  <cnnaffinity>  (1) 
-5.99354

>  <filename>  (1) 
[H]C([H])=C([H])C([H])([H])n1nc(-c2c([H])nc([H])c([H])c2[H])nc1C1([H])Oc2c([H])c([H])c([H])c([H])c2SC1([H])[H]

$$$$
