
     RDKit          3D

 47 50  0  0  0  0  0  0  0  0999 V2000
   12.4703   -1.9794   22.0267 C   0  0  0  0  0  0  0  0  0  0  0  0
   11.0872   -1.4014   22.2906 C   0  0  0  0  0  0  0  0  0  0  0  0
    9.9668   -2.4110   22.0354 C   0  0  0  0  0  0  0  0  0  0  0  0
    8.6616   -1.7735   21.9132 N   0  0  0  0  0  0  0  0  0  0  0  0
    8.3330   -1.2594   20.7093 N   0  0  0  0  0  0  0  0  0  0  0  0
    7.2248   -0.5846   20.9563 C   0  0  0  0  0  0  0  0  0  0  0  0
    6.5079    0.1132   19.8904 C   0  0  0  0  0  0  0  0  0  0  0  0
    5.2838    0.7797   20.0695 C   0  0  0  0  0  0  0  0  0  0  0  0
    4.7181    1.4072   18.9591 C   0  0  0  0  0  0  0  0  0  0  0  0
    5.3831    1.3455   17.7303 C   0  0  0  0  0  0  0  0  0  0  0  0
    6.5393    0.6939   17.5469 N   0  0  0  0  0  0  0  0  0  0  0  0
    7.0822    0.0942   18.6095 C   0  0  0  0  0  0  0  0  0  0  0  0
    8.0181   -0.4329   18.4300 H   0  0  0  0  0  0  0  0  0  0  0  0
    4.9672    1.8368   16.8529 H   0  0  0  0  0  0  0  0  0  0  0  0
    3.7848    1.9546   19.0302 H   0  0  0  0  0  0  0  0  0  0  0  0
    4.7841    0.8143   21.0400 H   0  0  0  0  0  0  0  0  0  0  0  0
    6.8367   -0.6170   22.2518 N   0  0  0  0  0  0  0  0  0  0  0  0
    7.7558   -1.3717   22.8336 C   0  0  0  0  0  0  0  0  0  0  0  0
    7.7308   -1.8508   24.2550 C   0  0  0  0  0  0  0  0  0  0  0  0
    7.1445   -3.2830   24.4062 C   0  0  0  0  0  0  0  0  0  0  0  0
    5.6957   -3.2963   23.8829 C   0  0  0  0  0  0  0  0  0  0  0  0
    4.9552   -4.5250   24.3749 C   0  0  0  0  0  0  0  0  0  0  0  0
    4.8818   -4.5002   25.8002 O   0  0  0  0  0  0  0  0  0  0  0  0
    6.0904   -4.4123   26.4397 C   0  0  0  0  0  0  0  0  0  0  0  0
    6.1451   -4.9301   27.7392 C   0  0  0  0  0  0  0  0  0  0  0  0
    7.3681   -5.0249   28.3960 C   0  0  0  0  0  0  0  0  0  0  0  0
    8.5282   -4.5339   27.7801 C   0  0  0  0  0  0  0  0  0  0  0  0
    8.4521   -3.9508   26.5146 C   0  0  0  0  0  0  0  0  0  0  0  0
    7.2313   -3.8524   25.8232 C   0  0  0  0  0  0  0  0  0  0  0  0
    9.3707   -3.6015   26.0462 H   0  0  0  0  0  0  0  0  0  0  0  0
    9.4928   -4.5878   28.2747 H   0  0  0  0  0  0  0  0  0  0  0  0
    7.4026   -5.5077   29.3691 H   0  0  0  0  0  0  0  0  0  0  0  0
    5.2215   -5.2862   28.1820 H   0  0  0  0  0  0  0  0  0  0  0  0
    3.9212   -4.5429   24.0275 H   0  0  0  0  0  0  0  0  0  0  0  0
    5.4591   -5.4496   24.0467 H   0  0  0  0  0  0  0  0  0  0  0  0
    5.1811   -2.4161   24.2822 H   0  0  0  0  0  0  0  0  0  0  0  0
    5.6701   -3.2221   22.7907 H   0  0  0  0  0  0  0  0  0  0  0  0
    7.7443   -3.9655   23.7786 H   0  0  0  0  0  0  0  0  0  0  0  0
    7.1271   -1.1456   24.8343 H   0  0  0  0  0  0  0  0  0  0  0  0
    8.7370   -1.8031   24.6813 H   0  0  0  0  0  0  0  0  0  0  0  0
    9.9296   -3.1873   22.8086 H   0  0  0  0  0  0  0  0  0  0  0  0
   10.1172   -2.8869   21.0677 H   0  0  0  0  0  0  0  0  0  0  0  0
   10.9093   -0.5531   21.6227 H   0  0  0  0  0  0  0  0  0  0  0  0
   11.0240   -1.0291   23.3195 H   0  0  0  0  0  0  0  0  0  0  0  0
   13.2690   -1.3412   22.4196 H   0  0  0  0  0  0  0  0  0  0  0  0
   12.5736   -2.9551   22.5062 H   0  0  0  0  0  0  0  0  0  0  0  0
   12.6330   -2.1173   20.9531 H   0  0  0  0  0  0  0  0  0  0  0  0
  1  2  1  0
  2  3  1  0
  3  4  1  0
  4  5  1  0
  5  6  2  0
  6  7  1  0
  7  8  2  0
  8  9  1  0
  9 10  2  0
 10 11  1  0
 11 12  2  0
 12 13  1  0
 10 14  1  0
  9 15  1  0
  8 16  1  0
  6 17  1  0
 17 18  2  0
 18 19  1  0
 19 20  1  0
 20 21  1  0
 21 22  1  0
 22 23  1  0
 23 24  1  0
 24 25  2  0
 25 26  1  0
 26 27  2  0
 27 28  1  0
 28 29  2  0
 28 30  1  0
 27 31  1  0
 26 32  1  0
 25 33  1  0
 22 34  1  0
 22 35  1  0
 21 36  1  0
 21 37  1  0
 20 38  1  0
 19 39  1  0
 19 40  1  0
  3 41  1  0
  3 42  1  0
  2 43  1  0
  2 44  1  0
  1 45  1  0
  1 46  1  0
  1 47  1  0
 18  4  1  0
 29 20  1  0
 12  7  1  0
 29 24  1  0
M  END
>  <cnnaffinity>  (1) 
-6.21966

>  <filename>  (1) 
[H]c1nc([H])c(-c2nc(C([H])([H])C3([H])c4c([H])c([H])c([H])c([H])c4OC([H])([H])C3([H])[H])n(C([H])([H])C([H])([H])C([H])([H])[H])n2)c([H])c1[H]

$$$$
