
     RDKit          3D

 42 45  0  0  0  0  0  0  0  0999 V2000
   13.1220   -0.8446   22.4693 F   0  0  0  0  0  0  0  0  0  0  0  0
   12.2205   -1.7074   21.9796 C   0  0  0  0  0  0  0  0  0  0  0  0
   12.5552   -1.9297   20.6970 F   0  0  0  0  0  0  0  0  0  0  0  0
   12.3691   -2.8691   22.6385 F   0  0  0  0  0  0  0  0  0  0  0  0
   10.7997   -1.2192   22.1182 C   0  0  0  0  0  0  0  0  0  0  0  0
    9.7799   -2.3644   21.9560 C   0  0  0  0  0  0  0  0  0  0  0  0
    8.4382   -1.8227   21.8679 N   0  0  0  0  0  0  0  0  0  0  0  0
    8.1026   -1.2641   20.6966 N   0  0  0  0  0  0  0  0  0  0  0  0
    7.0216   -0.5603   20.9805 C   0  0  0  0  0  0  0  0  0  0  0  0
    6.3557    0.1672   19.9082 C   0  0  0  0  0  0  0  0  0  0  0  0
    5.1500    0.8661   20.0550 C   0  0  0  0  0  0  0  0  0  0  0  0
    4.6412    1.5023   18.9206 C   0  0  0  0  0  0  0  0  0  0  0  0
    5.3406    1.4160   17.7088 C   0  0  0  0  0  0  0  0  0  0  0  0
    6.4915    0.7430   17.5661 N   0  0  0  0  0  0  0  0  0  0  0  0
    6.9803    0.1398   18.6489 C   0  0  0  0  0  0  0  0  0  0  0  0
    7.9208   -0.3916   18.5206 H   0  0  0  0  0  0  0  0  0  0  0  0
    4.9601    1.8978   16.8125 H   0  0  0  0  0  0  0  0  0  0  0  0
    3.7248    2.0754   18.9596 H   0  0  0  0  0  0  0  0  0  0  0  0
    4.6365    0.9124   21.0184 H   0  0  0  0  0  0  0  0  0  0  0  0
    6.6698   -0.5936   22.2870 N   0  0  0  0  0  0  0  0  0  0  0  0
    7.5664   -1.4093   22.8208 C   0  0  0  0  0  0  0  0  0  0  0  0
    7.7152   -1.9052   24.2471 C   0  0  0  0  0  0  0  0  0  0  0  0
    6.9776   -1.0269   25.2615 C   0  0  0  0  0  0  0  0  0  0  0  0
    5.5676   -1.1280   25.0966 O   0  0  0  0  0  0  0  0  0  0  0  0
    5.0961   -2.3976   24.8882 C   0  0  0  0  0  0  0  0  0  0  0  0
    3.7219   -2.6171   24.9981 C   0  0  0  0  0  0  0  0  0  0  0  0
    3.1760   -3.8670   24.6932 C   0  0  0  0  0  0  0  0  0  0  0  0
    4.0179   -4.9108   24.2889 C   0  0  0  0  0  0  0  0  0  0  0  0
    5.3992   -4.7051   24.1907 C   0  0  0  0  0  0  0  0  0  0  0  0
    5.9420   -3.4559   24.4855 C   0  0  0  0  0  0  0  0  0  0  0  0
    7.3098   -3.2797   24.3902 O   0  0  0  0  0  0  0  0  0  0  0  0
    6.0797   -5.4972   23.9004 H   0  0  0  0  0  0  0  0  0  0  0  0
    3.6008   -5.8835   24.0562 H   0  0  0  0  0  0  0  0  0  0  0  0
    2.1040   -4.0224   24.7699 H   0  0  0  0  0  0  0  0  0  0  0  0
    3.1092   -1.7754   25.2935 H   0  0  0  0  0  0  0  0  0  0  0  0
    7.2293    0.0239   25.1051 H   0  0  0  0  0  0  0  0  0  0  0  0
    7.2670   -1.3397   26.2783 H   0  0  0  0  0  0  0  0  0  0  0  0
    8.7735   -1.9118   24.5092 H   0  0  0  0  0  0  0  0  0  0  0  0
    9.8089   -3.1055   22.7597 H   0  0  0  0  0  0  0  0  0  0  0  0
    9.9399   -2.8715   21.0025 H   0  0  0  0  0  0  0  0  0  0  0  0
   10.7064   -0.7197   23.0906 H   0  0  0  0  0  0  0  0  0  0  0  0
   10.5998   -0.4825   21.3353 H   0  0  0  0  0  0  0  0  0  0  0  0
  1  2  1  0
  2  3  1  0
  2  4  1  0
  2  5  1  0
  5  6  1  0
  6  7  1  0
  7  8  1  0
  8  9  2  0
  9 10  1  0
 10 11  2  0
 11 12  1  0
 12 13  2  0
 13 14  1  0
 14 15  2  0
 15 16  1  0
 13 17  1  0
 12 18  1  0
 11 19  1  0
  9 20  1  0
 20 21  2  0
 21 22  1  0
 22 23  1  0
 23 24  1  0
 24 25  1  0
 25 26  2  0
 26 27  1  0
 27 28  2  0
 28 29  1  0
 29 30  2  0
 30 31  1  0
 29 32  1  0
 28 33  1  0
 27 34  1  0
 26 35  1  0
 23 36  1  0
 23 37  1  0
 22 38  1  0
  6 39  1  0
  6 40  1  0
  5 41  1  0
  5 42  1  0
 21  7  1  0
 31 22  1  0
 15 10  1  0
 30 25  1  0
M  END
>  <cnnaffinity>  (1) 
-6.09143

>  <filename>  (1) 
[H]c1nc([H])c(-c2nc(C3([H])Oc4c([H])c([H])c([H])c([H])c4OC3([H])[H])n(C([H])([H])C([H])([H])C(F)(F)F)n2)c([H])c1[H]

$$$$
