
     RDKit          3D

 44 45  0  0  0  0  0  0  0  0999 V2000
    6.2558   -2.7831   21.6149 C   0  0  0  0  0  0  0  0  0  0  0  0
    7.4131   -2.0317   20.9663 C   0  0  0  0  0  0  0  0  0  0  0  0
    7.3389   -0.5759   21.0535 N   0  0  0  0  0  0  0  0  0  0  0  0
    7.7205    0.1747   22.1669 C   0  0  0  0  0  0  0  0  0  0  0  0
    7.6928    1.3912   22.1871 O   0  0  0  0  0  0  0  0  0  0  0  0
    8.1763   -0.5838   23.2283 N   0  0  0  0  0  0  0  0  0  0  0  0
    8.1953    0.0258   24.5551 C   0  0  0  0  0  0  0  0  0  0  0  0
    6.8209    0.4448   25.0457 C   0  0  0  0  0  0  0  0  0  0  0  0
    6.4635    1.7956   25.1243 C   0  0  0  0  0  0  0  0  0  0  0  0
    5.1952    2.1986   25.5301 C   0  0  0  0  0  0  0  0  0  0  0  0
    4.2332    1.2323   25.8538 C   0  0  0  0  0  0  0  0  0  0  0  0
    3.0246    1.7435   26.2166 O   0  0  0  0  0  0  0  0  0  0  0  0
    1.9647    0.8843   26.5776 C   0  0  0  0  0  0  0  0  0  0  0  0
    1.6806    0.2268   25.7456 H   0  0  0  0  0  0  0  0  0  0  0  0
    1.1246    1.5366   26.8208 H   0  0  0  0  0  0  0  0  0  0  0  0
    2.2196    0.2817   27.4593 H   0  0  0  0  0  0  0  0  0  0  0  0
    4.5516   -0.1297   25.7848 C   0  0  0  0  0  0  0  0  0  0  0  0
    5.8427   -0.5142   25.3756 C   0  0  0  0  0  0  0  0  0  0  0  0
    6.2470   -1.8213   25.2788 O   0  0  0  0  0  0  0  0  0  0  0  0
    5.3200   -2.8500   25.5525 C   0  0  0  0  0  0  0  0  0  0  0  0
    4.9715   -2.8024   26.5929 H   0  0  0  0  0  0  0  0  0  0  0  0
    5.8447   -3.7944   25.3933 H   0  0  0  0  0  0  0  0  0  0  0  0
    4.4551   -2.7909   24.8770 H   0  0  0  0  0  0  0  0  0  0  0  0
    3.8135   -0.8830   26.0371 H   0  0  0  0  0  0  0  0  0  0  0  0
    4.9056    3.2401   25.6012 H   0  0  0  0  0  0  0  0  0  0  0  0
    7.1972    2.5478   24.8324 H   0  0  0  0  0  0  0  0  0  0  0  0
    8.6378   -0.7075   25.2375 H   0  0  0  0  0  0  0  0  0  0  0  0
    8.8628    0.8945   24.5389 H   0  0  0  0  0  0  0  0  0  0  0  0
    7.7280   -1.4806   23.2217 H   0  0  0  0  0  0  0  0  0  0  0  0
    6.6812    0.0886   19.9711 C   0  0  0  0  0  0  0  0  0  0  0  0
    5.4612    0.7324   20.1886 C   0  0  0  0  0  0  0  0  0  0  0  0
    4.8179    1.3232   19.0991 C   0  0  0  0  0  0  0  0  0  0  0  0
    5.4277    1.2787   17.8401 C   0  0  0  0  0  0  0  0  0  0  0  0
    6.5990    0.6598   17.6123 N   0  0  0  0  0  0  0  0  0  0  0  0
    7.1953    0.0724   18.6564 C   0  0  0  0  0  0  0  0  0  0  0  0
    8.1405   -0.4323   18.4600 H   0  0  0  0  0  0  0  0  0  0  0  0
    4.9553    1.7508   16.9813 H   0  0  0  0  0  0  0  0  0  0  0  0
    3.8630    1.8228   19.2220 H   0  0  0  0  0  0  0  0  0  0  0  0
    5.0534    0.7582   21.1994 H   0  0  0  0  0  0  0  0  0  0  0  0
    7.3560   -2.2526   19.9040 H   0  0  0  0  0  0  0  0  0  0  0  0
    8.3865   -2.3837   21.3297 H   0  0  0  0  0  0  0  0  0  0  0  0
    5.3133   -2.5229   21.1289 H   0  0  0  0  0  0  0  0  0  0  0  0
    6.4168   -3.8533   21.4537 H   0  0  0  0  0  0  0  0  0  0  0  0
    6.1460   -2.6062   22.6893 H   0  0  0  0  0  0  0  0  0  0  0  0
  1  2  1  0
  2  3  1  0
  3  4  1  0
  4  5  2  0
  4  6  1  0
  6  7  1  0
  7  8  1  0
  8  9  2  0
  9 10  1  0
 10 11  2  0
 11 12  1  0
 12 13  1  0
 13 14  1  0
 13 15  1  0
 13 16  1  0
 11 17  1  0
 17 18  2  0
 18 19  1  0
 19 20  1  0
 20 21  1  0
 20 22  1  0
 20 23  1  0
 17 24  1  0
 10 25  1  0
  9 26  1  0
  7 27  1  0
  7 28  1  0
  6 29  1  0
  3 30  1  0
 30 31  2  0
 31 32  1  0
 32 33  2  0
 33 34  1  0
 34 35  2  0
 35 36  1  0
 33 37  1  0
 32 38  1  0
 31 39  1  0
  2 40  1  0
  2 41  1  0
  1 42  1  0
  1 43  1  0
  1 44  1  0
 18  8  1  0
 35 30  1  0
M  END
>  <cnnaffinity>  (1) 
-4.70483

>  <filename>  (1) 
[H]c1nc([H])c(N(C(=O)N([H])C([H])([H])c2c([H])c([H])c(OC([H])([H])[H])c([H])c2OC([H])([H])[H])C([H])([H])C([H])([H])[H])c([H])c1[H]

$$$$
