
     RDKit          3D

 39 43  0  0  0  0  0  0  0  0999 V2000
    4.8083    1.3007   19.0440 C   0  0  0  0  0  0  0  0  0  0  0  0
    5.3940    1.3049   17.7757 C   0  0  0  0  0  0  0  0  0  0  0  0
    6.5311    0.6542   17.4872 N   0  0  0  0  0  0  0  0  0  0  0  0
    7.1316    0.0032   18.4923 C   0  0  0  0  0  0  0  0  0  0  0  0
    6.6497   -0.0446   19.8131 C   0  0  0  0  0  0  0  0  0  0  0  0
    7.4497   -0.6797   20.9429 C   0  0  0  0  0  0  0  0  0  0  0  0
    8.4030    0.2764   21.6036 C   0  0  0  0  0  0  0  0  0  0  0  0
    9.6008    0.5433   21.1197 N   0  0  0  0  0  0  0  0  0  0  0  0
   10.0720    1.4884   21.9782 N   0  0  0  0  0  0  0  0  0  0  0  0
   11.4744    1.8592   22.0176 C   0  0  0  0  0  0  0  0  0  0  0  0
   12.5041    0.7945   22.2852 C   0  0  0  0  0  0  0  0  0  0  0  0
   12.1968    1.8073   23.3444 C   0  0  0  0  0  0  0  0  0  0  0  0
   11.6099    1.4651   24.1957 H   0  0  0  0  0  0  0  0  0  0  0  0
   12.9207    2.5910   23.5678 H   0  0  0  0  0  0  0  0  0  0  0  0
   12.1309   -0.2219   22.3978 H   0  0  0  0  0  0  0  0  0  0  0  0
   13.4644    0.8755   21.7875 H   0  0  0  0  0  0  0  0  0  0  0  0
   11.7175    2.6559   21.3166 H   0  0  0  0  0  0  0  0  0  0  0  0
    9.1067    1.7665   22.8942 C   0  0  0  0  0  0  0  0  0  0  0  0
    9.2094    2.8746   23.8780 C   0  0  0  0  0  0  0  0  0  0  0  0
    9.8306    4.1116   23.6391 C   0  0  0  0  0  0  0  0  0  0  0  0
    9.8596    5.1107   24.6339 C   0  0  0  0  0  0  0  0  0  0  0  0
    9.2784    4.9972   25.8234 N   0  0  0  0  0  0  0  0  0  0  0  0
    8.6351    3.8341   26.0579 C   0  0  0  0  0  0  0  0  0  0  0  0
    8.6039    2.7435   25.1473 C   0  0  0  0  0  0  0  0  0  0  0  0
    7.7735    1.3862   25.8336 S   0  0  0  0  0  0  0  0  0  0  0  0
    7.4681    2.2612   27.2987 C   0  0  0  0  0  0  0  0  0  0  0  0
    7.9335    3.5324   27.2748 C   0  0  0  0  0  0  0  0  0  0  0  0
    7.8243    4.2810   28.0510 H   0  0  0  0  0  0  0  0  0  0  0  0
    6.9667    1.7419   28.1096 H   0  0  0  0  0  0  0  0  0  0  0  0
   10.3853    6.0452   24.4461 H   0  0  0  0  0  0  0  0  0  0  0  0
   10.2635    4.3495   22.6768 H   0  0  0  0  0  0  0  0  0  0  0  0
    8.0717    0.9582   22.7245 N   0  0  0  0  0  0  0  0  0  0  0  0
    6.7757   -1.0379   21.7270 H   0  0  0  0  0  0  0  0  0  0  0  0
    8.0188   -1.5419   20.5836 H   0  0  0  0  0  0  0  0  0  0  0  0
    5.4465    0.6186   20.0819 C   0  0  0  0  0  0  0  0  0  0  0  0
    5.0270    0.6190   21.0917 H   0  0  0  0  0  0  0  0  0  0  0  0
    8.0661   -0.4982   18.2404 H   0  0  0  0  0  0  0  0  0  0  0  0
    4.9336    1.8567   16.9564 H   0  0  0  0  0  0  0  0  0  0  0  0
    3.8887    1.8456   19.2125 H   0  0  0  0  0  0  0  0  0  0  0  0
  1  2  2  0
  2  3  1  0
  3  4  2  0
  4  5  1  0
  5  6  1  0
  6  7  1  0
  7  8  2  0
  8  9  1  0
  9 10  1  0
 10 11  1  0
 11 12  1  0
 12 13  1  0
 12 14  1  0
 11 15  1  0
 11 16  1  0
 10 17  1  0
  9 18  1  0
 18 19  1  0
 19 20  2  0
 20 21  1  0
 21 22  2  0
 22 23  1  0
 23 24  2  0
 24 25  1  0
 25 26  1  0
 26 27  2  0
 27 28  1  0
 26 29  1  0
 21 30  1  0
 20 31  1  0
 18 32  2  0
  6 33  1  0
  6 34  1  0
  5 35  2  0
 35 36  1  0
  4 37  1  0
  2 38  1  0
  1 39  1  0
 35  1  1  0
 32  7  1  0
 12 10  1  0
 24 19  1  0
 27 23  1  0
M  END
>  <cnnaffinity>  (1) 
-5.79594

>  <filename>  (1) 
[H]c1nc([H])c(C([H])([H])c2nc(-c3c([H])c([H])nc4c([H])c([H])sc34)n(C3([H])C([H])([H])C3([H])[H])n2)c([H])c1[H]

$$$$
