
     RDKit          3D

 39 41  0  0  0  0  0  0  0  0999 V2000
    7.1365   -2.1607   21.0966 C   0  0  0  0  0  0  0  0  0  0  0  0
    7.0189   -0.6457   21.2932 C   0  0  0  0  0  0  0  0  0  0  0  0
    8.3372   -0.0332   21.5813 N   0  0  0  0  0  4  0  0  0  0  0  0
    9.1239   -0.5135   22.7366 C   0  0  0  0  0  0  0  0  0  0  0  0
   10.4303    0.2340   22.7497 C   0  0  0  0  0  0  0  0  0  0  0  0
   11.6365   -0.4306   22.3179 C   0  0  0  0  0  0  0  0  0  0  0  0
   12.8562    0.1828   22.3246 C   0  0  0  0  0  0  0  0  0  0  0  0
   12.9340    1.5940   22.7639 C   0  0  0  0  0  0  0  0  0  0  0  0
   14.0202    2.4035   22.8088 C   0  0  0  0  0  0  0  0  0  0  0  0
   13.3550    4.5156   23.4812 C   0  0  0  0  0  0  0  0  0  0  0  0
   13.2564    4.0821   23.5285 C   0  0  0  0  0  0  0  0  0  0  0  0
   11.9113    3.7140   23.5330 C   0  0  0  0  0  0  0  0  0  0  0  0
   11.7066    2.2897   23.1955 C   0  0  0  0  0  0  0  0  0  0  0  0
   10.4940    1.5672   23.1834 C   0  0  0  0  0  0  0  0  0  0  0  0
    9.5843    2.0723   23.5107 H   0  0  0  0  0  0  0  0  0  0  0  0
   11.3486    4.2009   24.2808 H   0  0  0  0  0  0  0  0  0  0  0  0
   13.3105    5.5917   23.7096 H   0  0  0  0  0  0  0  0  0  0  0  0
   14.0155    4.5635   22.5224 H   0  0  0  0  0  0  0  0  0  0  0  0
   15.0508    2.1765   22.5603 H   0  0  0  0  0  0  0  0  0  0  0  0
   13.7427   -0.3729   21.9879 H   0  0  0  0  0  0  0  0  0  0  0  0
   11.5626   -1.4519   21.9422 H   0  0  0  0  0  0  0  0  0  0  0  0
    8.6004   -0.3574   23.6905 H   0  0  0  0  0  0  0  0  0  0  0  0
    9.3288   -1.5890   22.6618 H   0  0  0  0  0  0  0  0  0  0  0  0
    8.2155    1.0058   21.6721 H   0  0  0  0  0  0  0  0  0  0  0  0
    8.9265   -0.1663   20.7267 H   0  0  0  0  0  0  0  0  0  0  0  0
    6.5258    0.0873   20.0790 C   0  0  0  0  0  0  0  0  0  0  0  0
    5.3415    0.8317   20.1072 C   0  0  0  0  0  0  0  0  0  0  0  0
    4.9196    1.4780   18.9434 C   0  0  0  0  0  0  0  0  0  0  0  0
    5.7025    1.3590   17.7912 C   0  0  0  0  0  0  0  0  0  0  0  0
    6.8329    0.6402   17.7429 N   0  0  0  0  0  0  0  0  0  0  0  0
    7.2304    0.0335   18.8694 C   0  0  0  0  0  0  0  0  0  0  0  0
    8.1473   -0.5494   18.7767 H   0  0  0  0  0  0  0  0  0  0  0  0
    5.4038    1.8506   16.8633 H   0  0  0  0  0  0  0  0  0  0  0  0
    4.0143    2.0773   18.9148 H   0  0  0  0  0  0  0  0  0  0  0  0
    4.7653    0.9041   21.0312 H   0  0  0  0  0  0  0  0  0  0  0  0
    6.3260   -0.4522   22.1226 H   0  0  0  0  0  0  0  0  0  0  0  0
    8.0705   -2.4069   20.5822 H   0  0  0  0  0  0  0  0  0  0  0  0
    6.3080   -2.5427   20.4980 H   0  0  0  0  0  0  0  0  0  0  0  0
    7.1420   -2.6814   22.0608 H   0  0  0  0  0  0  0  0  0  0  0  0
  1  2  1  0
  2  3  1  0
  3  4  1  0
  4  5  1  0
  5  6  2  0
  6  7  1  0
  7  8  2  0
  8  9  1  0
  9 10  2  0
 10 11  1  0
 11 12  2  0
 12 13  1  0
 13 14  2  0
 14 15  1  0
 12 16  1  0
 11 17  1  0
 10 18  1  0
  9 19  1  0
  7 20  1  0
  6 21  1  0
  4 22  1  0
  4 23  1  0
  3 24  1  0
  3 25  1  0
  2 26  1  0
 26 27  2  0
 27 28  1  0
 28 29  2  0
 29 30  1  0
 30 31  2  0
 31 32  1  0
 29 33  1  0
 28 34  1  0
 27 35  1  0
  2 36  1  0
  1 37  1  0
  1 38  1  0
  1 39  1  0
 14  5  1  0
 31 26  1  0
 13  8  1  0
M  CHG  1   3   1
M  END
>  <cnnaffinity>  (1) 
-5.1912

>  <filename>  (1) 
[H]c1nc([H])c(C([H])(C([H])([H])[H])[N+]([H])([H])C([H])([H])c2c([H])c([H])c3c([H])c([H])c([H])c([H])c3c2[H])c([H])c1[H]

$$$$
