
     RDKit          3D

 30 33  0  0  0  0  0  0  0  0999 V2000
    9.4719   -0.7448   20.1492 H   0  0  0  0  0  0  0  0  0  0  0  0
    8.7545   -1.0016   20.9196 C   0  0  0  0  0  0  0  0  0  0  0  0
    9.2145   -1.6477   22.0253 N   0  0  0  0  0  0  0  0  0  0  0  0
    8.2501   -1.8495   22.8844 C   0  0  0  0  0  0  0  0  0  0  0  0
    8.3613   -2.5058   24.1972 C   0  0  0  0  0  0  0  0  0  0  0  0
    9.4571   -3.0487   24.6568 N   0  0  0  0  0  0  0  0  0  0  0  0
    9.1023   -3.6294   25.8437 C   0  0  0  0  0  0  0  0  0  0  0  0
    9.9071   -4.4108   26.6873 C   0  0  0  0  0  0  0  0  0  0  0  0
   10.9395   -4.5676   26.3997 H   0  0  0  0  0  0  0  0  0  0  0  0
    9.3360   -4.9689   27.8259 C   0  0  0  0  0  0  0  0  0  0  0  0
    9.9395   -5.5788   28.4947 H   0  0  0  0  0  0  0  0  0  0  0  0
    7.9658   -4.7386   28.1165 C   0  0  0  0  0  0  0  0  0  0  0  0
    7.5279   -5.1956   29.0015 H   0  0  0  0  0  0  0  0  0  0  0  0
    7.1600   -3.9397   27.2998 C   0  0  0  0  0  0  0  0  0  0  0  0
    6.1266   -3.7382   27.5659 H   0  0  0  0  0  0  0  0  0  0  0  0
    7.7399   -3.4042   26.1334 C   0  0  0  0  0  0  0  0  0  0  0  0
    7.2906   -2.6691   25.0574 N   0  0  0  0  0  0  0  0  0  0  0  0
    6.3519   -2.3611   24.8647 H   0  0  0  0  0  0  0  0  0  0  0  0
    6.6932   -1.2829   22.3538 S   0  0  0  0  0  0  0  0  0  0  0  0
    7.4113   -0.6975   20.8922 C   0  0  0  0  0  0  0  0  0  0  0  0
    6.6401    0.0154   19.8564 C   0  0  0  0  0  0  0  0  0  0  0  0
    7.1311    0.0631   18.5349 C   0  0  0  0  0  0  0  0  0  0  0  0
    8.0692   -0.4415   18.3052 H   0  0  0  0  0  0  0  0  0  0  0  0
    6.5322    0.6893   17.5184 N   0  0  0  0  0  0  0  0  0  0  0  0
    5.3819    1.3257   17.7877 C   0  0  0  0  0  0  0  0  0  0  0  0
    4.9258    1.8469   16.9516 H   0  0  0  0  0  0  0  0  0  0  0  0
    4.7793    1.3379   19.0505 C   0  0  0  0  0  0  0  0  0  0  0  0
    3.8425    1.8699   19.1952 H   0  0  0  0  0  0  0  0  0  0  0  0
    5.4182    0.6812   20.1042 C   0  0  0  0  0  0  0  0  0  0  0  0
    4.9858    0.7077   21.1047 H   0  0  0  0  0  0  0  0  0  0  0  0
  1  2  1  0
  2  3  1  0
  3  4  2  0
  4  5  1  0
  5  6  2  0
  6  7  1  0
  7  8  2  0
  8  9  1  0
  8 10  1  0
 10 11  1  0
 10 12  2  0
 12 13  1  0
 12 14  1  0
 14 15  1  0
 14 16  2  0
 16 17  1  0
 17 18  1  0
  4 19  1  0
 19 20  1  0
 20 21  1  0
 21 22  2  0
 22 23  1  0
 22 24  1  0
 24 25  2  0
 25 26  1  0
 25 27  1  0
 27 28  1  0
 27 29  2  0
 29 30  1  0
 20  2  2  0
 29 21  1  0
 17  5  1  0
 16  7  1  0
M  END
>  <cnnaffinity>  (1) 
-5.19363

>  <filename>  (1) 
[H]c1nc(-c2nc3c([H])c([H])c([H])c([H])c3n2[H])sc1-c1c([H])nc([H])c([H])c1[H]

$$$$
