
     RDKit          3D

 29 31  0  0  0  0  0  0  0  0999 V2000
    5.0144    1.9310   16.9037 H   0  0  0  0  0  0  0  0  0  0  0  0
    5.4883    1.3763   17.7097 C   0  0  0  0  0  0  0  0  0  0  0  0
    6.6619    0.7873   17.4189 N   0  0  0  0  0  0  0  0  0  0  0  0
    7.2822    0.1095   18.3907 C   0  0  0  0  0  0  0  0  0  0  0  0
    8.2478   -0.3297   18.1417 H   0  0  0  0  0  0  0  0  0  0  0  0
    6.7334   -0.0578   19.6810 C   0  0  0  0  0  0  0  0  0  0  0  0
    7.3747   -0.8320   20.6791 N   0  0  0  0  0  0  0  0  0  0  0  0
    6.8094   -1.7653   21.5700 C   0  0  0  0  0  0  0  0  0  0  0  0
    5.6657   -2.1801   21.5027 O   0  0  0  0  0  0  0  0  0  0  0  0
    7.9249   -2.1097   22.4914 C   0  0  0  0  0  0  0  0  0  0  0  0
    7.7770   -3.0114   23.6563 C   0  0  0  0  0  0  0  0  0  0  0  0
    6.8193   -4.0440   23.5826 C   0  0  0  0  0  0  0  0  0  0  0  0
    6.1742   -4.0617   22.7152 H   0  0  0  0  0  0  0  0  0  0  0  0
    6.6911   -5.0031   24.5862 C   0  0  0  0  0  0  0  0  0  0  0  0
    5.9134   -5.7570   24.5213 H   0  0  0  0  0  0  0  0  0  0  0  0
    7.5480   -4.9871   25.6840 C   0  0  0  0  0  0  0  0  0  0  0  0
    7.4940   -5.7423   26.4657 H   0  0  0  0  0  0  0  0  0  0  0  0
    8.4847   -3.9597   25.8063 C   0  0  0  0  0  0  0  0  0  0  0  0
    9.5158   -4.0172   27.1990 Cl  0  0  0  0  0  0  0  0  0  0  0  0
    8.5624   -2.9389   24.8391 C   0  0  0  0  0  0  0  0  0  0  0  0
    9.5434   -1.5492   25.1764 Cl  0  0  0  0  0  0  0  0  0  0  0  0
    9.0153   -1.4516   22.0284 C   0  0  0  0  0  0  0  0  0  0  0  0
   10.0164   -1.4315   22.4352 H   0  0  0  0  0  0  0  0  0  0  0  0
    8.7589   -0.7425   20.8565 N   0  0  0  0  0  0  0  0  0  0  0  0
    9.0909    0.2172   20.8542 H   0  0  0  0  0  0  0  0  0  0  0  0
    5.5134    0.5663   19.9746 C   0  0  0  0  0  0  0  0  0  0  0  0
    5.0921    0.4632   20.9732 H   0  0  0  0  0  0  0  0  0  0  0  0
    4.8847    1.3058   18.9707 C   0  0  0  0  0  0  0  0  0  0  0  0
    3.9496    1.8263   19.1544 H   0  0  0  0  0  0  0  0  0  0  0  0
  1  2  1  0
  2  3  2  0
  3  4  1  0
  4  5  1  0
  4  6  2  0
  6  7  1  0
  7  8  1  0
  8  9  2  0
  8 10  1  0
 10 11  1  0
 11 12  2  0
 12 13  1  0
 12 14  1  0
 14 15  1  0
 14 16  2  0
 16 17  1  0
 16 18  1  0
 18 19  1  0
 18 20  2  0
 20 21  1  0
 10 22  2  0
 22 23  1  0
 22 24  1  0
 24 25  1  0
  6 26  1  0
 26 27  1  0
 26 28  2  0
 28 29  1  0
 28  2  1  0
 24  7  1  0
 20 11  1  0
M  END
>  <cnnaffinity>  (1) 
-5.62294

>  <filename>  (1) 
[H]c1nc([H])c(-n2c(=O)c(-c3c([H])c([H])c([H])c(Cl)c3Cl)c([H])n2[H])c([H])c1[H]

$$$$
