
     RDKit          3D

 30 31  0  0  0  0  0  0  0  0999 V2000
    5.0195    1.6430   16.9533 H   0  0  0  0  0  0  0  0  0  0  0  0
    5.6062    1.1896   17.7528 C   0  0  0  0  0  0  0  0  0  0  0  0
    6.7368    0.5667   17.3842 N   0  0  0  0  0  0  0  0  0  0  0  0
    7.5016    0.0527   18.3486 C   0  0  0  0  0  0  0  0  0  0  0  0
    8.4156   -0.4477   18.0257 H   0  0  0  0  0  0  0  0  0  0  0  0
    7.1933    0.1486   19.7208 C   0  0  0  0  0  0  0  0  0  0  0  0
    8.2349   -0.3469   20.6774 C   0  0  0  0  0  0  0  0  0  0  0  0
    9.1167   -1.0709   20.2523 O   0  0  0  0  0  0  0  0  0  0  0  0
    8.1686   -0.0052   22.2227 C   0  0  0  0  0  0  0  0  0  0  0  0
    7.8568    1.4872   22.4996 C   0  0  0  0  0  0  0  0  0  0  0  0
    7.0805    1.9626   23.5870 C   0  0  0  0  0  0  0  0  0  0  0  0
    6.6437    1.3083   24.3311 H   0  0  0  0  0  0  0  0  0  0  0  0
    6.8207    3.2618   23.8074 N   0  0  0  0  0  0  0  0  0  0  0  0
    7.3118    4.1934   22.9924 N   0  0  0  0  0  0  0  0  0  0  0  0
    8.1131    3.8227   21.9855 C   0  0  0  0  0  0  0  0  0  0  0  0
    8.4714    4.6341   21.3645 H   0  0  0  0  0  0  0  0  0  0  0  0
    8.4423    2.4835   21.7244 C   0  0  0  0  0  0  0  0  0  0  0  0
    9.1534    2.2530   20.9350 H   0  0  0  0  0  0  0  0  0  0  0  0
    7.1383   -0.9690   22.8682 C   0  0  0  0  0  0  0  0  0  0  0  0
    7.4495   -2.0072   22.7514 H   0  0  0  0  0  0  0  0  0  0  0  0
    6.1320   -0.8916   22.4561 H   0  0  0  0  0  0  0  0  0  0  0  0
    7.0768   -0.8056   23.9484 H   0  0  0  0  0  0  0  0  0  0  0  0
    9.5277   -0.3358   22.8767 C   0  0  0  0  0  0  0  0  0  0  0  0
    9.4610   -0.1749   23.9571 H   0  0  0  0  0  0  0  0  0  0  0  0
   10.3415    0.2843   22.4922 H   0  0  0  0  0  0  0  0  0  0  0  0
    9.7845   -1.3819   22.6863 H   0  0  0  0  0  0  0  0  0  0  0  0
    5.9738    0.7374   20.0890 C   0  0  0  0  0  0  0  0  0  0  0  0
    5.6576    0.8012   21.1329 H   0  0  0  0  0  0  0  0  0  0  0  0
    5.1777    1.2797   19.0815 C   0  0  0  0  0  0  0  0  0  0  0  0
    4.2474    1.7824   19.3208 H   0  0  0  0  0  0  0  0  0  0  0  0
  1  2  1  0
  2  3  2  0
  3  4  1  0
  4  5  1  0
  4  6  2  0
  6  7  1  0
  7  8  2  0
  7  9  1  0
  9 10  1  0
 10 11  2  0
 11 12  1  0
 11 13  1  0
 13 14  2  0
 14 15  1  0
 15 16  1  0
 15 17  2  0
 17 18  1  0
  9 19  1  0
 19 20  1  0
 19 21  1  0
 19 22  1  0
  9 23  1  0
 23 24  1  0
 23 25  1  0
 23 26  1  0
  6 27  1  0
 27 28  1  0
 27 29  2  0
 29 30  1  0
 29  2  1  0
 17 10  1  0
M  END
>  <cnnaffinity>  (1) 
-4.09102

>  <filename>  (1) 
[H]c1nc([H])c(C(=O)C(c2c([H])nnc([H])c2[H])(C([H])([H])[H])C([H])([H])[H])c([H])c1[H]

$$$$
