
     RDKit          3D

 31 33  0  0  0  0  0  0  0  0999 V2000
    4.9146    1.8382   16.7876 H   0  0  0  0  0  0  0  0  0  0  0  0
    5.3386    1.4410   17.7076 C   0  0  0  0  0  0  0  0  0  0  0  0
    6.5398    0.8527   17.5943 N   0  0  0  0  0  0  0  0  0  0  0  0
    7.0602    0.3059   18.6977 C   0  0  0  0  0  0  0  0  0  0  0  0
    8.0420   -0.1509   18.5674 H   0  0  0  0  0  0  0  0  0  0  0  0
    6.4346    0.3066   19.9618 C   0  0  0  0  0  0  0  0  0  0  0  0
    7.0031   -0.4833   21.0860 C   0  0  0  0  0  0  0  0  0  0  0  0
    7.2117    0.0899   22.3892 C   0  0  0  0  0  0  0  0  0  0  0  0
    6.9502    1.1213   22.5937 H   0  0  0  0  0  0  0  0  0  0  0  0
    7.7673   -0.5530   23.3710 N   0  0  0  0  0  0  0  0  0  0  0  0
    8.1196   -1.8613   23.1496 N   0  0  0  0  0  0  0  0  0  0  0  0
    9.3292   -2.4118   24.2461 S   0  0  0  0  0  0  0  0  0  0  0  0
   10.7013   -1.4852   23.5616 C   0  0  0  0  0  0  0  0  0  0  0  0
   11.1192   -0.2782   24.1453 C   0  0  0  0  0  0  0  0  0  0  0  0
   10.5038    0.1855   24.9137 H   0  0  0  0  0  0  0  0  0  0  0  0
   12.3008    0.3316   23.7067 C   0  0  0  0  0  0  0  0  0  0  0  0
   12.6568    1.2387   24.1884 H   0  0  0  0  0  0  0  0  0  0  0  0
   13.0590   -0.2624   22.6900 C   0  0  0  0  0  0  0  0  0  0  0  0
   14.0243    0.1554   22.4176 H   0  0  0  0  0  0  0  0  0  0  0  0
   12.5921   -1.4134   22.0476 C   0  0  0  0  0  0  0  0  0  0  0  0
   13.1536   -1.8489   21.2245 H   0  0  0  0  0  0  0  0  0  0  0  0
   11.3921   -2.0053   22.4593 C   0  0  0  0  0  0  0  0  0  0  0  0
   10.9804   -2.8737   21.9566 H   0  0  0  0  0  0  0  0  0  0  0  0
    7.9180   -2.6069   21.9342 C   0  0  0  0  0  0  0  0  0  0  0  0
    8.2303   -3.7779   21.8392 O   0  0  0  0  0  0  0  0  0  0  0  0
    7.3424   -1.7928   20.8935 C   0  0  0  0  0  0  0  0  0  0  0  0
    7.1765   -2.2963   19.9567 H   0  0  0  0  0  0  0  0  0  0  0  0
    5.2285    1.0167   20.0741 C   0  0  0  0  0  0  0  0  0  0  0  0
    4.7485    1.1336   21.0466 H   0  0  0  0  0  0  0  0  0  0  0  0
    4.6520    1.5517   18.9196 C   0  0  0  0  0  0  0  0  0  0  0  0
    3.6952    2.0610   18.9472 H   0  0  0  0  0  0  0  0  0  0  0  0
  1  2  1  0
  2  3  2  0
  3  4  1  0
  4  5  1  0
  4  6  2  0
  6  7  1  0
  7  8  1  0
  8  9  1  0
  8 10  2  0
 10 11  1  0
 11 12  1  0
 12 13  1  0
 13 14  2  0
 14 15  1  0
 14 16  1  0
 16 17  1  0
 16 18  2  0
 18 19  1  0
 18 20  1  0
 20 21  1  0
 20 22  2  0
 22 23  1  0
 11 24  1  0
 24 25  2  0
 24 26  1  0
 26 27  1  0
  6 28  1  0
 28 29  1  0
 28 30  2  0
 30 31  1  0
 30  2  1  0
 26  7  2  0
 22 13  1  0
M  END
>  <cnnaffinity>  (1) 
-5.45967

>  <filename>  (1) 
[H]c1nc([H])c(-c2c([H])nn(Sc3c([H])c([H])c([H])c([H])c3[H])c(=O)c2[H])c([H])c1[H]

$$$$
