
     RDKit          3D

 26 28  0  0  0  0  0  0  0  0999 V2000
    3.8509   -4.1900   23.8557 H   0  0  0  0  0  0  0  0  0  0  0  0
    4.7821   -3.8532   23.4070 C   0  0  0  0  0  0  0  0  0  0  0  0
    5.9104   -3.7545   24.0409 N   0  0  0  0  0  0  0  0  0  0  0  0
    6.8807   -3.2530   23.2078 C   0  0  0  0  0  0  0  0  0  0  0  0
    7.9011   -3.1295   23.5570 H   0  0  0  0  0  0  0  0  0  0  0  0
    6.4807   -2.9510   21.9409 C   0  0  0  0  0  0  0  0  0  0  0  0
    7.2909   -2.2748   20.8904 C   0  0  2  0  0  0  0  0  0  0  0  0
    6.9244   -2.5342   19.8849 H   0  0  0  0  0  0  0  0  0  0  0  0
    8.6369   -2.7188   21.0406 O   0  0  0  0  0  0  0  0  0  0  0  0
    9.4855   -1.6633   21.0843 C   0  0  0  0  0  0  0  0  0  0  0  0
   10.6675   -1.7574   21.2581 O   0  0  0  0  0  0  0  0  0  0  0  0
    8.7811   -0.5165   20.9117 N   0  0  0  0  0  0  0  0  0  0  0  0
    9.3016    0.3096   21.1386 H   0  0  0  0  0  0  0  0  0  0  0  0
    7.3572   -0.6982   20.9977 C   0  0  1  0  0  0  0  0  0  0  0  0
    6.9503   -0.3682   21.9694 H   0  0  0  0  0  0  0  0  0  0  0  0
    6.6242    0.0361   19.8987 C   0  0  0  0  0  0  0  0  0  0  0  0
    7.1467    0.0863   18.5955 C   0  0  0  0  0  0  0  0  0  0  0  0
    8.1024   -0.3862   18.3739 H   0  0  0  0  0  0  0  0  0  0  0  0
    6.5447    0.6987   17.5704 N   0  0  0  0  0  0  0  0  0  0  0  0
    5.3791    1.3170   17.8131 C   0  0  0  0  0  0  0  0  0  0  0  0
    4.9197    1.8153   16.9596 H   0  0  0  0  0  0  0  0  0  0  0  0
    4.7680    1.3384   19.0708 C   0  0  0  0  0  0  0  0  0  0  0  0
    3.8264    1.8668   19.1986 H   0  0  0  0  0  0  0  0  0  0  0  0
    5.4041    0.6836   20.1315 C   0  0  0  0  0  0  0  0  0  0  0  0
    4.9645    0.6775   21.1290 H   0  0  0  0  0  0  0  0  0  0  0  0
    4.8289   -3.3735   21.7482 S   0  0  0  0  0  0  0  0  0  0  0  0
  1  2  1  0
  2  3  2  0
  3  4  1  0
  4  5  1  0
  4  6  2  0
  6  7  1  0
  7  8  1  6
  7  9  1  0
  9 10  1  0
 10 11  2  0
 10 12  1  0
 12 13  1  0
 12 14  1  0
 14 15  1  1
 14 16  1  0
 16 17  2  0
 17 18  1  0
 17 19  1  0
 19 20  2  0
 20 21  1  0
 20 22  1  0
 22 23  1  0
 22 24  2  0
 24 25  1  0
  6 26  1  0
 26  2  1  0
 14  7  1  0
 24 16  1  0
M  END
>  <cnnaffinity>  (1) 
-4.56433

>  <filename>  (1) 
[H]c1nc([H])c([C@]2([H])OC(=O)N([H])[C@@]2([H])c2c([H])nc([H])c([H])c2[H])s1

$$$$
