
     RDKit          3D

 37 40  0  0  0  0  0  0  0  0999 V2000
   12.1954   -2.4961   22.3445 F   0  0  0  0  0  0  0  0  0  0  0  0
   11.1484   -1.7269   21.8694 C   0  0  0  0  0  0  0  0  0  0  0  0
    9.8488   -2.3892   22.2950 C   0  0  0  0  0  0  0  0  0  0  0  0
    8.7039   -1.5266   22.0595 N   0  0  0  0  0  0  0  0  0  0  0  0
    8.4500   -1.0921   20.8029 N   0  0  0  0  0  0  0  0  0  0  0  0
    7.2572   -0.5336   20.9256 C   0  0  0  0  0  0  0  0  0  0  0  0
    6.5548    0.1046   19.8160 C   0  0  0  0  0  0  0  0  0  0  0  0
    5.3234    0.7587   19.9827 C   0  0  0  0  0  0  0  0  0  0  0  0
    4.7604    1.3802   18.8715 C   0  0  0  0  0  0  0  0  0  0  0  0
    5.4348    1.3216   17.6462 C   0  0  0  0  0  0  0  0  0  0  0  0
    6.5975    0.6752   17.4729 N   0  0  0  0  0  0  0  0  0  0  0  0
    7.1392    0.0847   18.5421 C   0  0  0  0  0  0  0  0  0  0  0  0
    8.0845   -0.4304   18.3799 H   0  0  0  0  0  0  0  0  0  0  0  0
    5.0254    1.8159   16.7676 H   0  0  0  0  0  0  0  0  0  0  0  0
    3.8324    1.9355   18.9477 H   0  0  0  0  0  0  0  0  0  0  0  0
    4.8362    0.7908   20.9604 H   0  0  0  0  0  0  0  0  0  0  0  0
    6.7207   -0.6087   22.1660 N   0  0  0  0  0  0  0  0  0  0  0  0
    7.6483   -1.2328   22.8628 C   0  0  0  0  0  0  0  0  0  0  0  0
    7.6015   -1.6952   24.2596 C   0  0  0  0  0  0  0  0  0  0  0  0
    6.6239   -2.5966   24.6893 C   0  0  0  0  0  0  0  0  0  0  0  0
    6.7455   -3.2372   25.9398 C   0  0  0  0  0  0  0  0  0  0  0  0
    7.8135   -2.9458   26.7744 C   0  0  0  0  0  0  0  0  0  0  0  0
    8.0175   -3.6969   27.8680 F   0  0  0  0  0  0  0  0  0  0  0  0
    8.6930   -1.8962   26.4495 C   0  0  0  0  0  0  0  0  0  0  0  0
    8.6091   -1.2789   25.1800 C   0  0  0  0  0  0  0  0  0  0  0  0
    9.6347   -0.2765   25.1683 C   0  0  0  0  0  0  0  0  0  0  0  0
   10.2697   -0.3050   26.3741 C   0  0  0  0  0  0  0  0  0  0  0  0
    9.7021   -1.2874   27.1588 N   0  0  0  0  0  0  0  0  0  0  0  0
    9.9772   -1.5153   28.1029 H   0  0  0  0  0  0  0  0  0  0  0  0
   11.1022    0.2873   26.7336 H   0  0  0  0  0  0  0  0  0  0  0  0
    9.8699    0.3878   24.3523 H   0  0  0  0  0  0  0  0  0  0  0  0
    6.0376   -3.9889   26.2752 H   0  0  0  0  0  0  0  0  0  0  0  0
    5.7853   -2.8314   24.0312 H   0  0  0  0  0  0  0  0  0  0  0  0
    9.9181   -2.6393   23.3541 H   0  0  0  0  0  0  0  0  0  0  0  0
    9.6860   -3.3100   21.7398 H   0  0  0  0  0  0  0  0  0  0  0  0
   11.2094   -1.6573   20.7862 H   0  0  0  0  0  0  0  0  0  0  0  0
   11.2593   -0.7201   22.2826 H   0  0  0  0  0  0  0  0  0  0  0  0
  1  2  1  0
  2  3  1  0
  3  4  1  0
  4  5  1  0
  5  6  2  0
  6  7  1  0
  7  8  2  0
  8  9  1  0
  9 10  2  0
 10 11  1  0
 11 12  2  0
 12 13  1  0
 10 14  1  0
  9 15  1  0
  8 16  1  0
  6 17  1  0
 17 18  2  0
 18 19  1  0
 19 20  2  0
 20 21  1  0
 21 22  2  0
 22 23  1  0
 22 24  1  0
 24 25  2  0
 25 26  1  0
 26 27  2  0
 27 28  1  0
 28 29  1  0
 27 30  1  0
 26 31  1  0
 21 32  1  0
 20 33  1  0
  3 34  1  0
  3 35  1  0
  2 36  1  0
  2 37  1  0
 18  4  1  0
 25 19  1  0
 12  7  1  0
 28 24  1  0
M  END
>  <cnnaffinity>  (1) 
-5.70268

>  <filename>  (1) 
[H]c1nc([H])c(-c2nc(-c3c([H])c([H])c(F)c4c3c([H])c([H])n4[H])n(C([H])([H])C([H])([H])F)n2)c([H])c1[H]

$$$$
