
     RDKit          3D

 43 45  0  0  0  0  0  0  0  0999 V2000
    5.0066    1.8900   16.9144 H   0  0  0  0  0  0  0  0  0  0  0  0
    5.4397    1.3447   17.7505 C   0  0  0  0  0  0  0  0  0  0  0  0
    6.5842    0.6899   17.5020 N   0  0  0  0  0  0  0  0  0  0  0  0
    7.1406    0.0179   18.5206 C   0  0  0  0  0  0  0  0  0  0  0  0
    8.0704   -0.4990   18.2870 H   0  0  0  0  0  0  0  0  0  0  0  0
    6.6075   -0.0560   19.8253 C   0  0  0  0  0  0  0  0  0  0  0  0
    7.2778   -0.7877   20.9278 C   0  0  0  0  0  0  0  0  0  0  0  0
    6.7772   -1.7172   21.8180 C   0  0  0  0  0  0  0  0  0  0  0  0
    5.7650   -2.1051   21.8155 H   0  0  0  0  0  0  0  0  0  0  0  0
    7.8079   -2.0533   22.7362 C   0  0  0  0  0  0  0  0  0  0  0  0
    7.7514   -2.7762   23.5454 H   0  0  0  0  0  0  0  0  0  0  0  0
    8.8923   -1.2864   22.3925 C   0  0  0  0  0  0  0  0  0  0  0  0
    9.8486   -1.1346   22.8728 H   0  0  0  0  0  0  0  0  0  0  0  0
    8.5975   -0.5550   21.2692 N   0  0  0  0  0  0  0  0  0  0  0  0
    9.4193    0.5525   20.7965 C   0  0  0  0  0  0  0  0  0  0  0  0
   10.3917    0.4389   21.2900 H   0  0  0  0  0  0  0  0  0  0  0  0
    9.5808    0.4415   19.7247 H   0  0  0  0  0  0  0  0  0  0  0  0
    8.8066    1.9324   21.1153 C   0  0  0  0  0  0  0  0  0  0  0  0
    9.5263    2.7149   20.8456 H   0  0  0  0  0  0  0  0  0  0  0  0
    7.9138    2.1069   20.5026 H   0  0  0  0  0  0  0  0  0  0  0  0
    8.4653    2.0648   22.6013 C   0  0  0  0  0  0  0  0  0  0  0  0
    7.6532    1.3665   22.8484 H   0  0  0  0  0  0  0  0  0  0  0  0
    8.0873    3.0887   22.7987 H   0  0  0  0  0  0  0  0  0  0  0  0
    9.6428    1.7217   23.3835 N   0  0  0  0  0  0  0  0  0  0  0  0
   10.8202    2.5496   23.1671 C   0  0  0  0  0  0  0  0  0  0  0  0
   10.5696    3.6264   23.1201 H   0  0  0  0  0  0  0  0  0  0  0  0
   11.2942    2.3057   22.2044 H   0  0  0  0  0  0  0  0  0  0  0  0
   11.7481    2.2352   24.3493 C   0  0  0  0  0  0  0  0  0  0  0  0
   12.6902    1.8020   23.9999 H   0  0  0  0  0  0  0  0  0  0  0  0
   11.9853    3.1719   24.8508 H   0  0  0  0  0  0  0  0  0  0  0  0
   10.9561    1.2594   25.2415 C   0  0  0  0  0  0  0  0  0  0  0  0
   11.0078    1.4775   26.3090 H   0  0  0  0  0  0  0  0  0  0  0  0
   11.3160    0.2410   25.0790 H   0  0  0  0  0  0  0  0  0  0  0  0
    9.4958    1.3666   24.7864 C   0  0  1  0  0  0  0  0  0  0  0  0
    8.9949    0.3855   24.8716 H   0  0  0  0  0  0  0  0  0  0  0  0
    8.7025    2.3727   25.6274 C   0  0  0  0  0  0  0  0  0  0  0  0
    9.1362    3.3795   25.5709 H   0  0  0  0  0  0  0  0  0  0  0  0
    7.6610    2.4121   25.2959 H   0  0  0  0  0  0  0  0  0  0  0  0
    8.7021    2.0743   26.6812 H   0  0  0  0  0  0  0  0  0  0  0  0
    5.4037    0.6333   20.0507 C   0  0  0  0  0  0  0  0  0  0  0  0
    4.9721    0.6478   21.0528 H   0  0  0  0  0  0  0  0  0  0  0  0
    4.8115    1.3401   19.0019 C   0  0  0  0  0  0  0  0  0  0  0  0
    3.8889    1.8926   19.1402 H   0  0  0  0  0  0  0  0  0  0  0  0
  1  2  1  0
  2  3  2  0
  3  4  1  0
  4  5  1  0
  4  6  2  0
  6  7  1  0
  7  8  2  0
  8  9  1  0
  8 10  1  0
 10 11  1  0
 10 12  2  0
 12 13  1  0
 12 14  1  0
 14 15  1  0
 15 16  1  0
 15 17  1  0
 15 18  1  0
 18 19  1  0
 18 20  1  0
 18 21  1  0
 21 22  1  0
 21 23  1  0
 21 24  1  0
 24 25  1  0
 25 26  1  0
 25 27  1  0
 25 28  1  0
 28 29  1  0
 28 30  1  0
 28 31  1  0
 31 32  1  0
 31 33  1  0
 31 34  1  0
 34 35  1  6
 34 36  1  0
 36 37  1  0
 36 38  1  0
 36 39  1  0
  6 40  1  0
 40 41  1  0
 40 42  2  0
 42 43  1  0
 42  2  1  0
 14  7  1  0
 34 24  1  0
M  END
>  <cnnaffinity>  (1) 
-5.03349

>  <filename>  (1) 
[H]c1nc([H])c(-c2c([H])c([H])c([H])n2C([H])([H])C([H])([H])C([H])([H])N2C([H])([H])C([H])([H])C([H])([H])[C@@]2([H])C([H])([H])[H])c([H])c1[H]

$$$$
