
     RDKit          3D

 36 37  0  0  0  0  0  0  0  0999 V2000
    4.8410    2.2811   16.6555 H   0  0  0  0  0  0  0  0  0  0  0  0
    5.2629    1.5718   17.3589 C   0  0  0  0  0  0  0  0  0  0  0  0
    6.3460    0.8617   16.9892 N   0  0  0  0  0  0  0  0  0  0  0  0
    6.8840    0.0254   17.8919 C   0  0  0  0  0  0  0  0  0  0  0  0
    7.7771   -0.5266   17.6151 H   0  0  0  0  0  0  0  0  0  0  0  0
    6.3680   -0.1478   19.1880 C   0  0  0  0  0  0  0  0  0  0  0  0
    7.0817   -1.0323   20.1789 C   0  0  2  0  0  0  0  0  0  0  0  0
    7.9639   -1.4790   19.7091 H   0  0  0  0  0  0  0  0  0  0  0  0
    5.8749   -2.4936   20.7737 Br  0  0  0  0  0  0  0  0  0  0  0  0
    7.5284   -0.1807   21.3727 C   0  0  0  0  0  0  0  0  0  0  0  0
    6.6524    0.2129   21.8970 H   0  0  0  0  0  0  0  0  0  0  0  0
    8.1024    0.6741   21.0019 H   0  0  0  0  0  0  0  0  0  0  0  0
    8.3943   -0.9875   22.3403 C   0  0  0  0  0  0  0  0  0  0  0  0
    7.8867   -1.9243   22.5997 H   0  0  0  0  0  0  0  0  0  0  0  0
    9.3357   -1.2372   21.8448 H   0  0  0  0  0  0  0  0  0  0  0  0
    8.6993   -0.1858   23.6114 C   0  0  0  0  0  0  0  0  0  0  0  0
    7.7543    0.1002   24.0908 H   0  0  0  0  0  0  0  0  0  0  0  0
    9.5112   -1.0556   24.5747 C   0  0  0  0  0  0  0  0  0  0  0  0
   10.4578   -1.3413   24.0982 H   0  0  0  0  0  0  0  0  0  0  0  0
    8.9549   -1.9707   24.8116 H   0  0  0  0  0  0  0  0  0  0  0  0
    9.7837   -0.2580   25.8548 C   0  0  0  0  0  0  0  0  0  0  0  0
   10.3084   -0.8640   26.5908 H   0  0  0  0  0  0  0  0  0  0  0  0
    8.8401    0.0347   26.3135 H   0  0  0  0  0  0  0  0  0  0  0  0
   10.5925    1.0001   25.5597 C   0  0  0  0  0  0  0  0  0  0  0  0
   11.5943    0.7283   25.2195 H   0  0  0  0  0  0  0  0  0  0  0  0
   10.7074    1.5608   26.4815 H   0  0  0  0  0  0  0  0  0  0  0  0
    9.9123    1.8816   24.5087 C   0  0  0  0  0  0  0  0  0  0  0  0
   10.5996    2.6796   24.2188 H   0  0  0  0  0  0  0  0  0  0  0  0
    9.0287    2.3630   24.9381 H   0  0  0  0  0  0  0  0  0  0  0  0
    9.5081    1.0784   23.2655 C   0  0  0  0  0  0  0  0  0  0  0  0
   10.4160    0.7770   22.7314 H   0  0  0  0  0  0  0  0  0  0  0  0
    8.9209    1.7215   22.6033 H   0  0  0  0  0  0  0  0  0  0  0  0
    5.2197    0.5590   19.5523 C   0  0  0  0  0  0  0  0  0  0  0  0
    4.7844    0.4531   20.5471 H   0  0  0  0  0  0  0  0  0  0  0  0
    4.6704    1.4398   18.6212 C   0  0  0  0  0  0  0  0  0  0  0  0
    3.8043    2.0463   18.8668 H   0  0  0  0  0  0  0  0  0  0  0  0
  1  2  1  0
  2  3  2  0
  3  4  1  0
  4  5  1  0
  4  6  2  0
  6  7  1  0
  7  8  1  6
  7  9  1  0
  7 10  1  0
 10 11  1  0
 10 12  1  0
 10 13  1  0
 13 14  1  0
 13 15  1  0
 13 16  1  0
 16 17  1  0
 16 18  1  0
 18 19  1  0
 18 20  1  0
 18 21  1  0
 21 22  1  0
 21 23  1  0
 21 24  1  0
 24 25  1  0
 24 26  1  0
 24 27  1  0
 27 28  1  0
 27 29  1  0
 27 30  1  0
 30 31  1  0
 30 32  1  0
  6 33  1  0
 33 34  1  0
 33 35  2  0
 35 36  1  0
 35  2  1  0
 30 16  1  0
M  END
>  <cnnaffinity>  (1) 
-4.92033

>  <filename>  (1) 
[H]c1nc([H])c([C@]([H])(Br)C([H])([H])C([H])([H])C2([H])C([H])([H])C([H])([H])C([H])([H])C([H])([H])C2([H])[H])c([H])c1[H]

$$$$
