
     RDKit          3D

 30 32  0  0  0  0  0  0  0  0999 V2000
    4.9190    1.8178   16.9706 H   0  0  0  0  0  0  0  0  0  0  0  0
    5.3973    1.3080   17.8063 C   0  0  0  0  0  0  0  0  0  0  0  0
    6.5601    0.6977   17.5386 N   0  0  0  0  0  0  0  0  0  0  0  0
    7.1793    0.0780   18.5532 C   0  0  0  0  0  0  0  0  0  0  0  0
    8.1331   -0.3894   18.3073 H   0  0  0  0  0  0  0  0  0  0  0  0
    6.6792    0.0002   19.8660 C   0  0  0  0  0  0  0  0  0  0  0  0
    7.4155   -0.7457   20.9635 C   0  0  2  0  0  0  0  0  0  0  0  0
    8.3342   -1.1947   20.5613 H   0  0  0  0  0  0  0  0  0  0  0  0
    6.6179   -1.8589   21.6663 C   0  0  0  0  0  0  0  0  0  0  0  0
    6.7049   -2.8178   21.1396 H   0  0  0  0  0  0  0  0  0  0  0  0
    5.5431   -1.6288   21.6691 H   0  0  0  0  0  0  0  0  0  0  0  0
    7.1467   -1.9393   23.0305 N   0  0  0  0  0  0  0  0  0  0  0  0
    7.6333   -2.8124   23.1948 H   0  0  0  0  0  0  0  0  0  0  0  0
    8.0130   -0.7888   23.3277 C   0  0  0  0  0  0  0  0  0  0  0  0
    7.7178   -0.3130   24.2719 H   0  0  0  0  0  0  0  0  0  0  0  0
    9.0696   -1.0716   23.4553 H   0  0  0  0  0  0  0  0  0  0  0  0
    7.8451    0.1794   22.1357 C   0  0  1  0  0  0  0  0  0  0  0  0
    7.0516    0.9053   22.3601 H   0  0  0  0  0  0  0  0  0  0  0  0
    9.0531    0.9349   21.8098 N   0  0  0  0  0  0  0  0  0  0  0  0
   10.1983    0.2646   21.6453 N   0  0  0  0  0  0  0  0  0  0  0  0
   11.1167    1.1920   21.4240 C   0  0  0  0  0  0  0  0  0  0  0  0
   12.1348    0.8735   21.2659 H   0  0  0  0  0  0  0  0  0  0  0  0
   10.5646    2.4808   21.4309 C   0  0  0  0  0  0  0  0  0  0  0  0
   11.1291    3.3968   21.3254 H   0  0  0  0  0  0  0  0  0  0  0  0
    9.2145    2.2735   21.6624 C   0  0  0  0  0  0  0  0  0  0  0  0
    8.3417    2.9124   21.6911 H   0  0  0  0  0  0  0  0  0  0  0  0
    5.4615    0.6513   20.1172 C   0  0  0  0  0  0  0  0  0  0  0  0
    5.0209    0.6402   21.1183 H   0  0  0  0  0  0  0  0  0  0  0  0
    4.8075    1.3139   19.0758 C   0  0  0  0  0  0  0  0  0  0  0  0
    3.8707    1.8403   19.2330 H   0  0  0  0  0  0  0  0  0  0  0  0
  1  2  1  0
  2  3  2  0
  3  4  1  0
  4  5  1  0
  4  6  2  0
  6  7  1  0
  7  8  1  6
  7  9  1  0
  9 10  1  0
  9 11  1  0
  9 12  1  0
 12 13  1  0
 12 14  1  0
 14 15  1  0
 14 16  1  0
 14 17  1  0
 17 18  1  1
 17 19  1  0
 19 20  1  0
 20 21  2  0
 21 22  1  0
 21 23  1  0
 23 24  1  0
 23 25  2  0
 25 26  1  0
  6 27  1  0
 27 28  1  0
 27 29  2  0
 29 30  1  0
 29  2  1  0
 17  7  1  0
 25 19  1  0
M  END
>  <cnnaffinity>  (1) 
-4.86164

>  <filename>  (1) 
[H]c1nc([H])c([C@]2([H])C([H])([H])N([H])C([H])([H])[C@@]2([H])n2nc([H])c([H])c2[H])c([H])c1[H]

$$$$
