
     RDKit          3D

 27 28  0  0  0  0  0  0  0  0999 V2000
    4.9175    1.7785   16.9992 H   0  0  0  0  0  0  0  0  0  0  0  0
    5.4031    1.2919   17.8409 C   0  0  0  0  0  0  0  0  0  0  0  0
    6.5650    0.6722   17.5765 N   0  0  0  0  0  0  0  0  0  0  0  0
    7.1687    0.0546   18.5996 C   0  0  0  0  0  0  0  0  0  0  0  0
    8.1193   -0.4323   18.3745 H   0  0  0  0  0  0  0  0  0  0  0  0
    6.6453   -0.0004   19.9004 C   0  0  0  0  0  0  0  0  0  0  0  0
    7.3743   -0.7095   20.9480 C   0  0  0  0  0  0  0  0  0  0  0  0
    8.5703   -0.2881   21.4835 C   0  0  0  0  0  0  0  0  0  0  0  0
    9.2082    1.0258   21.1333 C   0  0  0  0  0  0  0  0  0  0  0  0
   10.2933    0.9693   21.2281 H   0  0  0  0  0  0  0  0  0  0  0  0
    8.9668    1.3027   20.1124 H   0  0  0  0  0  0  0  0  0  0  0  0
    8.7420    2.1604   22.0305 C   0  0  0  0  0  0  0  0  0  0  0  0
    7.4110    2.3497   21.9506 F   0  0  0  0  0  0  0  0  0  0  0  0
    9.3196    3.3145   21.7052 F   0  0  0  0  0  0  0  0  0  0  0  0
    9.0451    1.9399   23.3239 F   0  0  0  0  0  0  0  0  0  0  0  0
    9.1652   -1.0641   22.5257 C   0  0  0  0  0  0  0  0  0  0  0  0
   10.0952   -0.7046   22.9757 H   0  0  0  0  0  0  0  0  0  0  0  0
    8.5821   -2.2096   22.9579 C   0  0  0  0  0  0  0  0  0  0  0  0
    8.9983   -2.8315   23.7307 H   0  0  0  0  0  0  0  0  0  0  0  0
    7.3216   -2.6817   22.4037 C   0  0  0  0  0  0  0  0  0  0  0  0
    6.7289   -3.6994   22.7209 O   0  0  0  0  0  0  0  0  0  0  0  0
    6.7970   -1.8621   21.4174 N   0  0  0  0  0  0  0  0  0  0  0  0
    5.9291   -2.1954   21.0411 H   0  0  0  0  0  0  0  0  0  0  0  0
    5.4233    0.6393   20.1560 C   0  0  0  0  0  0  0  0  0  0  0  0
    5.0103    0.6294   21.1701 H   0  0  0  0  0  0  0  0  0  0  0  0
    4.8011    1.3100   19.1058 C   0  0  0  0  0  0  0  0  0  0  0  0
    3.8718    1.8468   19.2601 H   0  0  0  0  0  0  0  0  0  0  0  0
  1  2  1  0
  2  3  2  0
  3  4  1  0
  4  5  1  0
  4  6  2  0
  6  7  1  0
  7  8  2  0
  8  9  1  0
  9 10  1  0
  9 11  1  0
  9 12  1  0
 12 13  1  0
 12 14  1  0
 12 15  1  0
  8 16  1  0
 16 17  1  0
 16 18  2  0
 18 19  1  0
 18 20  1  0
 20 21  2  0
 20 22  1  0
 22 23  1  0
  6 24  1  0
 24 25  1  0
 24 26  2  0
 26 27  1  0
 26  2  1  0
 22  7  1  0
M  END
>  <cnnaffinity>  (1) 
-4.85481

>  <filename>  (1) 
[H]c1nc([H])c(-c2c(C([H])([H])C(F)(F)F)c([H])c([H])c(=O)n2[H])c([H])c1[H]

$$$$
