
     RDKit          3D

 25 26  0  0  0  0  0  0  0  0999 V2000
    8.3517   -1.6119   26.3653 H   0  0  0  0  0  0  0  0  0  0  0  0
    7.8241   -0.6889   26.1342 C   0  0  0  0  0  0  0  0  0  0  0  0
    8.3343    0.2279   26.4358 H   0  0  0  0  0  0  0  0  0  0  0  0
    6.6340   -0.6738   25.5322 C   0  0  0  0  0  0  0  0  0  0  0  0
    6.1687   -1.6086   25.2006 H   0  0  0  0  0  0  0  0  0  0  0  0
    5.9010    0.6086   25.2636 C   0  0  0  0  0  0  0  0  0  0  0  0
    4.8412    0.5699   25.5220 H   0  0  0  0  0  0  0  0  0  0  0  0
    6.3820    1.4531   25.7682 H   0  0  0  0  0  0  0  0  0  0  0  0
    5.8250    0.9402   23.7831 O   0  0  0  0  0  0  0  0  0  0  0  0
    7.2118    1.3180   22.7764 S   0  0  0  0  0  0  0  0  0  0  0  0
    7.7212   -0.2608   22.1100 C   0  0  0  0  0  0  0  0  0  0  0  0
    8.4710   -1.1941   22.6742 N   0  0  0  0  0  0  0  0  0  0  0  0
    8.5590   -2.2008   21.7756 N   0  0  0  0  0  0  0  0  0  0  0  0
    7.9241   -1.9236   20.7006 N   0  0  0  0  0  0  0  0  0  0  0  0
    7.3814   -0.7075   20.8667 N   0  0  0  0  0  0  0  0  0  0  0  0
    6.6397   -0.0516   19.8396 C   0  0  0  0  0  0  0  0  0  0  0  0
    7.1753    0.0147   18.5422 C   0  0  0  0  0  0  0  0  0  0  0  0
    8.1288   -0.4648   18.3308 H   0  0  0  0  0  0  0  0  0  0  0  0
    6.5716    0.6668   17.5466 N   0  0  0  0  0  0  0  0  0  0  0  0
    5.4100    1.2872   17.8162 C   0  0  0  0  0  0  0  0  0  0  0  0
    4.9447    1.8166   16.9904 H   0  0  0  0  0  0  0  0  0  0  0  0
    4.8086    1.2737   19.0802 C   0  0  0  0  0  0  0  0  0  0  0  0
    3.8877    1.8174   19.2523 H   0  0  0  0  0  0  0  0  0  0  0  0
    5.4301    0.5863   20.1231 C   0  0  0  0  0  0  0  0  0  0  0  0
    5.0065    0.6027   21.1318 H   0  0  0  0  0  0  0  0  0  0  0  0
  1  2  1  0
  2  3  1  0
  2  4  2  3
  4  5  1  0
  4  6  1  0
  6  7  1  0
  6  8  1  0
  6  9  1  0
  9 10  1  0
 10 11  1  0
 11 12  2  0
 12 13  1  0
 13 14  2  0
 14 15  1  0
 15 16  1  0
 16 17  2  0
 17 18  1  0
 17 19  1  0
 19 20  2  0
 20 21  1  0
 20 22  1  0
 22 23  1  0
 22 24  2  0
 24 25  1  0
 15 11  1  0
 24 16  1  0
M  END
>  <cnnaffinity>  (1) 
-4.59236

>  <filename>  (1) 
[H]C([H])=C([H])C([H])([H])OSc1nnnn1-c1c([H])nc([H])c([H])c1[H]

$$$$
