
     RDKit          3D

 43 45  0  0  0  0  0  0  0  0999 V2000
    7.8105    1.2303   22.3850 C   0  0  0  0  0  0  0  0  0  0  0  0
    8.3407   -0.0675   21.7662 C   0  0  0  0  0  0  0  0  0  0  0  0
    9.5902    0.2064   20.9307 C   0  0  0  0  0  0  0  0  0  0  0  0
    9.3671    0.9319   20.1426 H   0  0  0  0  0  0  0  0  0  0  0  0
   10.3881    0.6212   21.5564 H   0  0  0  0  0  0  0  0  0  0  0  0
    9.9644   -0.7105   20.4665 H   0  0  0  0  0  0  0  0  0  0  0  0
    7.3185   -0.7482   20.9290 N   0  0  0  0  0  0  0  0  0  0  0  0
    6.9728   -2.0925   21.0589 C   0  0  0  0  0  0  0  0  0  0  0  0
    6.3999   -2.7281   20.1955 O   0  0  0  0  0  0  0  0  0  0  0  0
    7.2940   -2.6337   22.3322 N   0  0  0  0  0  0  0  0  0  0  0  0
    7.5484   -4.0830   22.3980 C   0  0  0  0  0  0  0  0  0  0  0  0
    7.8409   -4.5576   23.8299 C   0  0  0  0  0  0  0  0  0  0  0  0
    8.4362   -5.8078   24.0636 C   0  0  0  0  0  0  0  0  0  0  0  0
    8.7205   -6.2422   25.3637 C   0  0  0  0  0  0  0  0  0  0  0  0
    8.3604   -5.4577   26.4646 C   0  0  0  0  0  0  0  0  0  0  0  0
    7.7539   -4.2234   26.2541 C   0  0  0  0  0  0  0  0  0  0  0  0
    7.5104   -3.7689   24.9482 C   0  0  0  0  0  0  0  0  0  0  0  0
    6.9417   -2.3888   24.7506 C   0  0  0  0  0  0  0  0  0  0  0  0
    7.9114   -1.4391   24.9984 F   0  0  0  0  0  0  0  0  0  0  0  0
    5.9629   -2.1225   25.6646 F   0  0  0  0  0  0  0  0  0  0  0  0
    6.3542   -2.1805   23.3695 C   0  0  0  0  0  0  0  0  0  0  0  0
    5.4030   -2.7418   23.3338 H   0  0  0  0  0  0  0  0  0  0  0  0
    6.1437   -1.1094   23.2830 H   0  0  0  0  0  0  0  0  0  0  0  0
    7.4734   -3.5974   27.0968 H   0  0  0  0  0  0  0  0  0  0  0  0
    8.5561   -5.8040   27.4761 H   0  0  0  0  0  0  0  0  0  0  0  0
    9.2435   -7.1754   25.5428 H   0  0  0  0  0  0  0  0  0  0  0  0
    8.6768   -6.4585   23.2294 H   0  0  0  0  0  0  0  0  0  0  0  0
    6.7110   -4.6559   21.9686 H   0  0  0  0  0  0  0  0  0  0  0  0
    8.4237   -4.3088   21.7798 H   0  0  0  0  0  0  0  0  0  0  0  0
    6.6653   -0.0090   19.8869 C   0  0  0  0  0  0  0  0  0  0  0  0
    5.4537    0.6427   20.1427 C   0  0  0  0  0  0  0  0  0  0  0  0
    4.8176    1.3148   19.0940 C   0  0  0  0  0  0  0  0  0  0  0  0
    5.4178    1.3093   17.8316 C   0  0  0  0  0  0  0  0  0  0  0  0
    6.5786    0.6867   17.5643 N   0  0  0  0  0  0  0  0  0  0  0  0
    7.1769    0.0441   18.5779 C   0  0  0  0  0  0  0  0  0  0  0  0
    8.1202   -0.4647   18.3596 H   0  0  0  0  0  0  0  0  0  0  0  0
    4.9476    1.8177   16.9919 H   0  0  0  0  0  0  0  0  0  0  0  0
    3.8766    1.8382   19.2425 H   0  0  0  0  0  0  0  0  0  0  0  0
    5.0356    0.6356   21.1531 H   0  0  0  0  0  0  0  0  0  0  0  0
    8.6085   -0.7485   22.5806 H   0  0  0  0  0  0  0  0  0  0  0  0
    8.5675    1.6785   23.0381 H   0  0  0  0  0  0  0  0  0  0  0  0
    7.5634    1.9668   21.6123 H   0  0  0  0  0  0  0  0  0  0  0  0
    6.9182    1.0653   22.9970 H   0  0  0  0  0  0  0  0  0  0  0  0
  1  2  1  0
  2  3  1  0
  3  4  1  0
  3  5  1  0
  3  6  1  0
  2  7  1  0
  7  8  1  0
  8  9  2  0
  8 10  1  0
 10 11  1  0
 11 12  1  0
 12 13  2  0
 13 14  1  0
 14 15  2  0
 15 16  1  0
 16 17  2  0
 17 18  1  0
 18 19  1  0
 18 20  1  0
 18 21  1  0
 21 22  1  0
 21 23  1  0
 16 24  1  0
 15 25  1  0
 14 26  1  0
 13 27  1  0
 11 28  1  0
 11 29  1  0
  7 30  1  0
 30 31  2  0
 31 32  1  0
 32 33  2  0
 33 34  1  0
 34 35  2  0
 35 36  1  0
 33 37  1  0
 32 38  1  0
 31 39  1  0
  2 40  1  0
  1 41  1  0
  1 42  1  0
  1 43  1  0
 21 10  1  0
 35 30  1  0
 17 12  1  0
M  END
>  <cnnaffinity>  (1) 
-5.50858

>  <filename>  (1) 
[H]c1nc([H])c(N(C(=O)N2C([H])([H])c3c([H])c([H])c([H])c([H])c3C(F)(F)C2([H])[H])C([H])(C([H])([H])[H])C([H])([H])[H])c([H])c1[H]

$$$$
