
     RDKit          3D

 27 28  0  0  0  0  0  0  0  0999 V2000
    4.8421    1.9157   17.0010 H   0  0  0  0  0  0  0  0  0  0  0  0
    5.3391    1.3704   17.8007 C   0  0  0  0  0  0  0  0  0  0  0  0
    6.4866    0.7566   17.4668 N   0  0  0  0  0  0  0  0  0  0  0  0
    7.1330    0.0779   18.4192 C   0  0  0  0  0  0  0  0  0  0  0  0
    8.0697   -0.4075   18.1453 H   0  0  0  0  0  0  0  0  0  0  0  0
    6.6648   -0.0418   19.7453 C   0  0  0  0  0  0  0  0  0  0  0  0
    7.3514   -0.8025   20.7402 N   0  0  0  0  0  0  0  0  0  0  0  0
    6.8558   -1.5869   21.1531 H   0  0  0  0  0  0  0  0  0  0  0  0
    8.6388   -0.6517   21.1459 C   0  0  0  0  0  0  0  0  0  0  0  0
    9.5532    0.6669   20.7260 S   0  0  0  0  0  0  0  0  0  0  0  0
    9.1837   -1.8154   21.9840 C   0  0  0  0  0  0  0  0  0  0  0  0
    8.3163   -2.7802   22.3690 N   0  0  0  0  0  0  0  0  0  0  0  0
    8.7614   -3.8200   23.0830 C   0  0  0  0  0  0  0  0  0  0  0  0
    7.8508   -5.0614   23.2557 C   0  0  0  0  0  0  0  0  0  0  0  0
    8.3100   -6.0793   22.4905 F   0  0  0  0  0  0  0  0  0  0  0  0
    6.5780   -4.8666   22.9047 F   0  0  0  0  0  0  0  0  0  0  0  0
    7.8694   -5.5035   24.5293 F   0  0  0  0  0  0  0  0  0  0  0  0
   10.0840   -3.8921   23.5479 C   0  0  0  0  0  0  0  0  0  0  0  0
   10.3920   -4.7146   24.1839 H   0  0  0  0  0  0  0  0  0  0  0  0
   11.0091   -2.9716   23.0430 C   0  0  0  0  0  0  0  0  0  0  0  0
   12.0723   -3.1181   23.1989 H   0  0  0  0  0  0  0  0  0  0  0  0
   10.5595   -1.9136   22.2537 C   0  0  0  0  0  0  0  0  0  0  0  0
   11.2300   -1.1668   21.8378 H   0  0  0  0  0  0  0  0  0  0  0  0
    5.4710    0.6007   20.0805 C   0  0  0  0  0  0  0  0  0  0  0  0
    5.1075    0.5476   21.1055 H   0  0  0  0  0  0  0  0  0  0  0  0
    4.7953    1.3224   19.0880 C   0  0  0  0  0  0  0  0  0  0  0  0
    3.8693    1.8445   19.3001 H   0  0  0  0  0  0  0  0  0  0  0  0
  1  2  1  0
  2  3  2  0
  3  4  1  0
  4  5  1  0
  4  6  2  0
  6  7  1  0
  7  8  1  0
  7  9  1  0
  9 10  2  0
  9 11  1  0
 11 12  2  0
 12 13  1  0
 13 14  1  0
 14 15  1  0
 14 16  1  0
 14 17  1  0
 13 18  2  0
 18 19  1  0
 18 20  1  0
 20 21  1  0
 20 22  2  0
 22 23  1  0
  6 24  1  0
 24 25  1  0
 24 26  2  0
 26 27  1  0
 26  2  1  0
 22 11  1  0
M  END
>  <cnnaffinity>  (1) 
-5.49698

>  <filename>  (1) 
[H]c1nc([H])c(N([H])C(=S)c2nc(C(F)(F)F)c([H])c([H])c2[H])c([H])c1[H]

$$$$
