
     RDKit          3D

 40 42  0  0  0  0  0  0  0  0999 V2000
    8.2894   -5.7471   23.1325 C   0  0  0  0  0  0  0  0  0  0  0  0
    7.5477   -4.4364   22.9056 C   0  0  0  0  0  0  0  0  0  0  0  0
    8.4927   -3.5211   22.1257 C   0  0  0  0  0  0  0  0  0  0  0  0
    7.9438   -2.1575   21.8632 C   0  0  0  0  0  0  0  0  0  0  0  0
    7.7307   -1.7597   20.6350 N   0  0  0  0  0  0  0  0  0  0  0  0
    7.2734   -0.5065   20.7983 N   0  0  0  0  0  0  0  0  0  0  0  0
    6.6319    0.1949   19.7713 C   0  0  0  0  0  0  0  0  0  0  0  0
    5.5113    1.0018   20.0204 C   0  0  0  0  0  0  0  0  0  0  0  0
    4.8800    1.5928   18.9243 C   0  0  0  0  0  0  0  0  0  0  0  0
    5.3753    1.3675   17.6329 C   0  0  0  0  0  0  0  0  0  0  0  0
    6.4487    0.5919   17.3912 N   0  0  0  0  0  0  0  0  0  0  0  0
    7.0581    0.0169   18.4463 C   0  0  0  0  0  0  0  0  0  0  0  0
    7.9359   -0.5985   18.2675 H   0  0  0  0  0  0  0  0  0  0  0  0
    4.8723    1.8331   16.7933 H   0  0  0  0  0  0  0  0  0  0  0  0
    4.0080    2.2298   19.0515 H   0  0  0  0  0  0  0  0  0  0  0  0
    5.1190    1.1493   21.0277 H   0  0  0  0  0  0  0  0  0  0  0  0
    7.3314   -0.1666   22.1383 C   0  0  0  0  0  0  0  0  0  0  0  0
    7.0556    1.2344   22.6210 C   0  0  0  0  0  0  0  0  0  0  0  0
    8.0369    1.7011   23.5636 O   0  0  0  0  0  0  0  0  0  0  0  0
    9.3109    1.9293   23.0882 C   0  0  0  0  0  0  0  0  0  0  0  0
    9.5801    2.1604   21.7313 C   0  0  0  0  0  0  0  0  0  0  0  0
   10.8964    2.3679   21.2964 C   0  0  0  0  0  0  0  0  0  0  0  0
   11.9547    2.3582   22.2048 C   0  0  0  0  0  0  0  0  0  0  0  0
   11.6951    2.1465   23.5562 C   0  0  0  0  0  0  0  0  0  0  0  0
   10.3812    1.9302   23.9967 C   0  0  0  0  0  0  0  0  0  0  0  0
   10.0565    1.5709   25.8412 Br  0  0  0  0  0  0  0  0  0  0  0  0
   12.5269    2.1353   24.2535 H   0  0  0  0  0  0  0  0  0  0  0  0
   12.9736    2.5190   21.8666 H   0  0  0  0  0  0  0  0  0  0  0  0
   11.1105    2.5544   20.2532 H   0  0  0  0  0  0  0  0  0  0  0  0
    8.7507    2.1839   21.0328 H   0  0  0  0  0  0  0  0  0  0  0  0
    6.0725    1.2507   23.0987 H   0  0  0  0  0  0  0  0  0  0  0  0
    7.0348    1.8989   21.7494 H   0  0  0  0  0  0  0  0  0  0  0  0
    7.7095   -1.2026   22.8402 N   0  0  0  0  0  0  0  0  0  0  0  0
    8.7016   -3.9886   21.1607 H   0  0  0  0  0  0  0  0  0  0  0  0
    9.4334   -3.4220   22.6715 H   0  0  0  0  0  0  0  0  0  0  0  0
    6.6422   -4.6229   22.3241 H   0  0  0  0  0  0  0  0  0  0  0  0
    7.2486   -3.9956   23.8670 H   0  0  0  0  0  0  0  0  0  0  0  0
    9.0746   -5.6004   23.8782 H   0  0  0  0  0  0  0  0  0  0  0  0
    8.7468   -6.0987   22.2013 H   0  0  0  0  0  0  0  0  0  0  0  0
    7.6078   -6.5222   23.4798 H   0  0  0  0  0  0  0  0  0  0  0  0
  1  2  1  0
  2  3  1  0
  3  4  1  0
  4  5  2  0
  5  6  1  0
  6  7  1  0
  7  8  2  0
  8  9  1  0
  9 10  2  0
 10 11  1  0
 11 12  2  0
 12 13  1  0
 10 14  1  0
  9 15  1  0
  8 16  1  0
  6 17  1  0
 17 18  1  0
 18 19  1  0
 19 20  1  0
 20 21  2  0
 21 22  1  0
 22 23  2  0
 23 24  1  0
 24 25  2  0
 25 26  1  0
 24 27  1  0
 23 28  1  0
 22 29  1  0
 21 30  1  0
 18 31  1  0
 18 32  1  0
 17 33  2  0
  3 34  1  0
  3 35  1  0
  2 36  1  0
  2 37  1  0
  1 38  1  0
  1 39  1  0
  1 40  1  0
 33  4  1  0
 12  7  1  0
 25 20  1  0
M  END
>  <cnnaffinity>  (1) 
-5.43026

>  <filename>  (1) 
[H]c1nc([H])c(-n2nc(C([H])([H])C([H])([H])C([H])([H])[H])nc2C([H])([H])Oc2c([H])c([H])c([H])c([H])c2Br)c([H])c1[H]

$$$$
