
     RDKit          3D

 38 41  0  0  0  0  0  0  0  0999 V2000
   11.9187    2.5360   21.3170 C   0  0  0  0  0  0  0  0  0  0  0  0
   11.5436    1.4975   22.3701 C   0  0  0  0  0  0  0  0  0  0  0  0
   10.1209    1.1705   22.3374 N   0  0  0  0  0  0  0  0  0  0  0  0
    9.6786    0.2116   21.4911 N   0  0  0  0  0  0  0  0  0  0  0  0
    8.3770    0.2055   21.6931 C   0  0  0  0  0  0  0  0  0  0  0  0
    7.4532   -0.7018   20.9212 C   0  0  0  0  0  0  0  0  0  0  0  0
    6.6945   -0.0295   19.7791 C   0  0  0  0  0  0  0  0  0  0  0  0
    5.4948    0.6403   20.0475 C   0  0  0  0  0  0  0  0  0  0  0  0
    4.8420    1.3176   19.0158 C   0  0  0  0  0  0  0  0  0  0  0  0
    5.4179    1.2999   17.7432 C   0  0  0  0  0  0  0  0  0  0  0  0
    6.5492    0.6387   17.4523 N   0  0  0  0  0  0  0  0  0  0  0  0
    7.1593   -0.0127   18.4509 C   0  0  0  0  0  0  0  0  0  0  0  0
    8.0651   -0.5606   18.1804 H   0  0  0  0  0  0  0  0  0  0  0  0
    4.9472    1.8294   16.9167 H   0  0  0  0  0  0  0  0  0  0  0  0
    3.9151    1.8548   19.1850 H   0  0  0  0  0  0  0  0  0  0  0  0
    5.0898    0.6197   21.0609 H   0  0  0  0  0  0  0  0  0  0  0  0
    8.0617   -1.5321   20.5513 H   0  0  0  0  0  0  0  0  0  0  0  0
    6.7318   -1.1172   21.6355 H   0  0  0  0  0  0  0  0  0  0  0  0
    7.9502    1.0824   22.6361 N   0  0  0  0  0  0  0  0  0  0  0  0
    9.0640    1.7069   22.9982 C   0  0  0  0  0  0  0  0  0  0  0  0
    9.1760    2.7954   24.0109 C   0  0  0  0  0  0  0  0  0  0  0  0
    8.6745    2.5409   25.3133 C   0  0  0  0  0  0  0  0  0  0  0  0
    8.7252    3.5057   26.3072 C   0  0  0  0  0  0  0  0  0  0  0  0
    9.2924    4.7575   26.0092 C   0  0  0  0  0  0  0  0  0  0  0  0
    9.5223    6.1530   27.0213 S   0  0  0  0  0  0  0  0  0  0  0  0
   10.2139    7.0880   25.7941 N   0  0  0  0  0  0  0  0  0  0  0  0
   10.2799    6.4083   24.6964 C   0  0  0  0  0  0  0  0  0  0  0  0
    9.7857    5.0434   24.7221 C   0  0  0  0  0  0  0  0  0  0  0  0
    9.7215    4.0498   23.7194 C   0  0  0  0  0  0  0  0  0  0  0  0
   10.0464    4.2765   22.7071 H   0  0  0  0  0  0  0  0  0  0  0  0
   10.7021    6.8972   23.8218 H   0  0  0  0  0  0  0  0  0  0  0  0
    8.3303    3.2975   27.2946 H   0  0  0  0  0  0  0  0  0  0  0  0
    8.2325    1.5689   25.5247 H   0  0  0  0  0  0  0  0  0  0  0  0
   11.7791    1.8395   23.3839 H   0  0  0  0  0  0  0  0  0  0  0  0
   12.0833    0.5600   22.2008 H   0  0  0  0  0  0  0  0  0  0  0  0
   11.7807    2.1418   20.3046 H   0  0  0  0  0  0  0  0  0  0  0  0
   12.9484    2.8608   21.4658 H   0  0  0  0  0  0  0  0  0  0  0  0
   11.3035    3.4250   21.4151 H   0  0  0  0  0  0  0  0  0  0  0  0
  1  2  1  0
  2  3  1  0
  3  4  1  0
  4  5  2  0
  5  6  1  0
  6  7  1  0
  7  8  2  0
  8  9  1  0
  9 10  2  0
 10 11  1  0
 11 12  2  0
 12 13  1  0
 10 14  1  0
  9 15  1  0
  8 16  1  0
  6 17  1  0
  6 18  1  0
  5 19  1  0
 19 20  2  0
 20 21  1  0
 21 22  2  0
 22 23  1  0
 23 24  2  0
 24 25  1  0
 25 26  1  0
 26 27  2  0
 27 28  1  0
 28 29  2  0
 29 30  1  0
 27 31  1  0
 23 32  1  0
 22 33  1  0
  2 34  1  0
  2 35  1  0
  1 36  1  0
  1 37  1  0
  1 38  1  0
 20  3  1  0
 29 21  1  0
 12  7  1  0
 28 24  1  0
M  END
>  <cnnaffinity>  (1) 
-5.89311

>  <filename>  (1) 
[H]c1nc([H])c(C([H])([H])c2nc(-c3c([H])c([H])c4snc([H])c4c3[H])n(C([H])([H])C([H])([H])[H])n2)c([H])c1[H]

$$$$
