
     RDKit          3D

 39 41  0  0  0  0  0  0  0  0999 V2000
    5.0082    1.8798   16.9196 H   0  0  0  0  0  0  0  0  0  0  0  0
    5.4828    1.3494   17.7405 C   0  0  0  0  0  0  0  0  0  0  0  0
    6.6589    0.7609   17.4592 N   0  0  0  0  0  0  0  0  0  0  0  0
    7.2809    0.1054   18.4455 C   0  0  0  0  0  0  0  0  0  0  0  0
    8.2431   -0.3486   18.2086 H   0  0  0  0  0  0  0  0  0  0  0  0
    6.7365   -0.0316   19.7423 C   0  0  0  0  0  0  0  0  0  0  0  0
    7.3843   -0.7912   20.7476 N   0  0  0  0  0  0  0  0  0  0  0  0
    6.8193   -1.7478   21.6097 C   0  0  0  0  0  0  0  0  0  0  0  0
    5.6836   -2.1838   21.4967 O   0  0  0  0  0  0  0  0  0  0  0  0
    7.9453   -2.0747   22.5651 C   0  0  0  0  0  0  0  0  0  0  0  0
    7.9311   -2.9615   23.6592 N   0  0  0  0  0  0  0  0  0  0  0  0
    6.7092   -3.7197   23.9572 C   0  0  0  0  0  0  0  0  0  0  0  0
    6.1769   -3.9293   23.0289 H   0  0  0  0  0  0  0  0  0  0  0  0
    6.0391   -3.1265   24.6045 H   0  0  0  0  0  0  0  0  0  0  0  0
    7.0667   -5.0132   24.6943 C   0  0  0  0  0  0  0  0  0  0  0  0
    6.1436   -5.5624   24.9180 H   0  0  0  0  0  0  0  0  0  0  0  0
    7.6768   -5.6545   24.0281 H   0  0  0  0  0  0  0  0  0  0  0  0
    7.7478   -4.7234   25.9615 N   0  0  0  0  0  0  0  0  0  0  0  0
    7.9959   -5.9298   26.7509 C   0  0  0  0  0  0  0  0  0  0  0  0
    8.8551   -6.5220   26.3711 H   0  0  0  0  0  0  0  0  0  0  0  0
    7.1177   -6.5841   26.6678 H   0  0  0  0  0  0  0  0  0  0  0  0
    8.1998   -5.5860   28.2165 C   0  0  0  0  0  0  0  0  0  0  0  0
    9.0944   -4.9708   28.3401 H   0  0  0  0  0  0  0  0  0  0  0  0
    8.3292   -6.4873   28.8233 H   0  0  0  0  0  0  0  0  0  0  0  0
    7.3389   -5.0259   28.5949 H   0  0  0  0  0  0  0  0  0  0  0  0
    8.9537   -3.9101   25.7086 C   0  0  0  0  0  0  0  0  0  0  0  0
    9.4026   -3.6239   26.6658 H   0  0  0  0  0  0  0  0  0  0  0  0
    9.7262   -4.4796   25.1569 H   0  0  0  0  0  0  0  0  0  0  0  0
    8.6100   -2.6277   24.9271 C   0  0  0  0  0  0  0  0  0  0  0  0
    9.5194   -2.0529   24.7317 H   0  0  0  0  0  0  0  0  0  0  0  0
    7.9499   -2.0088   25.5602 H   0  0  0  0  0  0  0  0  0  0  0  0
    9.0383   -1.4305   22.0853 C   0  0  0  0  0  0  0  0  0  0  0  0
   10.0389   -1.4488   22.4997 H   0  0  0  0  0  0  0  0  0  0  0  0
    8.7823   -0.7154   20.9028 N   0  0  0  0  0  0  0  0  0  0  0  0
    9.1084    0.2486   20.8840 H   0  0  0  0  0  0  0  0  0  0  0  0
    5.5121    0.5963   20.0265 C   0  0  0  0  0  0  0  0  0  0  0  0
    5.0905    0.5273   21.0288 H   0  0  0  0  0  0  0  0  0  0  0  0
    4.8805    1.3064   19.0025 C   0  0  0  0  0  0  0  0  0  0  0  0
    3.9424    1.8276   19.1697 H   0  0  0  0  0  0  0  0  0  0  0  0
  1  2  1  0
  2  3  2  0
  3  4  1  0
  4  5  1  0
  4  6  2  0
  6  7  1  0
  7  8  1  0
  8  9  2  0
  8 10  1  0
 10 11  1  0
 11 12  1  0
 12 13  1  0
 12 14  1  0
 12 15  1  0
 15 16  1  0
 15 17  1  0
 15 18  1  0
 18 19  1  0
 19 20  1  0
 19 21  1  0
 19 22  1  0
 22 23  1  0
 22 24  1  0
 22 25  1  0
 18 26  1  0
 26 27  1  0
 26 28  1  0
 26 29  1  0
 29 30  1  0
 29 31  1  0
 10 32  2  0
 32 33  1  0
 32 34  1  0
 34 35  1  0
  6 36  1  0
 36 37  1  0
 36 38  2  0
 38 39  1  0
 38  2  1  0
 34  7  1  0
 29 11  1  0
M  END
>  <cnnaffinity>  (1) 
-4.84126

>  <filename>  (1) 
[H]c1nc([H])c(-n2c(=O)c(N3C([H])([H])C([H])([H])N(C([H])([H])C([H])([H])[H])C([H])([H])C3([H])[H])c([H])n2[H])c([H])c1[H]

$$$$
