
     RDKit          3D

 33 35  0  0  0  0  0  0  0  0999 V2000
    4.9311    1.7839   16.9775 H   0  0  0  0  0  0  0  0  0  0  0  0
    5.4306    1.3141   17.8213 C   0  0  0  0  0  0  0  0  0  0  0  0
    6.6076    0.7264   17.5570 N   0  0  0  0  0  0  0  0  0  0  0  0
    7.2324    0.1073   18.5599 C   0  0  0  0  0  0  0  0  0  0  0  0
    8.1951   -0.3471   18.3258 H   0  0  0  0  0  0  0  0  0  0  0  0
    6.7027    0.0005   19.8561 C   0  0  0  0  0  0  0  0  0  0  0  0
    7.4630   -0.7564   20.8702 C   0  0  0  0  0  0  0  0  0  0  0  0
    8.7617   -0.5355   20.9727 N   0  0  0  0  0  0  0  0  0  0  0  0
    9.4769   -1.1192   22.0025 C   0  0  0  0  0  0  0  0  0  0  0  0
   10.9640   -0.8269   22.0273 C   0  0  0  0  0  0  0  0  0  0  0  0
   11.3612   -0.9704   21.0163 H   0  0  0  0  0  0  0  0  0  0  0  0
   11.4896   -1.5506   22.6599 H   0  0  0  0  0  0  0  0  0  0  0  0
   11.2425    0.5853   22.5106 C   0  0  0  0  0  0  0  0  0  0  0  0
   11.3731    1.6389   21.5907 C   0  0  0  0  0  0  0  0  0  0  0  0
   11.2777    1.4461   20.5348 H   0  0  0  0  0  0  0  0  0  0  0  0
   11.5993    2.9518   21.9986 C   0  0  0  0  0  0  0  0  0  0  0  0
   11.7311    3.7337   21.2574 H   0  0  0  0  0  0  0  0  0  0  0  0
   11.6694    3.2491   23.3580 C   0  0  0  0  0  0  0  0  0  0  0  0
   11.7978    4.2768   23.6820 H   0  0  0  0  0  0  0  0  0  0  0  0
   11.5397    2.2261   24.2975 C   0  0  0  0  0  0  0  0  0  0  0  0
   11.6109    2.4119   25.3564 H   0  0  0  0  0  0  0  0  0  0  0  0
   11.3183    0.9145   23.8728 C   0  0  0  0  0  0  0  0  0  0  0  0
   11.1233   -0.2910   25.1192 Cl  0  0  0  0  0  0  0  0  0  0  0  0
    8.8776   -1.8977   22.9606 C   0  0  0  0  0  0  0  0  0  0  0  0
    9.4273   -2.3681   23.7757 H   0  0  0  0  0  0  0  0  0  0  0  0
    7.5217   -2.1459   22.8542 N   0  0  0  0  0  0  0  0  0  0  0  0
    6.9989   -2.7988   23.4284 H   0  0  0  0  0  0  0  0  0  0  0  0
    6.7454   -1.7623   21.7614 C   0  0  0  0  0  0  0  0  0  0  0  0
    5.6442   -2.2755   21.6452 O   0  0  0  0  0  0  0  0  0  0  0  0
    5.4788    0.6469   20.1259 C   0  0  0  0  0  0  0  0  0  0  0  0
    5.0365    0.6170   21.1211 H   0  0  0  0  0  0  0  0  0  0  0  0
    4.8356    1.3219   19.0859 C   0  0  0  0  0  0  0  0  0  0  0  0
    3.8837    1.8248   19.2282 H   0  0  0  0  0  0  0  0  0  0  0  0
  1  2  1  0
  2  3  2  0
  3  4  1  0
  4  5  1  0
  4  6  2  0
  6  7  1  0
  7  8  2  0
  8  9  1  0
  9 10  1  0
 10 11  1  0
 10 12  1  0
 10 13  1  0
 13 14  2  0
 14 15  1  0
 14 16  1  0
 16 17  1  0
 16 18  2  0
 18 19  1  0
 18 20  1  0
 20 21  1  0
 20 22  2  0
 22 23  1  0
  9 24  2  0
 24 25  1  0
 24 26  1  0
 26 27  1  0
 26 28  1  0
 28 29  2  0
  6 30  1  0
 30 31  1  0
 30 32  2  0
 32 33  1  0
 32  2  1  0
 28  7  1  0
 22 13  1  0
M  END
>  <cnnaffinity>  (1) 
-5.72783

>  <filename>  (1) 
[H]c1nc([H])c(-c2nc(C([H])([H])c3c([H])c([H])c([H])c([H])c3Cl)c([H])n([H])c2=O)c([H])c1[H]

$$$$
