
     RDKit          3D

 38 40  0  0  0  0  0  0  0  0999 V2000
    5.0499    1.8572   16.9616 H   0  0  0  0  0  0  0  0  0  0  0  0
    5.4948    1.3186   17.7972 C   0  0  0  0  0  0  0  0  0  0  0  0
    6.6428    0.6654   17.5498 N   0  0  0  0  0  0  0  0  0  0  0  0
    7.1980   -0.0217   18.5598 C   0  0  0  0  0  0  0  0  0  0  0  0
    8.1325   -0.5279   18.3232 H   0  0  0  0  0  0  0  0  0  0  0  0
    6.6483   -0.1231   19.8756 C   0  0  0  0  0  0  0  0  0  0  0  0
    7.1848   -0.8962   20.8776 N   0  0  0  0  0  0  0  0  0  0  0  0
    6.7350   -1.0658   22.2450 C   0  0  0  0  0  0  0  0  0  0  0  0
    5.8532   -1.7124   22.3192 H   0  0  0  0  0  0  0  0  0  0  0  0
    6.5564   -0.1437   22.8203 H   0  0  0  0  0  0  0  0  0  0  0  0
    8.0757   -1.7949   22.5383 C   0  0  0  0  0  0  0  0  0  0  0  0
    7.9428   -2.8331   22.8479 H   0  0  0  0  0  0  0  0  0  0  0  0
    9.0031   -1.1518   23.5459 C   0  0  0  0  0  0  0  0  0  0  0  0
    9.2982   -1.7328   24.5714 O   0  0  0  0  0  0  0  0  0  0  0  0
    9.6320    0.1585   23.1760 C   0  0  0  0  0  0  0  0  0  0  0  0
    8.9995    1.1276   22.3808 C   0  0  0  0  0  0  0  0  0  0  0  0
    7.9264    1.1480   22.2402 H   0  0  0  0  0  0  0  0  0  0  0  0
    9.7589    2.1106   21.7505 C   0  0  0  0  0  0  0  0  0  0  0  0
    9.2563    2.7938   21.0757 H   0  0  0  0  0  0  0  0  0  0  0  0
   11.1332    2.2064   21.9730 C   0  0  0  0  0  0  0  0  0  0  0  0
   11.6890    3.0030   21.4820 H   0  0  0  0  0  0  0  0  0  0  0  0
   11.7175    1.3279   22.9046 C   0  0  0  0  0  0  0  0  0  0  0  0
   13.3815    1.5558   23.4950 S   0  0  0  0  0  0  0  0  0  0  0  0
   13.4460    0.9103   24.8048 O   0  0  0  0  0  0  0  0  0  0  0  0
   13.7132    2.9573   23.2795 O   0  0  0  0  0  0  0  0  0  0  0  0
   14.4583    0.5775   22.4836 C   0  0  0  0  0  0  0  0  0  0  0  0
   15.3539    1.1851   22.3831 H   0  0  0  0  0  0  0  0  0  0  0  0
   14.6531   -0.3420   23.0301 H   0  0  0  0  0  0  0  0  0  0  0  0
   14.0295    0.3687   21.5169 H   0  0  0  0  0  0  0  0  0  0  0  0
   10.9756    0.3246   23.5168 C   0  0  0  0  0  0  0  0  0  0  0  0
   11.4256   -0.3200   24.2704 H   0  0  0  0  0  0  0  0  0  0  0  0
    8.4435   -1.6039   21.0367 C   0  0  0  0  0  0  0  0  0  0  0  0
    9.3386   -0.9977   20.8282 H   0  0  0  0  0  0  0  0  0  0  0  0
    8.5235   -2.5446   20.4904 H   0  0  0  0  0  0  0  0  0  0  0  0
    5.4569    0.6003   20.1050 C   0  0  0  0  0  0  0  0  0  0  0  0
    4.9979    0.5919   21.0932 H   0  0  0  0  0  0  0  0  0  0  0  0
    4.8804    1.3184   19.0548 C   0  0  0  0  0  0  0  0  0  0  0  0
    3.9642    1.8826   19.2029 H   0  0  0  0  0  0  0  0  0  0  0  0
  1  2  1  0
  2  3  2  0
  3  4  1  0
  4  5  1  0
  4  6  2  0
  6  7  1  0
  7  8  1  0
  8  9  1  0
  8 10  1  0
  8 11  1  0
 11 12  1  0
 11 13  1  0
 13 14  2  0
 13 15  1  0
 15 16  2  0
 16 17  1  0
 16 18  1  0
 18 19  1  0
 18 20  2  0
 20 21  1  0
 20 22  1  0
 22 23  1  0
 23 24  2  0
 23 25  2  0
 23 26  1  0
 26 27  1  0
 26 28  1  0
 26 29  1  0
 22 30  2  0
 30 31  1  0
 11 32  1  0
 32 33  1  0
 32 34  1  0
  6 35  1  0
 35 36  1  0
 35 37  2  0
 37 38  1  0
 37  2  1  0
 32  7  1  0
 30 15  1  0
M  END
>  <cnnaffinity>  (1) 
-5.62336

>  <filename>  (1) 
[H]c1nc([H])c(N2C([H])([H])C([H])(C(=O)c3c([H])c([H])c([H])c(S(=O)(=O)C([H])([H])[H])c3[H])C2([H])[H])c([H])c1[H]

$$$$
