
     RDKit          3D

 36 39  0  0  0  0  0  0  0  0999 V2000
    5.0367    1.7945   17.3171 H   0  0  0  0  0  0  0  0  0  0  0  0
    5.4964    1.1321   18.0457 C   0  0  0  0  0  0  0  0  0  0  0  0
    6.5917    0.4741   17.6347 N   0  0  0  0  0  0  0  0  0  0  0  0
    7.1983   -0.3075   18.5364 C   0  0  0  0  0  0  0  0  0  0  0  0
    8.0584   -0.8707   18.1831 H   0  0  0  0  0  0  0  0  0  0  0  0
    6.7886   -0.4587   19.8816 C   0  0  0  0  0  0  0  0  0  0  0  0
    7.6825   -1.1096   20.8643 C   0  0  0  0  0  0  0  0  0  0  0  0
    9.0309   -0.9548   21.1221 C   0  0  0  0  0  0  0  0  0  0  0  0
    9.7326   -0.3583   20.5556 H   0  0  0  0  0  0  0  0  0  0  0  0
    9.4433   -1.6008   22.2608 N   0  0  0  0  0  0  0  0  0  0  0  0
    8.3370   -2.1436   22.7047 C   0  0  0  0  0  0  0  0  0  0  0  0
    7.8405   -3.0211   24.1222 S   0  0  0  0  0  0  0  0  0  0  0  0
    6.1995   -2.8267   23.5247 C   0  0  0  0  0  0  0  0  0  0  0  0
    5.0766   -3.0820   24.2631 N   0  0  0  0  0  0  0  0  0  0  0  0
    4.2765   -2.5924   23.8857 H   0  0  0  0  0  0  0  0  0  0  0  0
    4.9176   -4.0202   25.2598 C   0  0  0  0  0  0  0  0  0  0  0  0
    5.6954   -5.4569   25.3180 S   0  0  0  0  0  0  0  0  0  0  0  0
    4.0116   -3.5504   26.1635 N   0  0  0  0  0  0  0  0  0  0  0  0
    3.7053   -2.6088   25.9775 H   0  0  0  0  0  0  0  0  0  0  0  0
    3.8887   -3.9956   27.5194 C   0  0  0  0  0  0  0  0  0  0  0  0
    5.0111   -4.1997   28.3384 C   0  0  0  0  0  0  0  0  0  0  0  0
    5.9989   -3.9965   27.9360 H   0  0  0  0  0  0  0  0  0  0  0  0
    4.8413   -4.6480   29.6537 C   0  0  0  0  0  0  0  0  0  0  0  0
    5.7134   -4.7967   30.2888 H   0  0  0  0  0  0  0  0  0  0  0  0
    3.5560   -4.8886   30.1562 C   0  0  0  0  0  0  0  0  0  0  0  0
    3.4317   -5.2541   31.1728 H   0  0  0  0  0  0  0  0  0  0  0  0
    2.4377   -4.6417   29.3513 C   0  0  0  0  0  0  0  0  0  0  0  0
    1.4357   -4.7807   29.7517 H   0  0  0  0  0  0  0  0  0  0  0  0
    2.6047   -4.1870   28.0378 C   0  0  0  0  0  0  0  0  0  0  0  0
    1.7551   -3.9640   27.4009 H   0  0  0  0  0  0  0  0  0  0  0  0
    6.0337   -2.2824   22.3633 N   0  0  0  0  0  0  0  0  0  0  0  0
    7.2579   -1.8990   21.9135 N   0  0  0  0  0  0  0  0  0  0  0  0
    5.5754    0.1543   20.2498 C   0  0  0  0  0  0  0  0  0  0  0  0
    5.1547   -0.0174   21.2409 H   0  0  0  0  0  0  0  0  0  0  0  0
    4.9408    0.9830   19.3234 C   0  0  0  0  0  0  0  0  0  0  0  0
    4.0476    1.5389   19.5851 H   0  0  0  0  0  0  0  0  0  0  0  0
  1  2  1  0
  2  3  2  0
  3  4  1  0
  4  5  1  0
  4  6  2  0
  6  7  1  0
  7  8  2  0
  8  9  1  0
  8 10  1  0
 10 11  2  0
 11 12  1  0
 12 13  1  0
 13 14  1  0
 14 15  1  0
 14 16  1  0
 16 17  2  0
 16 18  1  0
 18 19  1  0
 18 20  1  0
 20 21  2  0
 21 22  1  0
 21 23  1  0
 23 24  1  0
 23 25  2  0
 25 26  1  0
 25 27  1  0
 27 28  1  0
 27 29  2  0
 29 30  1  0
 13 31  2  0
 31 32  1  0
  6 33  1  0
 33 34  1  0
 33 35  2  0
 35 36  1  0
 35  2  1  0
 32  7  1  0
 32 11  1  0
 29 20  1  0
M  END
>  <cnnaffinity>  (1) 
-5.28049

>  <filename>  (1) 
[H]c1nc([H])c(-c2c([H])nc3sc(N([H])C(=S)N([H])c4c([H])c([H])c([H])c([H])c4[H])nn23)c([H])c1[H]

$$$$
