
     RDKit          3D

 31 33  0  0  0  0  0  0  0  0999 V2000
    4.9347    1.8917   16.9714 H   0  0  0  0  0  0  0  0  0  0  0  0
    5.4244    1.3470   17.7724 C   0  0  0  0  0  0  0  0  0  0  0  0
    6.6104    0.7622   17.5309 N   0  0  0  0  0  0  0  0  0  0  0  0
    7.2075    0.1106   18.5485 C   0  0  0  0  0  0  0  0  0  0  0  0
    8.1706   -0.3493   18.3557 H   0  0  0  0  0  0  0  0  0  0  0  0
    6.6413   -0.0140   19.8396 C   0  0  0  0  0  0  0  0  0  0  0  0
    7.3046   -0.6719   20.8919 N   0  0  0  0  0  0  0  0  0  0  0  0
    8.5915   -0.2174   21.2078 C   0  0  0  0  0  0  0  0  0  0  0  0
    8.9948    0.6425   20.6800 H   0  0  0  0  0  0  0  0  0  0  0  0
    9.3745   -0.8227   22.1655 C   0  0  0  0  0  0  0  0  0  0  0  0
   10.7267   -0.3171   22.4098 C   0  0  0  0  0  0  0  0  0  0  0  0
   11.8226   -1.1946   22.3956 C   0  0  0  0  0  0  0  0  0  0  0  0
   11.6517   -2.2470   22.1923 H   0  0  0  0  0  0  0  0  0  0  0  0
   13.1230   -0.7153   22.6178 C   0  0  0  0  0  0  0  0  0  0  0  0
   13.9843   -1.3817   22.6214 H   0  0  0  0  0  0  0  0  0  0  0  0
   13.3196    0.6511   22.8444 C   0  0  0  0  0  0  0  0  0  0  0  0
   14.3295    1.0232   22.9748 H   0  0  0  0  0  0  0  0  0  0  0  0
   12.2302    1.5344   22.8831 C   0  0  0  0  0  0  0  0  0  0  0  0
   12.5013    3.3883   23.2647 Br  0  0  0  0  0  0  0  0  0  0  0  0
   10.9404    1.0487   22.6527 C   0  0  0  0  0  0  0  0  0  0  0  0
   10.0912    1.7324   22.6968 H   0  0  0  0  0  0  0  0  0  0  0  0
    8.8225   -1.9515   22.9225 C   0  0  0  0  0  0  0  0  0  0  0  0
    9.4131   -2.4201   23.7041 H   0  0  0  0  0  0  0  0  0  0  0  0
    7.5390   -2.3847   22.6624 C   0  0  0  0  0  0  0  0  0  0  0  0
    7.0873   -3.2048   23.2099 H   0  0  0  0  0  0  0  0  0  0  0  0
    6.7514   -1.7444   21.6101 C   0  0  0  0  0  0  0  0  0  0  0  0
    5.6615   -2.2261   21.3234 O   0  0  0  0  0  0  0  0  0  0  0  0
    5.4114    0.5925   20.0733 C   0  0  0  0  0  0  0  0  0  0  0  0
    4.9667    0.5425   21.0649 H   0  0  0  0  0  0  0  0  0  0  0  0
    4.8049    1.2880   19.0260 C   0  0  0  0  0  0  0  0  0  0  0  0
    3.8612    1.7954   19.1766 H   0  0  0  0  0  0  0  0  0  0  0  0
  1  2  1  0
  2  3  2  0
  3  4  1  0
  4  5  1  0
  4  6  2  0
  6  7  1  0
  7  8  1  0
  8  9  1  0
  8 10  2  0
 10 11  1  0
 11 12  2  0
 12 13  1  0
 12 14  1  0
 14 15  1  0
 14 16  2  0
 16 17  1  0
 16 18  1  0
 18 19  1  0
 18 20  2  0
 20 21  1  0
 10 22  1  0
 22 23  1  0
 22 24  2  0
 24 25  1  0
 24 26  1  0
 26 27  2  0
  6 28  1  0
 28 29  1  0
 28 30  2  0
 30 31  1  0
 30  2  1  0
 26  7  1  0
 20 11  1  0
M  END
>  <cnnaffinity>  (1) 
-5.29567

>  <filename>  (1) 
[H]c1nc([H])c(-n2c([H])c(-c3c([H])c([H])c([H])c(Br)c3[H])c([H])c([H])c2=O)c([H])c1[H]

$$$$
