
     RDKit          3D

 31 32  0  0  0  0  0  0  0  0999 V2000
    4.6035   -1.1397   26.0457 H   0  0  0  0  0  0  0  0  0  0  0  0
    5.5415   -0.7585   25.6519 C   0  0  0  0  0  0  0  0  0  0  0  0
    6.0384   -1.3923   24.5986 N   0  0  0  0  0  0  0  0  0  0  0  0
    7.2060   -0.9517   24.1294 C   0  0  0  0  0  0  0  0  0  0  0  0
    7.8123   -1.7665   23.0403 C   0  0  2  0  0  0  0  0  0  0  0  0
    8.7933   -1.3348   22.8440 H   0  0  0  0  0  0  0  0  0  0  0  0
    6.8718   -1.4241   21.9079 C   0  0  0  0  0  0  0  0  0  0  0  0
    5.8481   -1.9897   21.6388 O   0  0  0  0  0  0  0  0  0  0  0  0
    7.3537   -0.3371   21.2204 O   0  0  0  0  0  0  0  0  0  0  0  0
    6.6694    0.1519   20.1038 C   0  0  0  0  0  0  0  0  0  0  0  0
    7.2773    0.1041   18.8361 C   0  0  0  0  0  0  0  0  0  0  0  0
    8.2459   -0.3808   18.7208 H   0  0  0  0  0  0  0  0  0  0  0  0
    6.7006    0.6172   17.7384 N   0  0  0  0  0  0  0  0  0  0  0  0
    5.5062    1.2157   17.8793 C   0  0  0  0  0  0  0  0  0  0  0  0
    5.0770    1.6476   16.9773 H   0  0  0  0  0  0  0  0  0  0  0  0
    4.8262    1.2957   19.1001 C   0  0  0  0  0  0  0  0  0  0  0  0
    3.8695    1.8046   19.1414 H   0  0  0  0  0  0  0  0  0  0  0  0
    5.4133    0.7384   20.2439 C   0  0  0  0  0  0  0  0  0  0  0  0
    4.9232    0.7486   21.2164 H   0  0  0  0  0  0  0  0  0  0  0  0
    7.8860   -3.2821   23.3581 C   0  0  0  0  0  0  0  0  0  0  0  0
    8.2810   -3.8440   22.5057 H   0  0  0  0  0  0  0  0  0  0  0  0
    6.8804   -3.6478   23.5967 H   0  0  0  0  0  0  0  0  0  0  0  0
    8.5224   -3.4632   24.2328 H   0  0  0  0  0  0  0  0  0  0  0  0
    7.8657    0.1083   24.5662 N   0  0  0  0  0  0  0  0  0  0  0  0
    7.3835    0.7452   25.6517 C   0  0  0  0  0  0  0  0  0  0  0  0
    8.1799    1.9636   26.2049 C   0  0  0  0  0  0  0  0  0  0  0  0
    9.5054    1.8467   26.0581 F   0  0  0  0  0  0  0  0  0  0  0  0
    7.9429    2.1227   27.5262 F   0  0  0  0  0  0  0  0  0  0  0  0
    7.8117    3.1133   25.6079 F   0  0  0  0  0  0  0  0  0  0  0  0
    6.1965    0.3146   26.2514 C   0  0  0  0  0  0  0  0  0  0  0  0
    5.8178    0.7405   27.1674 H   0  0  0  0  0  0  0  0  0  0  0  0
  1  2  1  0
  2  3  2  0
  3  4  1  0
  4  5  1  0
  5  6  1  6
  5  7  1  0
  7  8  2  0
  7  9  1  0
  9 10  1  0
 10 11  2  0
 11 12  1  0
 11 13  1  0
 13 14  2  0
 14 15  1  0
 14 16  1  0
 16 17  1  0
 16 18  2  0
 18 19  1  0
  5 20  1  0
 20 21  1  0
 20 22  1  0
 20 23  1  0
  4 24  2  0
 24 25  1  0
 25 26  1  0
 26 27  1  0
 26 28  1  0
 26 29  1  0
 25 30  2  0
 30 31  1  0
 30  2  1  0
 18 10  1  0
M  END
>  <cnnaffinity>  (1) 
-5.14846

>  <filename>  (1) 
[H]c1nc([C@]([H])(C(=O)Oc2c([H])nc([H])c([H])c2[H])C([H])([H])[H])nc(C(F)(F)F)c1[H]

$$$$
