
     RDKit          3D

 27 29  0  0  0  0  0  0  0  0999 V2000
    4.9094    1.7807   16.9977 H   0  0  0  0  0  0  0  0  0  0  0  0
    5.3977    1.2963   17.8398 C   0  0  0  0  0  0  0  0  0  0  0  0
    6.5633    0.6824   17.5751 N   0  0  0  0  0  0  0  0  0  0  0  0
    7.1757    0.0611   18.5916 C   0  0  0  0  0  0  0  0  0  0  0  0
    8.1216   -0.4312   18.3738 H   0  0  0  0  0  0  0  0  0  0  0  0
    6.6683   -0.0098   19.9152 C   0  0  0  0  0  0  0  0  0  0  0  0
    7.3241   -0.7093   20.9357 N   0  0  0  0  0  0  0  0  0  0  0  0
    6.7609   -1.0490   21.7083 H   0  0  0  0  0  0  0  0  0  0  0  0
    8.7105   -0.7929   21.0879 C   0  0  0  0  0  0  0  0  0  0  0  0
    9.6969    0.1307   20.6756 C   0  0  0  0  0  0  0  0  0  0  0  0
    9.5190    1.0385   20.1242 H   0  0  0  0  0  0  0  0  0  0  0  0
   10.9129   -0.2225   21.0689 N   0  0  0  0  0  0  0  0  0  0  0  0
   10.7172   -1.3745   21.7155 N   0  0  0  0  0  0  0  0  0  0  0  0
   11.5170   -1.8460   22.1061 H   0  0  0  0  0  0  0  0  0  0  0  0
    9.4159   -1.7833   21.7586 C   0  0  0  0  0  0  0  0  0  0  0  0
    8.9835   -3.0102   22.3957 C   0  0  0  0  0  0  0  0  0  0  0  0
    7.4228   -3.6889   22.0654 S   0  0  0  0  0  0  0  0  0  0  0  0
    7.7260   -5.0161   23.1162 C   0  0  0  0  0  0  0  0  0  0  0  0
    6.9910   -5.7990   23.2637 H   0  0  0  0  0  0  0  0  0  0  0  0
    8.9484   -4.9349   23.7040 C   0  0  0  0  0  0  0  0  0  0  0  0
    9.3517   -5.6644   24.4052 H   0  0  0  0  0  0  0  0  0  0  0  0
    9.6705   -3.7798   23.2984 C   0  0  0  0  0  0  0  0  0  0  0  0
   10.6702   -3.5339   23.6454 H   0  0  0  0  0  0  0  0  0  0  0  0
    5.4470    0.6361   20.1636 C   0  0  0  0  0  0  0  0  0  0  0  0
    5.0184    0.6228   21.1683 H   0  0  0  0  0  0  0  0  0  0  0  0
    4.8117    1.3067   19.1126 C   0  0  0  0  0  0  0  0  0  0  0  0
    3.8779    1.8405   19.2662 H   0  0  0  0  0  0  0  0  0  0  0  0
  1  2  1  0
  2  3  2  0
  3  4  1  0
  4  5  1  0
  4  6  2  0
  6  7  1  0
  7  8  1  0
  7  9  1  0
  9 10  1  0
 10 11  1  0
 10 12  2  0
 12 13  1  0
 13 14  1  0
 13 15  1  0
 15 16  1  0
 16 17  1  0
 17 18  1  0
 18 19  1  0
 18 20  2  0
 20 21  1  0
 20 22  1  0
 22 23  1  0
  6 24  1  0
 24 25  1  0
 24 26  2  0
 26 27  1  0
 26  2  1  0
 15  9  2  0
 22 16  2  0
M  END
>  <cnnaffinity>  (1) 
-5.58428

>  <filename>  (1) 
[H]c1nc([H])c(N([H])c2c([H])nn([H])c2-c2sc([H])c([H])c2[H])c([H])c1[H]

$$$$
