
     RDKit          3D

 36 38  0  0  0  0  0  0  0  0999 V2000
   10.2208   -0.3191   22.7017 H   0  0  0  0  0  0  0  0  0  0  0  0
    9.3150   -0.8174   22.3652 C   0  0  0  0  0  0  0  0  0  0  0  0
    8.7510   -1.7603   23.1116 C   0  0  0  0  0  0  0  0  0  0  0  0
    9.3151   -2.0557   24.3454 N   0  0  0  0  0  0  0  0  0  0  0  0
    9.6595   -1.2490   24.8376 H   0  0  0  0  0  0  0  0  0  0  0  0
    9.1082   -3.1694   25.1455 C   0  0  0  0  0  0  0  0  0  0  0  0
    8.9359   -2.9565   26.5200 C   0  0  0  0  0  0  0  0  0  0  0  0
    9.0432   -1.9513   26.9156 H   0  0  0  0  0  0  0  0  0  0  0  0
    8.5916   -4.0236   27.3434 C   0  0  0  0  0  0  0  0  0  0  0  0
    8.3684   -3.9035   28.3920 H   0  0  0  0  0  0  0  0  0  0  0  0
    8.4885   -5.3056   26.8084 C   0  0  0  0  0  0  0  0  0  0  0  0
    7.9454   -6.5890   27.8481 Cl  0  0  0  0  0  0  0  0  0  0  0  0
    8.7745   -5.5527   25.4647 C   0  0  0  0  0  0  0  0  0  0  0  0
    8.7492   -6.5759   25.1064 H   0  0  0  0  0  0  0  0  0  0  0  0
    9.0727   -4.4736   24.6283 C   0  0  0  0  0  0  0  0  0  0  0  0
    9.2623   -4.6352   23.5734 H   0  0  0  0  0  0  0  0  0  0  0  0
    7.5169   -2.4696   22.6078 C   0  0  0  0  0  0  0  0  0  0  0  0
    7.8192   -3.2318   21.8781 H   0  0  0  0  0  0  0  0  0  0  0  0
    6.9769   -2.9671   23.4158 H   0  0  0  0  0  0  0  0  0  0  0  0
    6.6196   -1.4433   21.9058 C   0  0  0  0  0  0  0  0  0  0  0  0
    5.7403   -1.9419   21.4713 H   0  0  0  0  0  0  0  0  0  0  0  0
    6.2525   -0.7047   22.6432 H   0  0  0  0  0  0  0  0  0  0  0  0
    7.3713   -0.7856   20.8307 N   0  0  0  0  0  0  0  0  0  0  0  0
    6.6942   -0.0743   19.8344 C   0  0  0  0  0  0  0  0  0  0  0  0
    7.2085    0.0630   18.5138 C   0  0  0  0  0  0  0  0  0  0  0  0
    8.1637   -0.3977   18.2655 H   0  0  0  0  0  0  0  0  0  0  0  0
    6.5981    0.7208   17.5168 N   0  0  0  0  0  0  0  0  0  0  0  0
    5.4281    1.3187   17.7961 C   0  0  0  0  0  0  0  0  0  0  0  0
    4.9537    1.8580   16.9793 H   0  0  0  0  0  0  0  0  0  0  0  0
    4.8308    1.2689   19.0588 C   0  0  0  0  0  0  0  0  0  0  0  0
    3.8934    1.7875   19.2366 H   0  0  0  0  0  0  0  0  0  0  0  0
    5.4638    0.5657   20.0884 C   0  0  0  0  0  0  0  0  0  0  0  0
    5.0407    0.5154   21.0907 H   0  0  0  0  0  0  0  0  0  0  0  0
    8.8272   -0.5848   20.9667 C   0  0  0  0  0  0  0  0  0  0  0  0
    9.0917    0.4383   20.6561 H   0  0  0  0  0  0  0  0  0  0  0  0
    9.3680   -1.2757   20.2911 H   0  0  0  0  0  0  0  0  0  0  0  0
  1  2  1  0
  2  3  2  0
  3  4  1  0
  4  5  1  0
  4  6  1  0
  6  7  2  0
  7  8  1  0
  7  9  1  0
  9 10  1  0
  9 11  2  0
 11 12  1  0
 11 13  1  0
 13 14  1  0
 13 15  2  0
 15 16  1  0
  3 17  1  0
 17 18  1  0
 17 19  1  0
 17 20  1  0
 20 21  1  0
 20 22  1  0
 20 23  1  0
 23 24  1  0
 24 25  2  0
 25 26  1  0
 25 27  1  0
 27 28  2  0
 28 29  1  0
 28 30  1  0
 30 31  1  0
 30 32  2  0
 32 33  1  0
 23 34  1  0
 34 35  1  0
 34 36  1  0
 34  2  1  0
 15  6  1  0
 32 24  1  0
M  END
>  <cnnaffinity>  (1) 
-4.89808

>  <filename>  (1) 
[H]C1=C(N([H])c2c([H])c([H])c(Cl)c([H])c2[H])C([H])([H])C([H])([H])N(c2c([H])nc([H])c([H])c2[H])C1([H])[H]

$$$$
