
     RDKit          3D

 46 50  0  0  0  0  0  0  0  0999 V2000
   10.2079    5.8322   24.7094 C   0  0  0  0  0  0  0  0  0  0  0  0
    8.9861    5.4267   23.9561 C   0  0  0  0  0  0  0  0  0  0  0  0
    8.4359    4.1964   23.6755 C   0  0  0  0  0  0  0  0  0  0  0  0
    8.8547    2.8335   24.1407 C   0  0  0  0  0  0  0  0  0  0  0  0
    8.8477    1.8224   23.0443 C   0  0  0  0  0  0  0  0  0  0  0  0
    7.8498    1.0101   22.7721 N   0  0  0  0  0  0  0  0  0  0  0  0
    8.3153    0.2703   21.7328 C   0  0  0  0  0  0  0  0  0  0  0  0
    7.4442   -0.6967   20.9760 C   0  0  0  0  0  0  0  0  0  0  0  0
    6.6757   -0.0435   19.8264 C   0  0  0  0  0  0  0  0  0  0  0  0
    5.4742    0.6265   20.0888 C   0  0  0  0  0  0  0  0  0  0  0  0
    4.8279    1.3031   19.0528 C   0  0  0  0  0  0  0  0  0  0  0  0
    5.4139    1.2889   17.7842 C   0  0  0  0  0  0  0  0  0  0  0  0
    6.5515    0.6361   17.4994 N   0  0  0  0  0  0  0  0  0  0  0  0
    7.1559   -0.0109   18.5048 C   0  0  0  0  0  0  0  0  0  0  0  0
    8.0778   -0.5370   18.2496 H   0  0  0  0  0  0  0  0  0  0  0  0
    4.9527    1.8231   16.9565 H   0  0  0  0  0  0  0  0  0  0  0  0
    3.9056    1.8495   19.2188 H   0  0  0  0  0  0  0  0  0  0  0  0
    5.0781    0.6212   21.1057 H   0  0  0  0  0  0  0  0  0  0  0  0
    6.7352   -1.1239   21.6960 H   0  0  0  0  0  0  0  0  0  0  0  0
    8.0822   -1.5066   20.6096 H   0  0  0  0  0  0  0  0  0  0  0  0
    9.5690    0.5229   21.3949 N   0  0  0  0  0  0  0  0  0  0  0  0
    9.8997    1.5552   22.2218 N   0  0  0  0  0  0  0  0  0  0  0  0
   11.1974    2.1335   22.2562 C   0  0  0  0  0  0  0  0  0  0  0  0
   11.4095    3.5131   22.2961 C   0  0  0  0  0  0  0  0  0  0  0  0
   12.6976    4.0440   22.5141 C   0  0  0  0  0  0  0  0  0  0  0  0
   13.8026    3.2215   22.6987 C   0  0  0  0  0  0  0  0  0  0  0  0
   13.6109    1.8235   22.6604 C   0  0  0  0  0  0  0  0  0  0  0  0
   12.3325    1.3114   22.3715 C   0  0  0  0  0  0  0  0  0  0  0  0
   12.5046   -0.0481   22.3005 N   0  0  0  0  0  0  0  0  0  0  0  0
   13.8194   -0.2934   22.5589 C   0  0  0  0  0  0  0  0  0  0  0  0
   14.5176    0.7798   22.7870 N   0  0  0  0  0  0  0  0  0  0  0  0
   14.2126   -1.3011   22.5806 H   0  0  0  0  0  0  0  0  0  0  0  0
   11.8129   -0.6722   21.9162 H   0  0  0  0  0  0  0  0  0  0  0  0
   14.7863    3.6511   22.8299 H   0  0  0  0  0  0  0  0  0  0  0  0
   12.8438    5.1217   22.5130 H   0  0  0  0  0  0  0  0  0  0  0  0
   10.5676    4.1884   22.1887 H   0  0  0  0  0  0  0  0  0  0  0  0
    9.8440    2.8724   24.6072 H   0  0  0  0  0  0  0  0  0  0  0  0
    8.1414    2.4943   24.8954 H   0  0  0  0  0  0  0  0  0  0  0  0
    7.3157    4.3354   22.9011 N   0  0  0  0  0  0  0  0  0  0  0  0
    7.1755    5.6164   22.6924 C   0  0  0  0  0  0  0  0  0  0  0  0
    8.1588    6.3254   23.3130 N   0  0  0  0  0  0  0  0  0  0  0  0
    8.2433    7.3275   23.3327 H   0  0  0  0  0  0  0  0  0  0  0  0
    6.3806    6.0836   22.1189 H   0  0  0  0  0  0  0  0  0  0  0  0
   10.2291    5.3581   25.6972 H   0  0  0  0  0  0  0  0  0  0  0  0
   11.1079    5.5119   24.1702 H   0  0  0  0  0  0  0  0  0  0  0  0
   10.2692    6.9184   24.8429 H   0  0  0  0  0  0  0  0  0  0  0  0
  1  2  1  0
  2  3  2  0
  3  4  1  0
  4  5  1  0
  5  6  2  0
  6  7  1  0
  7  8  1  0
  8  9  1  0
  9 10  2  0
 10 11  1  0
 11 12  2  0
 12 13  1  0
 13 14  2  0
 14 15  1  0
 12 16  1  0
 11 17  1  0
 10 18  1  0
  8 19  1  0
  8 20  1  0
  7 21  2  0
 21 22  1  0
 22 23  1  0
 23 24  2  0
 24 25  1  0
 25 26  2  0
 26 27  1  0
 27 28  2  0
 28 29  1  0
 29 30  1  0
 30 31  2  0
 30 32  1  0
 29 33  1  0
 26 34  1  0
 25 35  1  0
 24 36  1  0
  4 37  1  0
  4 38  1  0
  3 39  1  0
 39 40  2  0
 40 41  1  0
 41 42  1  0
 40 43  1  0
  1 44  1  0
  1 45  1  0
  1 46  1  0
 41  2  1  0
 22  5  1  0
 28 23  1  0
 14  9  1  0
 31 27  1  0
M  END
>  <cnnaffinity>  (1) 
-6.56255

>  <filename>  (1) 
[H]c1nc([H])c(C([H])([H])c2nc(C([H])([H])c3nc([H])n([H])c3C([H])([H])[H])n(-c3c([H])c([H])c([H])c4nc([H])n([H])c34)n2)c([H])c1[H]

$$$$
