
     RDKit          3D

 32 34  0  0  0  0  0  0  0  0999 V2000
    5.0367    1.7907   16.8675 H   0  0  0  0  0  0  0  0  0  0  0  0
    5.4243    1.2955   17.7543 C   0  0  0  0  0  0  0  0  0  0  0  0
    6.5646    0.6092   17.5940 N   0  0  0  0  0  0  0  0  0  0  0  0
    7.0611   -0.0146   18.6683 C   0  0  0  0  0  0  0  0  0  0  0  0
    7.9739   -0.5881   18.5140 H   0  0  0  0  0  0  0  0  0  0  0  0
    6.4724    0.0312   19.9371 C   0  0  0  0  0  0  0  0  0  0  0  0
    7.1998   -0.6231   21.1044 C   0  0  0  0  0  0  0  0  0  0  0  0
    8.2074    0.3693   21.7722 C   0  0  0  0  0  0  0  0  0  0  0  0
    9.5167    0.1656   21.5607 N   0  0  0  0  0  0  0  0  0  0  0  0
   10.4059    1.0413   22.0254 C   0  0  0  0  0  0  0  0  0  0  0  0
   11.8402    0.7198   21.7126 C   0  0  0  0  0  0  0  0  0  0  0  0
   12.4655    0.6918   22.6120 H   0  0  0  0  0  0  0  0  0  0  0  0
   11.8720   -0.2497   21.2104 H   0  0  0  0  0  0  0  0  0  0  0  0
   12.2518    1.4719   21.0317 H   0  0  0  0  0  0  0  0  0  0  0  0
   10.0302    2.1994   22.7181 C   0  0  0  0  0  0  0  0  0  0  0  0
   10.8099    2.8912   23.0265 H   0  0  0  0  0  0  0  0  0  0  0  0
    8.6773    2.4168   22.9665 C   0  0  0  0  0  0  0  0  0  0  0  0
    8.3494    3.3133   23.4893 H   0  0  0  0  0  0  0  0  0  0  0  0
    7.7468    1.4823   22.4978 C   0  0  0  0  0  0  0  0  0  0  0  0
    6.6850    1.5873   22.6999 H   0  0  0  0  0  0  0  0  0  0  0  0
    6.2074   -1.0741   22.0219 O   0  0  0  0  0  0  0  0  0  0  0  0
    6.4772   -2.4353   22.3295 C   0  0  0  0  0  0  0  0  0  0  0  0
    5.5416   -2.9494   22.5726 H   0  0  0  0  0  0  0  0  0  0  0  0
    7.1697   -2.5007   23.1781 H   0  0  0  0  0  0  0  0  0  0  0  0
    7.1048   -2.9111   21.0396 C   0  0  0  0  0  0  0  0  0  0  0  0
    6.3487   -3.1264   20.2730 H   0  0  0  0  0  0  0  0  0  0  0  0
    7.7779   -3.7654   21.1578 H   0  0  0  0  0  0  0  0  0  0  0  0
    7.8679   -1.7867   20.6520 O   0  0  0  0  0  0  0  0  0  0  0  0
    5.2563    0.7190   20.0802 C   0  0  0  0  0  0  0  0  0  0  0  0
    4.7326    0.7128   21.0385 H   0  0  0  0  0  0  0  0  0  0  0  0
    4.7298    1.3700   18.9679 C   0  0  0  0  0  0  0  0  0  0  0  0
    3.8005    1.9287   19.0252 H   0  0  0  0  0  0  0  0  0  0  0  0
  1  2  1  0
  2  3  2  0
  3  4  1  0
  4  5  1  0
  4  6  2  0
  6  7  1  0
  7  8  1  0
  8  9  2  0
  9 10  1  0
 10 11  1  0
 11 12  1  0
 11 13  1  0
 11 14  1  0
 10 15  2  0
 15 16  1  0
 15 17  1  0
 17 18  1  0
 17 19  2  0
 19 20  1  0
  7 21  1  0
 21 22  1  0
 22 23  1  0
 22 24  1  0
 22 25  1  0
 25 26  1  0
 25 27  1  0
 25 28  1  0
  6 29  1  0
 29 30  1  0
 29 31  2  0
 31 32  1  0
 31  2  1  0
 28  7  1  0
 19  8  1  0
M  END
>  <cnnaffinity>  (1) 
-4.29209

>  <filename>  (1) 
[H]c1nc([H])c(C2(c3nc(C([H])([H])[H])c([H])c([H])c3[H])OC([H])([H])C([H])([H])O2)c([H])c1[H]

$$$$
