
     RDKit          3D

 35 36  0  0  0  0  0  0  0  0999 V2000
    9.1906    0.0131   22.5849 C   0  0  0  0  0  0  0  0  0  0  0  0
    7.7428    0.1976   22.1544 N   0  0  0  0  0  4  0  0  0  0  0  0
    6.8065   -0.0525   23.3634 C   0  0  0  0  0  0  0  0  0  0  0  0
    6.8404    1.1183   24.3145 C   0  0  0  0  0  0  0  0  0  0  0  0
    6.1921    2.3093   23.9484 C   0  0  0  0  0  0  0  0  0  0  0  0
    6.1975    3.4302   24.7834 C   0  0  0  0  0  0  0  0  0  0  0  0
    6.8744    3.3816   26.0088 C   0  0  0  0  0  0  0  0  0  0  0  0
    7.5444    2.2177   26.3924 C   0  0  0  0  0  0  0  0  0  0  0  0
    7.5190    1.1056   25.5463 C   0  0  0  0  0  0  0  0  0  0  0  0
    8.3899   -0.3118   26.0811 Cl  0  0  0  0  0  0  0  0  0  0  0  0
    8.0836    2.1359   27.3341 H   0  0  0  0  0  0  0  0  0  0  0  0
    6.8795    4.2453   26.6669 H   0  0  0  0  0  0  0  0  0  0  0  0
    5.6758    4.3305   24.4742 H   0  0  0  0  0  0  0  0  0  0  0  0
    5.6773    2.3476   22.9888 H   0  0  0  0  0  0  0  0  0  0  0  0
    5.7991   -0.1918   22.9694 H   0  0  0  0  0  0  0  0  0  0  0  0
    7.0936   -0.9830   23.8500 H   0  0  0  0  0  0  0  0  0  0  0  0
    7.4143   -0.7450   20.9524 C   0  0  0  0  0  0  0  0  0  0  0  0
    6.6756   -2.2352   21.3912 C   0  0  0  0  0  0  0  0  0  0  0  0
    5.4552   -2.3253   21.2184 O   0  0  0  0  0  0  0  0  0  0  0  0
    7.5270   -3.0469   21.7829 O   0  0  0  0  0  1  0  0  0  0  0  0
    6.6780    0.0328   19.8972 C   0  0  0  0  0  0  0  0  0  0  0  0
    5.4554    0.6634   20.1516 C   0  0  0  0  0  0  0  0  0  0  0  0
    4.8119    1.3141   19.0982 C   0  0  0  0  0  0  0  0  0  0  0  0
    5.3965    1.3021   17.8282 C   0  0  0  0  0  0  0  0  0  0  0  0
    6.5614    0.6956   17.5622 N   0  0  0  0  0  0  0  0  0  0  0  0
    7.1758    0.0899   18.5829 C   0  0  0  0  0  0  0  0  0  0  0  0
    8.1168   -0.4019   18.3412 H   0  0  0  0  0  0  0  0  0  0  0  0
    4.9175    1.7966   16.9845 H   0  0  0  0  0  0  0  0  0  0  0  0
    3.8781    1.8349   19.2484 H   0  0  0  0  0  0  0  0  0  0  0  0
    4.9963    0.6320   21.1445 H   0  0  0  0  0  0  0  0  0  0  0  0
    8.3801   -1.0757   20.5699 H   0  0  0  0  0  0  0  0  0  0  0  0
    7.5427    1.1898   21.8372 H   0  0  0  0  0  0  0  0  0  0  0  0
    9.8775    0.2055   21.7530 H   0  0  0  0  0  0  0  0  0  0  0  0
    9.3444   -1.0246   22.9075 H   0  0  0  0  0  0  0  0  0  0  0  0
    9.4316    0.6745   23.4192 H   0  0  0  0  0  0  0  0  0  0  0  0
  1  2  1  0
  2  3  1  0
  3  4  1  0
  4  5  2  0
  5  6  1  0
  6  7  2  0
  7  8  1  0
  8  9  2  0
  9 10  1  0
  8 11  1  0
  7 12  1  0
  6 13  1  0
  5 14  1  0
  3 15  1  0
  3 16  1  0
  2 17  1  0
 17 18  1  0
 18 19  2  0
 18 20  1  0
 17 21  1  0
 21 22  2  0
 22 23  1  0
 23 24  2  0
 24 25  1  0
 25 26  2  0
 26 27  1  0
 24 28  1  0
 23 29  1  0
 22 30  1  0
 17 31  1  0
  2 32  1  0
  1 33  1  0
  1 34  1  0
  1 35  1  0
  9  4  1  0
 26 21  1  0
M  CHG  2   2   1  20  -1
M  END
>  <cnnaffinity>  (1) 
-4.81476

>  <filename>  (1) 
[H]c1nc([H])c(C([H])(C(=O)[O-])[N+]([H])(C([H])([H])[H])C([H])([H])c2c([H])c([H])c([H])c([H])c2Cl)c([H])c1[H]

$$$$
