
     RDKit          3D

 26 27  0  0  0  0  0  0  0  0999 V2000
    4.9145    1.7906   16.9864 H   0  0  0  0  0  0  0  0  0  0  0  0
    5.3986    1.2998   17.8269 C   0  0  0  0  0  0  0  0  0  0  0  0
    6.5617    0.6884   17.5588 N   0  0  0  0  0  0  0  0  0  0  0  0
    7.1591    0.0620   18.5824 C   0  0  0  0  0  0  0  0  0  0  0  0
    8.1109   -0.4188   18.3603 H   0  0  0  0  0  0  0  0  0  0  0  0
    6.6381   -0.0210   19.8862 C   0  0  0  0  0  0  0  0  0  0  0  0
    7.3842   -0.6963   21.0171 C   0  0  0  0  0  0  0  0  0  0  0  0
    6.6843   -1.2152   21.6877 H   0  0  0  0  0  0  0  0  0  0  0  0
    8.0715   -1.4538   20.6146 H   0  0  0  0  0  0  0  0  0  0  0  0
    8.2030    0.3001   21.8502 C   0  0  1  0  0  0  0  0  0  0  0  0
    7.5205    1.0794   22.2156 H   0  0  0  0  0  0  0  0  0  0  0  0
    8.8243   -0.3449   23.0041 N   0  0  0  0  0  0  0  0  0  0  0  0
    9.1632   -1.2460   22.6861 H   0  0  0  0  0  0  0  0  0  0  0  0
    9.9644    0.4928   23.3946 C   0  0  0  0  0  0  0  0  0  0  0  0
    9.6678    1.1497   24.2198 H   0  0  0  0  0  0  0  0  0  0  0  0
   10.7720   -0.1412   23.7752 H   0  0  0  0  0  0  0  0  0  0  0  0
   10.3849    1.3260   22.1569 C   0  0  0  0  0  0  0  0  0  0  0  0
   10.3722    2.3961   22.3884 H   0  0  0  0  0  0  0  0  0  0  0  0
   11.4018    1.0890   21.8334 H   0  0  0  0  0  0  0  0  0  0  0  0
    9.3464    0.9727   21.0822 C   0  0  0  0  0  0  0  0  0  0  0  0
    8.9779    1.8419   20.5364 H   0  0  0  0  0  0  0  0  0  0  0  0
    9.7568    0.2762   20.3414 H   0  0  0  0  0  0  0  0  0  0  0  0
    5.4331    0.6471   20.1466 C   0  0  0  0  0  0  0  0  0  0  0  0
    5.0168    0.6349   21.1592 H   0  0  0  0  0  0  0  0  0  0  0  0
    4.8017    1.3145   19.0945 C   0  0  0  0  0  0  0  0  0  0  0  0
    3.8698    1.8481   19.2519 H   0  0  0  0  0  0  0  0  0  0  0  0
  1  2  1  0
  2  3  2  0
  3  4  1  0
  4  5  1  0
  4  6  2  0
  6  7  1  0
  7  8  1  0
  7  9  1  0
  7 10  1  0
 10 11  1  1
 10 12  1  0
 12 13  1  0
 12 14  1  0
 14 15  1  0
 14 16  1  0
 14 17  1  0
 17 18  1  0
 17 19  1  0
 17 20  1  0
 20 21  1  0
 20 22  1  0
  6 23  1  0
 23 24  1  0
 23 25  2  0
 25 26  1  0
 25  2  1  0
 20 10  1  0
M  END
>  <cnnaffinity>  (1) 
-4.12796

>  <filename>  (1) 
[H]c1nc([H])c(C([H])([H])[C@@]2([H])N([H])C([H])([H])C([H])([H])C2([H])[H])c([H])c1[H]

$$$$
