
     RDKit          3D

 37 40  0  0  0  0  0  0  0  0999 V2000
    4.9134    1.7822   16.9928 H   0  0  0  0  0  0  0  0  0  0  0  0
    5.3978    1.2962   17.8338 C   0  0  0  0  0  0  0  0  0  0  0  0
    6.5615    0.6780   17.5698 N   0  0  0  0  0  0  0  0  0  0  0  0
    7.1701    0.0724   18.5935 C   0  0  0  0  0  0  0  0  0  0  0  0
    8.1124   -0.4265   18.3698 H   0  0  0  0  0  0  0  0  0  0  0  0
    6.6585    0.0144   19.8991 C   0  0  0  0  0  0  0  0  0  0  0  0
    7.3848   -0.7024   20.9739 C   0  0  0  0  0  0  0  0  0  0  0  0
    8.7715   -0.5378   21.1247 C   0  0  0  0  0  0  0  0  0  0  0  0
    9.3045    0.1331   20.4551 H   0  0  0  0  0  0  0  0  0  0  0  0
    9.4441   -1.2059   22.1493 C   0  0  0  0  0  0  0  0  0  0  0  0
   10.5172   -1.0690   22.2670 H   0  0  0  0  0  0  0  0  0  0  0  0
    8.7412   -2.0436   23.0199 C   0  0  0  0  0  0  0  0  0  0  0  0
    9.2761   -2.5707   23.8009 H   0  0  0  0  0  0  0  0  0  0  0  0
    7.3504   -2.2346   22.8904 C   0  0  0  0  0  0  0  0  0  0  0  0
    6.5973   -3.1294   23.8230 C   0  0  0  0  0  0  0  0  0  0  0  0
    5.5980   -3.9929   23.3364 C   0  0  0  0  0  0  0  0  0  0  0  0
    5.3785   -4.0017   22.2698 H   0  0  0  0  0  0  0  0  0  0  0  0
    4.9133   -4.8477   24.2023 C   0  0  0  0  0  0  0  0  0  0  0  0
    4.1418   -5.5077   23.8225 H   0  0  0  0  0  0  0  0  0  0  0  0
    5.1990   -4.8548   25.5727 C   0  0  0  0  0  0  0  0  0  0  0  0
    6.1738   -3.9609   26.0839 C   0  0  0  0  0  0  0  0  0  0  0  0
    6.8668   -3.1310   25.2040 C   0  0  0  0  0  0  0  0  0  0  0  0
    7.6243   -2.4645   25.6020 H   0  0  0  0  0  0  0  0  0  0  0  0
    6.4886   -3.9239   27.4215 O   0  0  0  0  0  0  0  0  0  0  0  0
    5.5484   -4.5634   28.2920 C   0  0  0  0  0  0  0  0  0  0  0  0
    6.0825   -4.7437   29.2272 H   0  0  0  0  0  0  0  0  0  0  0  0
    4.6992   -3.8995   28.5052 H   0  0  0  0  0  0  0  0  0  0  0  0
    5.0473   -5.8832   27.7059 C   0  0  0  0  0  0  0  0  0  0  0  0
    4.2342   -6.2817   28.3154 H   0  0  0  0  0  0  0  0  0  0  0  0
    5.8610   -6.6217   27.6921 H   0  0  0  0  0  0  0  0  0  0  0  0
    4.4987   -5.7037   26.3944 O   0  0  0  0  0  0  0  0  0  0  0  0
    6.6974   -1.5498   21.8536 C   0  0  0  0  0  0  0  0  0  0  0  0
    5.6244   -1.6702   21.7171 H   0  0  0  0  0  0  0  0  0  0  0  0
    5.4321    0.6520   20.1492 C   0  0  0  0  0  0  0  0  0  0  0  0
    5.0123    0.6346   21.1608 H   0  0  0  0  0  0  0  0  0  0  0  0
    4.8030    1.3172   19.1005 C   0  0  0  0  0  0  0  0  0  0  0  0
    3.8699    1.8467   19.2566 H   0  0  0  0  0  0  0  0  0  0  0  0
  1  2  1  0
  2  3  2  0
  3  4  1  0
  4  5  1  0
  4  6  2  0
  6  7  1  0
  7  8  2  0
  8  9  1  0
  8 10  1  0
 10 11  1  0
 10 12  2  0
 12 13  1  0
 12 14  1  0
 14 15  1  0
 15 16  2  0
 16 17  1  0
 16 18  1  0
 18 19  1  0
 18 20  2  0
 20 21  1  0
 21 22  2  0
 22 23  1  0
 21 24  1  0
 24 25  1  0
 25 26  1  0
 25 27  1  0
 25 28  1  0
 28 29  1  0
 28 30  1  0
 28 31  1  0
 14 32  2  0
 32 33  1  0
  6 34  1  0
 34 35  1  0
 34 36  2  0
 36 37  1  0
 36  2  1  0
 32  7  1  0
 22 15  1  0
 31 20  1  0
M  END
>  <cnnaffinity>  (1) 
-4.89133

>  <filename>  (1) 
[H]c1nc([H])c(-c2c([H])c([H])c([H])c(-c3c([H])c([H])c4c(c3[H])OC([H])([H])C([H])([H])O4)c2[H])c([H])c1[H]

$$$$
