
     RDKit          3D

 51 55  0  0  0  0  0  0  0  0999 V2000
    9.8327    7.8761   27.0210 C   0  0  0  0  0  0  0  0  0  0  0  0
    9.5573    6.5379   26.4273 C   0  0  0  0  0  0  0  0  0  0  0  0
    9.7533    6.2395   25.1746 N   0  0  0  0  0  0  0  0  0  0  0  0
    9.3826    4.9130   25.0603 C   0  0  0  0  0  0  0  0  0  0  0  0
    9.3443    4.1016   23.9269 C   0  0  0  0  0  0  0  0  0  0  0  0
    8.9163    2.7814   24.0635 C   0  0  0  0  0  0  0  0  0  0  0  0
    8.8949    1.9360   22.9178 N   0  0  0  0  0  0  0  0  0  0  0  0
    7.8825    1.0638   22.6742 N   0  0  0  0  0  0  0  0  0  0  0  0
    8.2322    0.5157   21.5303 C   0  0  0  0  0  0  0  0  0  0  0  0
    7.4140   -0.5520   20.8502 C   0  0  0  0  0  0  0  0  0  0  0  0
    6.5863   -0.0067   19.6970 C   0  0  0  0  0  0  0  0  0  0  0  0
    5.3798    0.6623   19.9440 C   0  0  0  0  0  0  0  0  0  0  0  0
    4.7566    1.3353   18.8936 C   0  0  0  0  0  0  0  0  0  0  0  0
    5.3471    1.3032   17.6290 C   0  0  0  0  0  0  0  0  0  0  0  0
    6.4654    0.6170   17.3540 N   0  0  0  0  0  0  0  0  0  0  0  0
    7.0532   -0.0245   18.3709 C   0  0  0  0  0  0  0  0  0  0  0  0
    7.9598   -0.5762   18.1175 H   0  0  0  0  0  0  0  0  0  0  0  0
    4.9033    1.8478   16.7992 H   0  0  0  0  0  0  0  0  0  0  0  0
    3.8474    1.9026   19.0449 H   0  0  0  0  0  0  0  0  0  0  0  0
    4.9450    0.6735   20.9457 H   0  0  0  0  0  0  0  0  0  0  0  0
    8.1061   -1.3300   20.5076 H   0  0  0  0  0  0  0  0  0  0  0  0
    6.7688   -1.0008   21.6115 H   0  0  0  0  0  0  0  0  0  0  0  0
    9.4111    0.9713   21.0170 N   0  0  0  0  0  0  0  0  0  0  0  0
    9.8275    1.8311   21.9327 C   0  0  0  0  0  0  0  0  0  0  0  0
   11.2462    2.3355   22.0995 C   0  0  0  0  0  0  0  0  0  0  0  0
   11.9559    1.7178   23.3702 C   0  0  0  0  0  0  0  0  0  0  0  0
   11.8465    0.2082   23.3389 C   0  0  0  0  0  0  0  0  0  0  0  0
   12.6638   -0.5473   22.4889 C   0  0  0  0  0  0  0  0  0  0  0  0
   12.2842   -1.8428   22.1480 C   0  0  0  0  0  0  0  0  0  0  0  0
   11.0873   -2.3367   22.6870 C   0  0  0  0  0  0  0  0  0  0  0  0
   10.3934   -1.5495   23.6137 C   0  0  0  0  0  0  0  0  0  0  0  0
   10.7888   -0.3227   23.9773 N   0  0  0  0  0  0  0  0  0  0  0  0
    9.4909   -1.9096   24.1150 H   0  0  0  0  0  0  0  0  0  0  0  0
   10.6971   -3.3059   22.4106 H   0  0  0  0  0  0  0  0  0  0  0  0
   12.9174   -2.4217   21.4765 H   0  0  0  0  0  0  0  0  0  0  0  0
   13.5243   -0.0760   22.0323 H   0  0  0  0  0  0  0  0  0  0  0  0
   13.0059    2.0277   23.3836 H   0  0  0  0  0  0  0  0  0  0  0  0
   11.4800    2.0675   24.2932 H   0  0  0  0  0  0  0  0  0  0  0  0
   11.7832    2.0483   21.1854 H   0  0  0  0  0  0  0  0  0  0  0  0
   11.2591    3.4296   22.1334 H   0  0  0  0  0  0  0  0  0  0  0  0
    8.5398    2.2659   25.3262 C   0  0  0  0  0  0  0  0  0  0  0  0
    8.5614    3.0704   26.4667 C   0  0  0  0  0  0  0  0  0  0  0  0
    8.9703    4.4024   26.3059 C   0  0  0  0  0  0  0  0  0  0  0  0
    9.1028    5.4731   27.1725 N   0  0  0  0  0  0  0  0  0  0  0  0
    8.6680    5.5415   28.0772 H   0  0  0  0  0  0  0  0  0  0  0  0
    8.2687    2.6639   27.4318 H   0  0  0  0  0  0  0  0  0  0  0  0
    8.2325    1.2256   25.3795 H   0  0  0  0  0  0  0  0  0  0  0  0
    9.6287    4.5129   22.9696 H   0  0  0  0  0  0  0  0  0  0  0  0
   10.7906    7.8733   27.5523 H   0  0  0  0  0  0  0  0  0  0  0  0
    9.8995    8.6081   26.2124 H   0  0  0  0  0  0  0  0  0  0  0  0
    9.0464    8.1787   27.7203 H   0  0  0  0  0  0  0  0  0  0  0  0
  1  2  1  0
  2  3  2  0
  3  4  1  0
  4  5  2  0
  5  6  1  0
  6  7  1  0
  7  8  1  0
  8  9  2  0
  9 10  1  0
 10 11  1  0
 11 12  2  0
 12 13  1  0
 13 14  2  0
 14 15  1  0
 15 16  2  0
 16 17  1  0
 14 18  1  0
 13 19  1  0
 12 20  1  0
 10 21  1  0
 10 22  1  0
  9 23  1  0
 23 24  2  0
 24 25  1  0
 25 26  1  0
 26 27  1  0
 27 28  2  0
 28 29  1  0
 29 30  2  0
 30 31  1  0
 31 32  2  0
 31 33  1  0
 30 34  1  0
 29 35  1  0
 28 36  1  0
 26 37  1  0
 26 38  1  0
 25 39  1  0
 25 40  1  0
  6 41  2  0
 41 42  1  0
 42 43  2  0
 43 44  1  0
 44 45  1  0
 42 46  1  0
 41 47  1  0
  5 48  1  0
  1 49  1  0
  1 50  1  0
  1 51  1  0
 44  2  1  0
 43  4  1  0
 24  7  1  0
 32 27  1  0
 16 11  1  0
M  END
>  <cnnaffinity>  (1) 
-6.06003

>  <filename>  (1) 
[H]c1nc(C([H])([H])C([H])([H])c2nc(C([H])([H])c3c([H])nc([H])c([H])c3[H])nn2-c2c([H])c([H])c3c(nc(C([H])([H])[H])n3[H])c2[H])c([H])c([H])c1[H]

$$$$
