
     RDKit          3D

 32 34  0  0  0  0  0  0  0  0999 V2000
    5.0115    1.7422   17.0123 H   0  0  0  0  0  0  0  0  0  0  0  0
    5.4579    1.2644   17.8807 C   0  0  0  0  0  0  0  0  0  0  0  0
    6.6186    0.6219   17.6808 N   0  0  0  0  0  0  0  0  0  0  0  0
    7.1842    0.0258   18.7311 C   0  0  0  0  0  0  0  0  0  0  0  0
    8.1210   -0.4993   18.5441 H   0  0  0  0  0  0  0  0  0  0  0  0
    6.6412    0.0611   20.0183 C   0  0  0  0  0  0  0  0  0  0  0  0
    7.4352   -0.6486   21.0583 C   0  0  0  0  0  0  0  0  0  0  0  0
    8.1296   -1.6199   20.7939 O   0  0  0  0  0  0  0  0  0  0  0  0
    7.3736   -0.1442   22.3186 N   0  0  0  0  0  0  0  0  0  0  0  0
    8.0548   -0.6929   23.4812 C   0  0  0  0  0  0  0  0  0  0  0  0
    9.1193   -0.9002   23.2984 H   0  0  0  0  0  0  0  0  0  0  0  0
    7.5854   -1.6154   23.8536 H   0  0  0  0  0  0  0  0  0  0  0  0
    7.7526    0.6457   24.2392 C   0  0  0  0  0  0  0  0  0  0  0  0
    8.6711    1.1661   24.5088 H   0  0  0  0  0  0  0  0  0  0  0  0
    6.8173    0.5665   25.4210 C   0  0  0  0  0  0  0  0  0  0  0  0
    5.6156   -0.1381   25.2787 C   0  0  0  0  0  0  0  0  0  0  0  0
    5.4583   -0.6270   24.3346 H   0  0  0  0  0  0  0  0  0  0  0  0
    4.6755   -0.2387   26.2966 C   0  0  0  0  0  0  0  0  0  0  0  0
    3.7348   -0.7577   26.1326 H   0  0  0  0  0  0  0  0  0  0  0  0
    4.9572    0.3391   27.5341 C   0  0  0  0  0  0  0  0  0  0  0  0
    4.2637    0.2649   28.3625 H   0  0  0  0  0  0  0  0  0  0  0  0
    6.1568    1.0307   27.7270 C   0  0  0  0  0  0  0  0  0  0  0  0
    6.4724    1.6902   29.3020 Cl  0  0  0  0  0  0  0  0  0  0  0  0
    7.0700    1.1757   26.6648 C   0  0  0  0  0  0  0  0  0  0  0  0
    8.4856    2.1485   26.8738 Cl  0  0  0  0  0  0  0  0  0  0  0  0
    7.1333    1.1811   22.9002 C   0  0  0  0  0  0  0  0  0  0  0  0
    7.6924    2.0005   22.4235 H   0  0  0  0  0  0  0  0  0  0  0  0
    6.0703    1.4629   22.9381 H   0  0  0  0  0  0  0  0  0  0  0  0
    5.4099    0.7068   20.2163 C   0  0  0  0  0  0  0  0  0  0  0  0
    4.9224    0.7291   21.1942 H   0  0  0  0  0  0  0  0  0  0  0  0
    4.8116    1.3163   19.1206 C   0  0  0  0  0  0  0  0  0  0  0  0
    3.8650    1.8321   19.2237 H   0  0  0  0  0  0  0  0  0  0  0  0
  1  2  1  0
  2  3  2  0
  3  4  1  0
  4  5  1  0
  4  6  2  0
  6  7  1  0
  7  8  2  0
  7  9  1  0
  9 10  1  0
 10 11  1  0
 10 12  1  0
 10 13  1  0
 13 14  1  0
 13 15  1  0
 15 16  2  0
 16 17  1  0
 16 18  1  0
 18 19  1  0
 18 20  2  0
 20 21  1  0
 20 22  1  0
 22 23  1  0
 22 24  2  0
 24 25  1  0
 13 26  1  0
 26 27  1  0
 26 28  1  0
  6 29  1  0
 29 30  1  0
 29 31  2  0
 31 32  1  0
 31  2  1  0
 26  9  1  0
 24 15  1  0
M  END
>  <cnnaffinity>  (1) 
-5.0847

>  <filename>  (1) 
[H]c1nc([H])c(C(=O)N2C([H])([H])C([H])(c3c([H])c([H])c([H])c(Cl)c3Cl)C2([H])[H])c([H])c1[H]

$$$$
