
     RDKit          3D

 27 28  0  0  0  0  0  0  0  0999 V2000
    6.8325   -0.6566   22.0572 H   0  0  0  0  0  0  0  0  0  0  0  0
    7.3180   -0.7344   21.0700 C   0  0  0  0  0  0  0  0  0  0  0  0
    8.3989   -1.3750   20.8580 N   0  0  0  0  0  0  0  0  0  0  0  0
    9.0844   -1.8967   21.9545 C   0  0  0  0  0  0  0  0  0  0  0  0
    8.4718   -2.0432   23.1378 N   0  0  0  0  0  0  0  0  0  0  0  0
    9.2062   -2.6182   24.0862 C   0  0  0  0  0  0  0  0  0  0  0  0
    8.6835   -2.8396   25.3063 O   0  0  0  0  0  0  0  0  0  0  0  0
    7.5127   -2.1409   25.7116 C   0  0  0  0  0  0  0  0  0  0  0  0
    7.6251   -1.0611   25.5510 H   0  0  0  0  0  0  0  0  0  0  0  0
    6.6298   -2.5036   25.1714 H   0  0  0  0  0  0  0  0  0  0  0  0
    7.3947   -2.3364   26.7822 H   0  0  0  0  0  0  0  0  0  0  0  0
   10.5410   -3.0282   23.9431 C   0  0  0  0  0  0  0  0  0  0  0  0
   10.9807   -3.5435   24.7851 H   0  0  0  0  0  0  0  0  0  0  0  0
   11.1907   -2.7528   22.7430 C   0  0  0  0  0  0  0  0  0  0  0  0
   12.2481   -2.9770   22.5641 H   0  0  0  0  0  0  0  0  0  0  0  0
   10.4365   -2.1844   21.7257 C   0  0  0  0  0  0  0  0  0  0  0  0
   10.8495   -1.9596   20.7639 H   0  0  0  0  0  0  0  0  0  0  0  0
    6.6407   -0.0379   19.9803 C   0  0  0  0  0  0  0  0  0  0  0  0
    7.1959   -0.0068   18.6869 C   0  0  0  0  0  0  0  0  0  0  0  0
    8.1438   -0.5012   18.4846 H   0  0  0  0  0  0  0  0  0  0  0  0
    6.6226    0.6182   17.6594 N   0  0  0  0  0  0  0  0  0  0  0  0
    5.4622    1.2528   17.8851 C   0  0  0  0  0  0  0  0  0  0  0  0
    5.0163    1.7578   17.0310 H   0  0  0  0  0  0  0  0  0  0  0  0
    4.8310    1.2850   19.1323 C   0  0  0  0  0  0  0  0  0  0  0  0
    3.8987    1.8206   19.2505 H   0  0  0  0  0  0  0  0  0  0  0  0
    5.4318    0.6336   20.2038 C   0  0  0  0  0  0  0  0  0  0  0  0
    4.9902    0.6475   21.2010 H   0  0  0  0  0  0  0  0  0  0  0  0
  1  2  1  0
  2  3  2  3
  3  4  1  0
  4  5  2  0
  5  6  1  0
  6  7  1  0
  7  8  1  0
  8  9  1  0
  8 10  1  0
  8 11  1  0
  6 12  2  0
 12 13  1  0
 12 14  1  0
 14 15  1  0
 14 16  2  0
 16 17  1  0
  2 18  1  0
 18 19  2  0
 19 20  1  0
 19 21  1  0
 21 22  2  0
 22 23  1  0
 22 24  1  0
 24 25  1  0
 24 26  2  0
 26 27  1  0
 16  4  1  0
 26 18  1  0
M  END
>  <cnnaffinity>  (1) 
-4.53818

>  <filename>  (1) 
[H]C(=Nc1nc(OC([H])([H])[H])c([H])c([H])c1[H])c1c([H])nc([H])c([H])c1[H]

$$$$
