
     RDKit          3D

 39 42  0  0  0  0  0  0  0  0999 V2000
    3.4656   -2.2584   27.7407 F   0  0  0  0  0  0  0  0  0  0  0  0
    4.6553   -2.1103   27.1336 C   0  0  0  0  0  0  0  0  0  0  0  0
    5.7775   -2.6773   27.7582 C   0  0  0  0  0  0  0  0  0  0  0  0
    7.0397   -2.5463   27.1769 C   0  0  0  0  0  0  0  0  0  0  0  0
    7.1629   -1.8505   25.9650 C   0  0  0  0  0  0  0  0  0  0  0  0
    8.2843   -1.5737   25.1898 N   0  0  0  0  0  0  0  0  0  0  0  0
    7.8167   -0.8993   24.1707 C   0  0  0  0  0  0  0  0  0  0  0  0
    8.5643   -0.3939   23.1519 N   0  0  0  0  0  0  0  0  0  0  0  0
   10.0198   -0.4882   23.2077 C   0  0  0  0  0  0  0  0  0  0  0  0
   10.4927    0.1414   21.8869 C   0  0  0  0  0  0  0  0  0  0  0  0
    9.2958    0.9599   21.3813 C   0  0  0  0  0  0  0  0  0  0  0  0
    8.0463    0.2829   21.9701 C   0  0  0  0  0  0  0  0  0  0  0  0
    7.3692   -0.7126   21.0027 C   0  0  0  0  0  0  0  0  0  0  0  0
    6.6372   -0.0201   19.8782 C   0  0  0  0  0  0  0  0  0  0  0  0
    5.4295    0.6464   20.1300 C   0  0  0  0  0  0  0  0  0  0  0  0
    4.7965    1.3164   19.0837 C   0  0  0  0  0  0  0  0  0  0  0  0
    5.3898    1.3046   17.8175 C   0  0  0  0  0  0  0  0  0  0  0  0
    6.5499    0.6878   17.5547 N   0  0  0  0  0  0  0  0  0  0  0  0
    7.1522    0.0543   18.5707 C   0  0  0  0  0  0  0  0  0  0  0  0
    8.1083   -0.4176   18.3357 H   0  0  0  0  0  0  0  0  0  0  0  0
    4.9139    1.8052   16.9768 H   0  0  0  0  0  0  0  0  0  0  0  0
    3.8701    1.8505   19.2402 H   0  0  0  0  0  0  0  0  0  0  0  0
    5.0054    0.6420   21.1381 H   0  0  0  0  0  0  0  0  0  0  0  0
    8.1423   -1.3943   20.6236 H   0  0  0  0  0  0  0  0  0  0  0  0
    6.6758   -1.3283   21.5877 H   0  0  0  0  0  0  0  0  0  0  0  0
    7.3089    1.0501   22.2521 H   0  0  0  0  0  0  0  0  0  0  0  0
    9.3499    2.0007   21.7161 H   0  0  0  0  0  0  0  0  0  0  0  0
    9.2513    0.9789   20.2883 H   0  0  0  0  0  0  0  0  0  0  0  0
   11.3779    0.7671   22.0313 H   0  0  0  0  0  0  0  0  0  0  0  0
   10.7720   -0.6337   21.1642 H   0  0  0  0  0  0  0  0  0  0  0  0
   10.3390   -1.5333   23.3230 H   0  0  0  0  0  0  0  0  0  0  0  0
   10.3967    0.0503   24.0882 H   0  0  0  0  0  0  0  0  0  0  0  0
    6.4529   -0.7163   24.2170 N   0  0  0  0  0  0  0  0  0  0  0  0
    5.9978   -1.3097   25.3719 C   0  0  0  0  0  0  0  0  0  0  0  0
    4.7248   -1.4183   25.9331 C   0  0  0  0  0  0  0  0  0  0  0  0
    3.8183   -1.0145   25.4969 H   0  0  0  0  0  0  0  0  0  0  0  0
    5.8986   -0.2326   23.5329 H   0  0  0  0  0  0  0  0  0  0  0  0
    7.9311   -2.9643   27.6353 H   0  0  0  0  0  0  0  0  0  0  0  0
    5.6085   -3.2048   28.6919 H   0  0  0  0  0  0  0  0  0  0  0  0
  1  2  1  0
  2  3  2  0
  3  4  1  0
  4  5  2  0
  5  6  1  0
  6  7  2  0
  7  8  1  0
  8  9  1  0
  9 10  1  0
 10 11  1  0
 11 12  1  0
 12 13  1  0
 13 14  1  0
 14 15  2  0
 15 16  1  0
 16 17  2  0
 17 18  1  0
 18 19  2  0
 19 20  1  0
 17 21  1  0
 16 22  1  0
 15 23  1  0
 13 24  1  0
 13 25  1  0
 12 26  1  0
 11 27  1  0
 11 28  1  0
 10 29  1  0
 10 30  1  0
  9 31  1  0
  9 32  1  0
  7 33  1  0
 33 34  1  0
 34 35  2  0
 35 36  1  0
 33 37  1  0
  4 38  1  0
  3 39  1  0
 35  2  1  0
 34  5  1  0
 12  8  1  0
 19 14  1  0
M  END
>  <cnnaffinity>  (1) 
-5.63626

>  <filename>  (1) 
[H]c1nc([H])c(C([H])([H])C2([H])N(c3nc4c([H])c([H])c(F)c([H])c4n3[H])C([H])([H])C([H])([H])C2([H])[H])c([H])c1[H]

$$$$
