
     RDKit          3D

 34 36  0  0  0  0  0  0  0  0999 V2000
    4.9290    1.8105   16.9649 H   0  0  0  0  0  0  0  0  0  0  0  0
    5.3909    1.3139   17.8116 C   0  0  0  0  0  0  0  0  0  0  0  0
    6.5524    0.6843   17.5668 N   0  0  0  0  0  0  0  0  0  0  0  0
    7.1447    0.0716   18.6010 C   0  0  0  0  0  0  0  0  0  0  0  0
    8.0912   -0.4188   18.3697 H   0  0  0  0  0  0  0  0  0  0  0  0
    6.6331    0.0543   19.9195 C   0  0  0  0  0  0  0  0  0  0  0  0
    7.3334   -0.7028   20.9911 C   0  0  0  0  0  0  0  0  0  0  0  0
    7.6827   -2.0324   21.0131 C   0  0  0  0  0  0  0  0  0  0  0  0
    7.3563   -2.7630   20.2938 H   0  0  0  0  0  0  0  0  0  0  0  0
    8.4362   -2.1930   22.1970 C   0  0  0  0  0  0  0  0  0  0  0  0
    8.9420   -3.0646   22.5966 H   0  0  0  0  0  0  0  0  0  0  0  0
    8.5075   -1.0599   22.8794 N   0  0  0  0  0  0  0  0  0  0  0  0
    7.8204   -0.1589   22.1529 N   0  0  0  0  0  0  0  0  0  0  0  0
    7.5134    1.1301   22.7598 C   0  0  0  0  0  0  0  0  0  0  0  0
    8.4305    1.5265   23.1986 H   0  0  0  0  0  0  0  0  0  0  0  0
    7.2139    1.8097   21.9622 H   0  0  0  0  0  0  0  0  0  0  0  0
    6.4193    1.0682   23.8431 C   0  0  0  0  0  0  0  0  0  0  0  0
    6.7718    0.4620   24.6872 H   0  0  0  0  0  0  0  0  0  0  0  0
    5.5371    0.5558   23.4430 H   0  0  0  0  0  0  0  0  0  0  0  0
    6.0490    2.4583   24.2999 C   0  0  0  0  0  0  0  0  0  0  0  0
    5.0432    3.1903   23.6480 C   0  0  0  0  0  0  0  0  0  0  0  0
    4.4964    2.7367   22.8233 H   0  0  0  0  0  0  0  0  0  0  0  0
    4.7381    4.5025   24.0244 C   0  0  0  0  0  0  0  0  0  0  0  0
    3.9682    5.0844   23.5285 H   0  0  0  0  0  0  0  0  0  0  0  0
    5.4602    5.0804   25.0653 C   0  0  0  0  0  0  0  0  0  0  0  0
    5.1702    6.3382   25.4416 F   0  0  0  0  0  0  0  0  0  0  0  0
    6.4742    4.3945   25.7286 C   0  0  0  0  0  0  0  0  0  0  0  0
    7.0177    4.8939   26.5236 H   0  0  0  0  0  0  0  0  0  0  0  0
    6.7613    3.0834   25.3363 C   0  0  0  0  0  0  0  0  0  0  0  0
    7.5601    2.5357   25.8316 H   0  0  0  0  0  0  0  0  0  0  0  0
    5.4110    0.7140   20.1354 C   0  0  0  0  0  0  0  0  0  0  0  0
    4.9515    0.6967   21.1268 H   0  0  0  0  0  0  0  0  0  0  0  0
    4.7777    1.3486   19.0685 C   0  0  0  0  0  0  0  0  0  0  0  0
    3.8327    1.8645   19.1972 H   0  0  0  0  0  0  0  0  0  0  0  0
  1  2  1  0
  2  3  2  0
  3  4  1  0
  4  5  1  0
  4  6  2  0
  6  7  1  0
  7  8  2  0
  8  9  1  0
  8 10  1  0
 10 11  1  0
 10 12  2  0
 12 13  1  0
 13 14  1  0
 14 15  1  0
 14 16  1  0
 14 17  1  0
 17 18  1  0
 17 19  1  0
 17 20  1  0
 20 21  2  0
 21 22  1  0
 21 23  1  0
 23 24  1  0
 23 25  2  0
 25 26  1  0
 25 27  1  0
 27 28  1  0
 27 29  2  0
 29 30  1  0
  6 31  1  0
 31 32  1  0
 31 33  2  0
 33 34  1  0
 33  2  1  0
 13  7  1  0
 29 20  1  0
M  END
>  <cnnaffinity>  (1) 
-4.77265

>  <filename>  (1) 
[H]c1nc([H])c(-c2c([H])c([H])nn2C([H])([H])C([H])([H])c2c([H])c([H])c(F)c([H])c2[H])c([H])c1[H]

$$$$
