
     RDKit          3D

 38 41  0  0  0  0  0  0  0  0999 V2000
    2.4904   -7.0126   24.2114 H   0  0  0  0  0  0  0  0  0  0  0  0
    3.2858   -6.8548   24.9393 C   0  0  0  0  0  0  0  0  0  0  0  0
    4.0472   -5.7680   24.7630 N   0  0  0  0  0  0  0  0  0  0  0  0
    5.0146   -5.5080   25.6753 C   0  0  0  0  0  0  0  0  0  0  0  0
    5.8048   -4.1873   25.5874 C   0  0  0  0  0  0  0  0  0  0  0  0
    6.5798   -3.8337   26.4719 O   0  0  0  0  0  0  0  0  0  0  0  0
    5.5643   -3.4123   24.4822 N   0  0  0  0  0  0  0  0  0  0  0  0
    4.9432   -3.7990   23.7830 H   0  0  0  0  0  0  0  0  0  0  0  0
    6.2572   -2.2455   24.1846 C   0  0  0  0  0  0  0  0  0  0  0  0
    6.6877   -1.7334   22.9890 C   0  0  0  0  0  0  0  0  0  0  0  0
    7.2782   -0.5179   23.3347 C   0  0  0  0  0  0  0  0  0  0  0  0
    7.2731   -0.2672   24.6286 N   0  0  0  0  0  0  0  0  0  0  0  0
    6.6109   -1.3458   25.1466 N   0  0  0  0  0  0  0  0  0  0  0  0
    6.7015   -1.6304   26.1163 H   0  0  0  0  0  0  0  0  0  0  0  0
    7.8155    0.2242   22.1544 C   0  0  0  0  0  0  0  0  0  0  0  0
    8.8974    0.3586   22.2389 H   0  0  0  0  0  0  0  0  0  0  0  0
    7.3793    1.2259   22.0903 H   0  0  0  0  0  0  0  0  0  0  0  0
    7.4485   -0.6991   20.9450 C   0  0  2  0  0  0  0  0  0  0  0  0
    8.3927   -1.0629   20.5293 H   0  0  0  0  0  0  0  0  0  0  0  0
    6.6968    0.0233   19.8477 C   0  0  0  0  0  0  0  0  0  0  0  0
    7.1761    0.0784   18.5244 C   0  0  0  0  0  0  0  0  0  0  0  0
    8.1126   -0.4157   18.2699 H   0  0  0  0  0  0  0  0  0  0  0  0
    6.5614    0.6997   17.5099 N   0  0  0  0  0  0  0  0  0  0  0  0
    5.4030    1.3158   17.7901 C   0  0  0  0  0  0  0  0  0  0  0  0
    4.9162    1.8328   16.9638 H   0  0  0  0  0  0  0  0  0  0  0  0
    4.8198    1.3149   19.0629 C   0  0  0  0  0  0  0  0  0  0  0  0
    3.8810    1.8341   19.2218 H   0  0  0  0  0  0  0  0  0  0  0  0
    5.4747    0.6609   20.1075 C   0  0  0  0  0  0  0  0  0  0  0  0
    5.0417    0.6555   21.1123 H   0  0  0  0  0  0  0  0  0  0  0  0
    6.6682   -1.9415   21.5097 C   0  0  0  0  0  0  0  0  0  0  0  0
    7.1598   -2.8689   21.1914 H   0  0  0  0  0  0  0  0  0  0  0  0
    5.6361   -1.9814   21.1317 H   0  0  0  0  0  0  0  0  0  0  0  0
    5.2918   -6.3820   26.7392 C   0  0  0  0  0  0  0  0  0  0  0  0
    6.1062   -6.1419   27.4139 H   0  0  0  0  0  0  0  0  0  0  0  0
    4.4906   -7.5080   26.9202 C   0  0  0  0  0  0  0  0  0  0  0  0
    4.6707   -8.1777   27.7630 H   0  0  0  0  0  0  0  0  0  0  0  0
    3.4636   -7.7447   26.0042 C   0  0  0  0  0  0  0  0  0  0  0  0
    2.7992   -8.5893   26.1237 H   0  0  0  0  0  0  0  0  0  0  0  0
  1  2  1  0
  2  3  2  0
  3  4  1  0
  4  5  1  0
  5  6  2  0
  5  7  1  0
  7  8  1  0
  7  9  1  0
  9 10  2  0
 10 11  1  0
 11 12  2  0
 12 13  1  0
 13 14  1  0
 11 15  1  0
 15 16  1  0
 15 17  1  0
 15 18  1  0
 18 19  1  6
 18 20  1  0
 20 21  2  0
 21 22  1  0
 21 23  1  0
 23 24  2  0
 24 25  1  0
 24 26  1  0
 26 27  1  0
 26 28  2  0
 28 29  1  0
 18 30  1  0
 30 31  1  0
 30 32  1  0
  4 33  2  0
 33 34  1  0
 33 35  1  0
 35 36  1  0
 35 37  2  0
 37 38  1  0
 37  2  1  0
 13  9  1  0
 28 20  1  0
 30 10  1  0
M  END
>  <cnnaffinity>  (1) 
-5.3372

>  <filename>  (1) 
[H]c1nc(C(=O)N([H])c2c3c(nn2[H])C([H])([H])[C@]([H])(c2c([H])nc([H])c([H])c2[H])C3([H])[H])c([H])c([H])c1[H]

$$$$
