
     RDKit          3D

 29 30  0  0  0  0  0  0  0  0999 V2000
    4.9260    1.7630   16.9056 H   0  0  0  0  0  0  0  0  0  0  0  0
    5.3667    1.2972   17.7846 C   0  0  0  0  0  0  0  0  0  0  0  0
    6.5273    0.6563   17.5898 N   0  0  0  0  0  0  0  0  0  0  0  0
    7.1000    0.0906   18.6642 C   0  0  0  0  0  0  0  0  0  0  0  0
    8.0332   -0.4415   18.4832 H   0  0  0  0  0  0  0  0  0  0  0  0
    6.5880    0.1526   19.9744 C   0  0  0  0  0  0  0  0  0  0  0  0
    7.3254   -0.4806   21.1706 C   0  0  2  0  0  0  0  0  0  0  0  0
    6.6927   -0.3351   22.0543 H   0  0  0  0  0  0  0  0  0  0  0  0
    8.6969    0.1744   21.4797 C   0  0  0  0  0  0  0  0  0  0  0  0
    9.6092    0.1698   20.6836 O   0  0  0  0  0  0  0  0  0  0  0  0
    8.8753    0.8951   22.7998 C   0  0  0  0  0  0  0  0  0  0  0  0
    8.4902    0.3217   23.6465 H   0  0  0  0  0  0  0  0  0  0  0  0
    9.9405    1.1153   22.9209 H   0  0  0  0  0  0  0  0  0  0  0  0
    8.0854    2.1326   22.6197 C   0  0  0  0  0  0  0  0  0  0  0  0
    6.8063    2.2685   23.0779 N   0  0  0  0  0  0  0  0  0  0  0  0
    6.4322    3.4655   22.6988 C   0  0  0  0  0  0  0  0  0  0  0  0
    5.4722    3.9324   22.8917 H   0  0  0  0  0  0  0  0  0  0  0  0
    7.4050    4.0866   21.9813 N   0  0  0  0  0  0  0  0  0  0  0  0
    7.3514    5.0250   21.6307 H   0  0  0  0  0  0  0  0  0  0  0  0
    8.4712    3.2233   21.9101 C   0  0  0  0  0  0  0  0  0  0  0  0
    9.3891    3.3626   21.3671 H   0  0  0  0  0  0  0  0  0  0  0  0
    7.5516   -1.9963   21.0065 C   0  0  0  0  0  0  0  0  0  0  0  0
    7.7024   -2.4646   21.9873 H   0  0  0  0  0  0  0  0  0  0  0  0
    6.6938   -2.4848   20.5375 H   0  0  0  0  0  0  0  0  0  0  0  0
    8.4413   -2.1801   20.3974 H   0  0  0  0  0  0  0  0  0  0  0  0
    5.3462    0.7877   20.1346 C   0  0  0  0  0  0  0  0  0  0  0  0
    4.8667    0.8079   21.1147 H   0  0  0  0  0  0  0  0  0  0  0  0
    4.7246    1.3696   19.0239 C   0  0  0  0  0  0  0  0  0  0  0  0
    3.7700    1.8780   19.1038 H   0  0  0  0  0  0  0  0  0  0  0  0
  1  2  1  0
  2  3  2  0
  3  4  1  0
  4  5  1  0
  4  6  2  0
  6  7  1  0
  7  8  1  1
  7  9  1  0
  9 10  2  0
  9 11  1  0
 11 12  1  0
 11 13  1  0
 11 14  1  0
 14 15  1  0
 15 16  2  0
 16 17  1  0
 16 18  1  0
 18 19  1  0
 18 20  1  0
 20 21  1  0
  7 22  1  0
 22 23  1  0
 22 24  1  0
 22 25  1  0
  6 26  1  0
 26 27  1  0
 26 28  2  0
 28 29  1  0
 28  2  1  0
 20 14  2  0
M  END
>  <cnnaffinity>  (1) 
-4.33045

>  <filename>  (1) 
[H]c1nc([H])c([C@]([H])(C(=O)C([H])([H])c2nc([H])n([H])c2[H])C([H])([H])[H])c([H])c1[H]

$$$$
