
     RDKit          3D

 38 40  0  0  0  0  0  0  0  0999 V2000
    4.9694    1.7679   17.0405 H   0  0  0  0  0  0  0  0  0  0  0  0
    5.4445    1.2626   17.8788 C   0  0  0  0  0  0  0  0  0  0  0  0
    6.6138    0.6559   17.6180 N   0  0  0  0  0  0  0  0  0  0  0  0
    7.2368    0.0417   18.6319 C   0  0  0  0  0  0  0  0  0  0  0  0
    8.1857   -0.4382   18.3967 H   0  0  0  0  0  0  0  0  0  0  0  0
    6.7184   -0.0352   19.9478 C   0  0  0  0  0  0  0  0  0  0  0  0
    7.4027   -0.6876   21.0069 N   0  0  0  0  0  0  0  0  0  0  0  0
    6.8407   -1.6745   21.8256 C   0  0  0  0  0  0  0  0  0  0  0  0
    5.7678   -2.2148   21.6598 O   0  0  0  0  0  0  0  0  0  0  0  0
    7.7733   -1.9308   22.8227 N   0  0  0  0  0  0  0  0  0  0  0  0
    7.5514   -2.7252   23.9688 C   0  0  0  0  0  0  0  0  0  0  0  0
    8.3721   -2.5397   25.1015 C   0  0  0  0  0  0  0  0  0  0  0  0
    9.1291   -1.7653   25.0913 H   0  0  0  0  0  0  0  0  0  0  0  0
    8.2021   -3.3402   26.2309 C   0  0  0  0  0  0  0  0  0  0  0  0
    8.8411   -3.2083   27.1006 H   0  0  0  0  0  0  0  0  0  0  0  0
    7.2066   -4.3155   26.2597 C   0  0  0  0  0  0  0  0  0  0  0  0
    7.0452   -4.9465   27.1218 H   0  0  0  0  0  0  0  0  0  0  0  0
    6.3757   -4.4820   25.1449 C   0  0  0  0  0  0  0  0  0  0  0  0
    5.3670   -5.4694   25.1553 N   0  0  0  0  0  0  0  0  0  0  0  0
    5.1398   -5.9087   24.2803 H   0  0  0  0  0  0  0  0  0  0  0  0
    4.6608   -5.8778   26.2567 C   0  0  0  0  0  0  0  0  0  0  0  0
    4.7153   -5.3090   27.3265 O   0  0  0  0  0  0  0  0  0  0  0  0
    3.7871   -7.0890   26.0481 C   0  0  0  0  0  0  0  0  0  0  0  0
    4.2695   -7.8299   25.4091 H   0  0  0  0  0  0  0  0  0  0  0  0
    2.8442   -6.7813   25.5890 H   0  0  0  0  0  0  0  0  0  0  0  0
    3.5887   -7.5155   27.0339 H   0  0  0  0  0  0  0  0  0  0  0  0
    6.5397   -3.7003   23.9995 C   0  0  0  0  0  0  0  0  0  0  0  0
    5.8745   -3.8147   23.1528 H   0  0  0  0  0  0  0  0  0  0  0  0
    9.0710   -1.3414   22.5063 C   0  0  0  0  0  0  0  0  0  0  0  0
    9.3944   -0.6232   23.2675 H   0  0  0  0  0  0  0  0  0  0  0  0
    9.8358   -2.1185   22.4408 H   0  0  0  0  0  0  0  0  0  0  0  0
    8.8487   -0.6610   21.1521 C   0  0  0  0  0  0  0  0  0  0  0  0
    9.2380    0.3610   21.1296 H   0  0  0  0  0  0  0  0  0  0  0  0
    9.3263   -1.2242   20.3400 H   0  0  0  0  0  0  0  0  0  0  0  0
    5.4821    0.5905   20.1962 C   0  0  0  0  0  0  0  0  0  0  0  0
    5.0440    0.5356   21.1941 H   0  0  0  0  0  0  0  0  0  0  0  0
    4.8455    1.2655   19.1463 C   0  0  0  0  0  0  0  0  0  0  0  0
    3.9031    1.7922   19.2923 H   0  0  0  0  0  0  0  0  0  0  0  0
  1  2  1  0
  2  3  2  0
  3  4  1  0
  4  5  1  0
  4  6  2  0
  6  7  1  0
  7  8  1  0
  8  9  2  0
  8 10  1  0
 10 11  1  0
 11 12  2  0
 12 13  1  0
 12 14  1  0
 14 15  1  0
 14 16  2  0
 16 17  1  0
 16 18  1  0
 18 19  1  0
 19 20  1  0
 19 21  1  0
 21 22  2  0
 21 23  1  0
 23 24  1  0
 23 25  1  0
 23 26  1  0
 18 27  2  0
 27 28  1  0
 10 29  1  0
 29 30  1  0
 29 31  1  0
 29 32  1  0
 32 33  1  0
 32 34  1  0
  6 35  1  0
 35 36  1  0
 35 37  2  0
 37 38  1  0
 37  2  1  0
 32  7  1  0
 27 11  1  0
M  END
>  <cnnaffinity>  (1) 
-5.14579

>  <filename>  (1) 
[H]c1nc([H])c(N2C(=O)N(c3c([H])c([H])c([H])c(N([H])C(=O)C([H])([H])[H])c3[H])C([H])([H])C2([H])[H])c([H])c1[H]

$$$$
