
     RDKit          3D

 41 43  0  0  0  0  0  0  0  0999 V2000
    4.9134    1.8068   16.9684 H   0  0  0  0  0  0  0  0  0  0  0  0
    5.3828    1.3030   17.8128 C   0  0  0  0  0  0  0  0  0  0  0  0
    6.5437    0.6858   17.5558 N   0  0  0  0  0  0  0  0  0  0  0  0
    7.1661    0.0891   18.5797 C   0  0  0  0  0  0  0  0  0  0  0  0
    8.1119   -0.3966   18.3347 H   0  0  0  0  0  0  0  0  0  0  0  0
    6.6792    0.0580   19.8999 C   0  0  0  0  0  0  0  0  0  0  0  0
    7.3829   -0.7196   20.9915 C   0  0  0  0  0  0  0  0  0  0  0  0
    8.4672   -0.7498   20.8334 H   0  0  0  0  0  0  0  0  0  0  0  0
    7.2215   -0.2583   21.9745 H   0  0  0  0  0  0  0  0  0  0  0  0
    6.8777   -2.1625   21.0511 C   0  0  0  0  0  0  0  0  0  0  0  0
    5.7841   -2.1688   21.2221 H   0  0  0  0  0  0  0  0  0  0  0  0
    7.0251   -2.6233   20.0692 H   0  0  0  0  0  0  0  0  0  0  0  0
    7.6159   -2.9228   22.0617 N   0  0  0  0  0  0  0  0  0  0  0  0
    7.0152   -2.8300   23.4077 C   0  0  0  0  0  0  0  0  0  0  0  0
    6.7891   -1.7786   23.6207 H   0  0  0  0  0  0  0  0  0  0  0  0
    7.7725   -3.1724   24.1288 H   0  0  0  0  0  0  0  0  0  0  0  0
    5.7293   -3.6753   23.5822 C   0  0  0  0  0  0  0  0  0  0  0  0
    5.4323   -3.6659   24.6358 H   0  0  0  0  0  0  0  0  0  0  0  0
    4.9010   -3.2054   23.0169 H   0  0  0  0  0  0  0  0  0  0  0  0
    5.9510   -5.0599   23.1552 N   0  0  0  0  0  0  0  0  0  0  0  0
    5.1781   -6.0888   23.7140 C   0  0  0  0  0  0  0  0  0  0  0  0
    4.3340   -6.9044   22.9445 C   0  0  0  0  0  0  0  0  0  0  0  0
    4.2771   -6.7106   21.8782 H   0  0  0  0  0  0  0  0  0  0  0  0
    3.6148   -7.9409   23.5520 C   0  0  0  0  0  0  0  0  0  0  0  0
    2.9688   -8.5765   22.9445 H   0  0  0  0  0  0  0  0  0  0  0  0
    3.7512   -8.1876   24.9192 C   0  0  0  0  0  0  0  0  0  0  0  0
    3.2326   -9.0264   25.3802 H   0  0  0  0  0  0  0  0  0  0  0  0
    4.5898   -7.3750   25.6922 C   0  0  0  0  0  0  0  0  0  0  0  0
    4.7249   -7.5714   26.7567 H   0  0  0  0  0  0  0  0  0  0  0  0
    5.2906   -6.3280   25.0947 C   0  0  0  0  0  0  0  0  0  0  0  0
    5.9737   -5.6919   25.6463 H   0  0  0  0  0  0  0  0  0  0  0  0
    6.5291   -5.1835   21.8212 C   0  0  0  0  0  0  0  0  0  0  0  0
    5.8361   -4.8420   21.0261 H   0  0  0  0  0  0  0  0  0  0  0  0
    6.7561   -6.2392   21.6324 H   0  0  0  0  0  0  0  0  0  0  0  0
    7.8196   -4.3415   21.7393 C   0  0  0  0  0  0  0  0  0  0  0  0
    8.2529   -4.4304   20.7383 H   0  0  0  0  0  0  0  0  0  0  0  0
    8.5507   -4.7376   22.4592 H   0  0  0  0  0  0  0  0  0  0  0  0
    5.4459    0.6779   20.1372 C   0  0  0  0  0  0  0  0  0  0  0  0
    5.0124    0.6469   21.1371 H   0  0  0  0  0  0  0  0  0  0  0  0
    4.7941    1.3228   19.0817 C   0  0  0  0  0  0  0  0  0  0  0  0
    3.8569    1.8476   19.2293 H   0  0  0  0  0  0  0  0  0  0  0  0
  1  2  1  0
  2  3  2  0
  3  4  1  0
  4  5  1  0
  4  6  2  0
  6  7  1  0
  7  8  1  0
  7  9  1  0
  7 10  1  0
 10 11  1  0
 10 12  1  0
 10 13  1  0
 13 14  1  0
 14 15  1  0
 14 16  1  0
 14 17  1  0
 17 18  1  0
 17 19  1  0
 17 20  1  0
 20 21  1  0
 21 22  2  0
 22 23  1  0
 22 24  1  0
 24 25  1  0
 24 26  2  0
 26 27  1  0
 26 28  1  0
 28 29  1  0
 28 30  2  0
 30 31  1  0
 20 32  1  0
 32 33  1  0
 32 34  1  0
 32 35  1  0
 35 36  1  0
 35 37  1  0
  6 38  1  0
 38 39  1  0
 38 40  2  0
 40 41  1  0
 40  2  1  0
 35 13  1  0
 30 21  1  0
M  END
>  <cnnaffinity>  (1) 
-4.89017

>  <filename>  (1) 
[H]c1nc([H])c(C([H])([H])C([H])([H])N2C([H])([H])C([H])([H])N(c3c([H])c([H])c([H])c([H])c3[H])C([H])([H])C2([H])[H])c([H])c1[H]

$$$$
