
     RDKit          3D

 34 36  0  0  0  0  0  0  0  0999 V2000
    6.6425   -1.3458   21.6536 H   0  0  0  0  0  0  0  0  0  0  0  0
    7.2899   -0.7269   21.0251 C   0  0  0  0  0  0  0  0  0  0  0  0
    8.5791   -0.5376   21.3782 C   0  0  0  0  0  0  0  0  0  0  0  0
    9.3352   -1.1680   22.4695 C   0  0  0  0  0  0  0  0  0  0  0  0
    8.8274   -2.3197   23.1984 C   0  0  0  0  0  0  0  0  0  0  0  0
    8.2574   -3.5464   22.7536 C   0  0  0  0  0  0  0  0  0  0  0  0
    8.0286   -3.9533   21.3382 C   0  0  0  0  0  0  0  0  0  0  0  0
    7.0186   -3.6937   21.0009 H   0  0  0  0  0  0  0  0  0  0  0  0
    8.1673   -5.0281   21.1968 H   0  0  0  0  0  0  0  0  0  0  0  0
    8.7429   -3.3943   20.7337 H   0  0  0  0  0  0  0  0  0  0  0  0
    7.9830   -4.3238   23.7640 N   0  0  0  0  0  0  0  0  0  0  0  0
    8.3512   -3.6125   24.8996 O   0  0  0  0  0  0  0  0  0  0  0  0
    8.8546   -2.4265   24.5496 C   0  0  0  0  0  0  0  0  0  0  0  0
    9.3348   -1.4520   25.5598 C   0  0  0  0  0  0  0  0  0  0  0  0
   10.3938   -1.2609   25.3563 H   0  0  0  0  0  0  0  0  0  0  0  0
    8.8296   -0.4904   25.4098 H   0  0  0  0  0  0  0  0  0  0  0  0
    9.1812   -1.8175   26.5727 H   0  0  0  0  0  0  0  0  0  0  0  0
   10.4685   -0.6121   22.7196 N   0  0  0  0  0  0  0  0  0  0  0  0
   10.7082    0.4702   21.7562 C   0  0  0  0  0  0  0  0  0  0  0  0
   10.7840    1.4148   22.3135 H   0  0  0  0  0  0  0  0  0  0  0  0
   11.6790    0.3131   21.2684 H   0  0  0  0  0  0  0  0  0  0  0  0
    9.5084    0.4811   20.7667 C   0  0  0  0  0  0  0  0  0  0  0  0
    9.7373    0.1455   19.7523 H   0  0  0  0  0  0  0  0  0  0  0  0
    9.0234    1.4552   20.6716 H   0  0  0  0  0  0  0  0  0  0  0  0
    6.6180   -0.0443   19.9023 C   0  0  0  0  0  0  0  0  0  0  0  0
    7.1451    0.0405   18.5970 C   0  0  0  0  0  0  0  0  0  0  0  0
    8.0932   -0.4355   18.3530 H   0  0  0  0  0  0  0  0  0  0  0  0
    6.5556    0.6818   17.5773 N   0  0  0  0  0  0  0  0  0  0  0  0
    5.3954    1.3049   17.8253 C   0  0  0  0  0  0  0  0  0  0  0  0
    4.9371    1.8190   16.9793 H   0  0  0  0  0  0  0  0  0  0  0  0
    4.7838    1.3054   19.0839 C   0  0  0  0  0  0  0  0  0  0  0  0
    3.8608    1.8553   19.2280 H   0  0  0  0  0  0  0  0  0  0  0  0
    5.3993    0.6170   20.1298 C   0  0  0  0  0  0  0  0  0  0  0  0
    4.9779    0.6166   21.1345 H   0  0  0  0  0  0  0  0  0  0  0  0
  1  2  1  0
  2  3  2  3
  3  4  1  0
  4  5  1  0
  5  6  1  0
  6  7  1  0
  7  8  1  0
  7  9  1  0
  7 10  1  0
  6 11  2  0
 11 12  1  0
 12 13  1  0
 13 14  1  0
 14 15  1  0
 14 16  1  0
 14 17  1  0
  4 18  2  0
 18 19  1  0
 19 20  1  0
 19 21  1  0
 19 22  1  0
 22 23  1  0
 22 24  1  0
  2 25  1  0
 25 26  2  0
 26 27  1  0
 26 28  1  0
 28 29  2  0
 29 30  1  0
 29 31  1  0
 31 32  1  0
 31 33  2  0
 33 34  1  0
 22  3  1  0
 33 25  1  0
 13  5  2  0
M  END
>  <cnnaffinity>  (1) 
-5.51505

>  <filename>  (1) 
[H]C(=C1C(c2c(C([H])([H])[H])noc2C([H])([H])[H])=NC([H])([H])C1([H])[H])c1c([H])nc([H])c([H])c1[H]

$$$$
