
     RDKit          3D

 39 40  0  0  0  0  0  0  0  0999 V2000
    6.2323    2.7111   24.7927 C   0  0  0  0  0  0  0  0  0  0  0  0
    7.0752    2.4111   23.6710 O   0  0  0  0  0  0  0  0  0  0  0  0
    7.9105    1.3602   23.7766 C   0  0  0  0  0  0  0  0  0  0  0  0
    8.0058    0.6561   24.7567 O   0  0  0  0  0  0  0  0  0  0  0  0
    8.6949    1.2452   22.4446 C   0  0  0  0  0  0  0  0  0  0  0  0
    8.6128   -0.1937   21.6210 N   0  0  0  0  0  4  0  0  0  0  0  0
    7.2674   -0.7573   21.3558 C   0  0  0  0  0  0  0  0  0  0  0  0
    7.2932   -2.2796   21.2034 C   0  0  0  0  0  0  0  0  0  0  0  0
    6.4622   -2.6201   20.5814 H   0  0  0  0  0  0  0  0  0  0  0  0
    8.2190   -2.6234   20.7329 H   0  0  0  0  0  0  0  0  0  0  0  0
    7.2039   -2.7615   22.1792 H   0  0  0  0  0  0  0  0  0  0  0  0
    6.7165   -0.0355   20.1533 C   0  0  0  0  0  0  0  0  0  0  0  0
    5.5382    0.7071   20.2568 C   0  0  0  0  0  0  0  0  0  0  0  0
    5.0542    1.3604   19.1239 C   0  0  0  0  0  0  0  0  0  0  0  0
    5.7701    1.2425   17.9284 C   0  0  0  0  0  0  0  0  0  0  0  0
    6.8914    0.5166   17.8050 N   0  0  0  0  0  0  0  0  0  0  0  0
    7.3454   -0.1042   18.9022 C   0  0  0  0  0  0  0  0  0  0  0  0
    8.2359   -0.7177   18.7542 H   0  0  0  0  0  0  0  0  0  0  0  0
    5.4171    1.7356   17.0240 H   0  0  0  0  0  0  0  0  0  0  0  0
    4.1526    1.9619   19.1614 H   0  0  0  0  0  0  0  0  0  0  0  0
    5.0292    0.7678   21.2214 H   0  0  0  0  0  0  0  0  0  0  0  0
    6.6262   -0.4978   22.2058 H   0  0  0  0  0  0  0  0  0  0  0  0
    9.2347   -0.8348   22.1391 H   0  0  0  0  0  0  0  0  0  0  0  0
    9.0504    0.0288   20.7033 H   0  0  0  0  0  0  0  0  0  0  0  0
   10.1722    1.5277   22.5785 C   0  0  0  0  0  0  0  0  0  0  0  0
   10.7721    2.3717   21.6301 C   0  0  0  0  0  0  0  0  0  0  0  0
   12.1302    2.6959   21.7048 C   0  0  0  0  0  0  0  0  0  0  0  0
   12.9146    2.1235   22.7137 C   0  0  0  0  0  0  0  0  0  0  0  0
   12.3404    1.2464   23.6453 C   0  0  0  0  0  0  0  0  0  0  0  0
   10.9644    0.9861   23.6092 C   0  0  0  0  0  0  0  0  0  0  0  0
   10.4972    0.3785   24.3850 H   0  0  0  0  0  0  0  0  0  0  0  0
   12.9672    0.7769   24.4058 H   0  0  0  0  0  0  0  0  0  0  0  0
   13.9747    2.3624   22.7496 H   0  0  0  0  0  0  0  0  0  0  0  0
   12.5691    3.3836   20.9809 H   0  0  0  0  0  0  0  0  0  0  0  0
   10.1615    2.7602   20.8218 H   0  0  0  0  0  0  0  0  0  0  0  0
    8.2265    1.9747   21.7903 H   0  0  0  0  0  0  0  0  0  0  0  0
    5.6234    3.5610   24.4823 H   0  0  0  0  0  0  0  0  0  0  0  0
    5.5907    1.8560   25.0256 H   0  0  0  0  0  0  0  0  0  0  0  0
    6.8302    2.9735   25.6724 H   0  0  0  0  0  0  0  0  0  0  0  0
  1  2  1  0
  2  3  1  0
  3  4  2  0
  3  5  1  0
  5  6  1  0
  6  7  1  0
  7  8  1  0
  8  9  1  0
  8 10  1  0
  8 11  1  0
  7 12  1  0
 12 13  2  0
 13 14  1  0
 14 15  2  0
 15 16  1  0
 16 17  2  0
 17 18  1  0
 15 19  1  0
 14 20  1  0
 13 21  1  0
  7 22  1  0
  6 23  1  0
  6 24  1  0
  5 25  1  0
 25 26  2  0
 26 27  1  0
 27 28  2  0
 28 29  1  0
 29 30  2  0
 30 31  1  0
 29 32  1  0
 28 33  1  0
 27 34  1  0
 26 35  1  0
  5 36  1  0
  1 37  1  0
  1 38  1  0
  1 39  1  0
 17 12  1  0
 30 25  1  0
M  CHG  1   6   1
M  END
>  <cnnaffinity>  (1) 
-5.0045

>  <filename>  (1) 
[H]c1nc([H])c(C([H])(C([H])([H])[H])[N+]([H])([H])C([H])(C(=O)OC([H])([H])[H])c2c([H])c([H])c([H])c([H])c2[H])c([H])c1[H]

$$$$
