
     RDKit          3D

 28 30  0  0  0  0  0  0  0  0999 V2000
    5.5360   -3.0883   23.7916 F   0  0  0  0  0  0  0  0  0  0  0  0
    6.6290   -3.0594   24.5674 C   0  0  0  0  0  0  0  0  0  0  0  0
    6.5717   -3.6676   25.8230 C   0  0  0  0  0  0  0  0  0  0  0  0
    5.1105   -4.4188   26.3666 Cl  0  0  0  0  0  0  0  0  0  0  0  0
    7.7016   -3.6728   26.6410 C   0  0  0  0  0  0  0  0  0  0  0  0
    8.8784   -3.0696   26.1953 C   0  0  0  0  0  0  0  0  0  0  0  0
    8.9242   -2.4599   24.9473 C   0  0  0  0  0  0  0  0  0  0  0  0
    7.8029   -2.4356   24.1035 C   0  0  0  0  0  0  0  0  0  0  0  0
    7.8768   -1.7680   22.7918 C   0  0  0  0  0  0  0  0  0  0  0  0
    6.8613   -1.1796   22.0810 C   0  0  0  0  0  0  0  0  0  0  0  0
    7.3817   -0.6789   20.9334 N   0  0  0  0  0  0  0  0  0  0  0  0
    6.6736    0.0080   19.9130 C   0  0  0  0  0  0  0  0  0  0  0  0
    5.4475    0.6436   20.1726 C   0  0  0  0  0  0  0  0  0  0  0  0
    4.8182    1.3015   19.1118 C   0  0  0  0  0  0  0  0  0  0  0  0
    5.4086    1.2872   17.8433 C   0  0  0  0  0  0  0  0  0  0  0  0
    6.5716    0.6626   17.5905 N   0  0  0  0  0  0  0  0  0  0  0  0
    7.1875    0.0553   18.6073 C   0  0  0  0  0  0  0  0  0  0  0  0
    8.1306   -0.4289   18.3760 H   0  0  0  0  0  0  0  0  0  0  0  0
    4.9257    1.7790   16.9978 H   0  0  0  0  0  0  0  0  0  0  0  0
    3.8830    1.8346   19.2651 H   0  0  0  0  0  0  0  0  0  0  0  0
    5.0053    0.6465   21.1715 H   0  0  0  0  0  0  0  0  0  0  0  0
    8.7023   -0.9338   20.8356 N   0  0  0  0  0  0  0  0  0  0  0  0
    9.0025   -1.5681   21.9545 C   0  0  0  0  0  0  0  0  0  0  0  0
   10.0110   -1.9021   22.1364 H   0  0  0  0  0  0  0  0  0  0  0  0
    5.8200   -1.0860   22.3093 H   0  0  0  0  0  0  0  0  0  0  0  0
    9.8346   -1.9813   24.6024 H   0  0  0  0  0  0  0  0  0  0  0  0
    9.7570   -3.0825   26.8267 H   0  0  0  0  0  0  0  0  0  0  0  0
    7.6453   -4.1537   27.6095 H   0  0  0  0  0  0  0  0  0  0  0  0
  1  2  1  0
  2  3  2  0
  3  4  1  0
  3  5  1  0
  5  6  2  0
  6  7  1  0
  7  8  2  0
  8  9  1  0
  9 10  2  0
 10 11  1  0
 11 12  1  0
 12 13  2  0
 13 14  1  0
 14 15  2  0
 15 16  1  0
 16 17  2  0
 17 18  1  0
 15 19  1  0
 14 20  1  0
 13 21  1  0
 11 22  1  0
 22 23  2  0
 23 24  1  0
 10 25  1  0
  7 26  1  0
  6 27  1  0
  5 28  1  0
  8  2  1  0
 23  9  1  0
 17 12  1  0
M  END
>  <cnnaffinity>  (1) 
-5.55059

>  <filename>  (1) 
[H]c1nc([H])c(-n2nc([H])c(-c3c([H])c([H])c([H])c(Cl)c3F)c2[H])c([H])c1[H]

$$$$
