
     RDKit          3D

 40 43  0  0  0  0  0  0  0  0999 V2000
    7.6108    4.6097   23.1153 C   0  0  0  0  0  0  0  0  0  0  0  0
    7.6928    3.8040   24.1699 C   0  0  0  0  0  0  0  0  0  0  0  0
    8.6866    2.6649   24.3216 C   0  0  0  0  0  0  0  0  0  0  0  0
    8.8400    1.8470   23.1135 N   0  0  0  0  0  0  0  0  0  0  0  0
    7.8229    1.0046   22.8042 N   0  0  0  0  0  0  0  0  0  0  0  0
    8.2378    0.4078   21.7118 C   0  0  0  0  0  0  0  0  0  0  0  0
    7.4284   -0.6216   20.9820 C   0  0  0  0  0  0  0  0  0  0  0  0
    6.6555   -0.0292   19.8089 C   0  0  0  0  0  0  0  0  0  0  0  0
    5.4586    0.6658   20.0365 C   0  0  0  0  0  0  0  0  0  0  0  0
    4.8440    1.3294   18.9731 C   0  0  0  0  0  0  0  0  0  0  0  0
    5.4462    1.2746   17.7134 C   0  0  0  0  0  0  0  0  0  0  0  0
    6.5714    0.5887   17.4601 N   0  0  0  0  0  0  0  0  0  0  0  0
    7.1522   -0.0386   18.4922 C   0  0  0  0  0  0  0  0  0  0  0  0
    8.0728   -0.5780   18.2618 H   0  0  0  0  0  0  0  0  0  0  0  0
    5.0049    1.8073   16.8724 H   0  0  0  0  0  0  0  0  0  0  0  0
    3.9317    1.9016   19.1104 H   0  0  0  0  0  0  0  0  0  0  0  0
    5.0171    0.6966   21.0350 H   0  0  0  0  0  0  0  0  0  0  0  0
    8.1391   -1.3849   20.6488 H   0  0  0  0  0  0  0  0  0  0  0  0
    6.7453   -1.0792   21.7093 H   0  0  0  0  0  0  0  0  0  0  0  0
    9.4796    0.7680   21.2997 N   0  0  0  0  0  0  0  0  0  0  0  0
    9.8442    1.6594   22.2175 C   0  0  0  0  0  0  0  0  0  0  0  0
   11.1512    2.3070   22.3803 C   0  0  0  0  0  0  0  0  0  0  0  0
   11.3474    3.6584   22.5670 C   0  0  0  0  0  0  0  0  0  0  0  0
   12.6577    4.1631   22.8153 C   0  0  0  0  0  0  0  0  0  0  0  0
   13.7424    3.3233   22.8264 C   0  0  0  0  0  0  0  0  0  0  0  0
   13.5461    1.9182   22.6646 C   0  0  0  0  0  0  0  0  0  0  0  0
   14.4348    0.9352   22.6561 N   0  0  0  0  0  0  0  0  0  0  0  0
   13.7096   -0.1639   22.3765 C   0  0  0  0  0  0  0  0  0  0  0  0
   14.4252   -1.7048   22.1567 Cl  0  0  0  0  0  0  0  0  0  0  0  0
   12.3776    0.0870   22.2255 C   0  0  0  0  0  0  0  0  0  0  0  0
   12.2570    1.4506   22.4154 N   0  0  0  0  0  0  0  0  0  0  0  0
   11.5574   -0.5567   21.9596 H   0  0  0  0  0  0  0  0  0  0  0  0
   14.7586    3.6808   22.9069 H   0  0  0  0  0  0  0  0  0  0  0  0
   12.7855    5.2269   23.0112 H   0  0  0  0  0  0  0  0  0  0  0  0
   10.5150    4.3552   22.5295 H   0  0  0  0  0  0  0  0  0  0  0  0
    8.3476    1.9873   25.1120 H   0  0  0  0  0  0  0  0  0  0  0  0
    9.6670    3.0539   24.6180 H   0  0  0  0  0  0  0  0  0  0  0  0
    6.9998    3.9383   25.0026 H   0  0  0  0  0  0  0  0  0  0  0  0
    6.8886    5.4209   23.0728 H   0  0  0  0  0  0  0  0  0  0  0  0
    8.2517    4.5021   22.2405 H   0  0  0  0  0  0  0  0  0  0  0  0
  1  2  2  3
  2  3  1  0
  3  4  1  0
  4  5  1  0
  5  6  2  0
  6  7  1  0
  7  8  1  0
  8  9  2  0
  9 10  1  0
 10 11  2  0
 11 12  1  0
 12 13  2  0
 13 14  1  0
 11 15  1  0
 10 16  1  0
  9 17  1  0
  7 18  1  0
  7 19  1  0
  6 20  1  0
 20 21  2  0
 21 22  1  0
 22 23  2  0
 23 24  1  0
 24 25  2  0
 25 26  1  0
 26 27  2  0
 27 28  1  0
 28 29  1  0
 28 30  2  0
 30 31  1  0
 30 32  1  0
 25 33  1  0
 24 34  1  0
 23 35  1  0
  3 36  1  0
  3 37  1  0
  2 38  1  0
  1 39  1  0
  1 40  1  0
 21  4  1  0
 31 22  1  0
 13  8  1  0
 31 26  1  0
M  END
>  <cnnaffinity>  (1) 
-6.63821

>  <filename>  (1) 
[H]C([H])=C([H])C([H])([H])n1nc(C([H])([H])c2c([H])nc([H])c([H])c2[H])nc1-c1c([H])c([H])c([H])c2nc(Cl)c([H])n12

$$$$
