
     RDKit          3D

 40 43  0  0  0  0  0  0  0  0999 V2000
    4.9720    1.7289   16.8064 H   0  0  0  0  0  0  0  0  0  0  0  0
    5.4171    1.3107   17.7059 C   0  0  0  0  0  0  0  0  0  0  0  0
    6.5846    0.6685   17.5389 N   0  0  0  0  0  0  0  0  0  0  0  0
    7.1587    0.1388   18.6265 C   0  0  0  0  0  0  0  0  0  0  0  0
    8.1022   -0.3835   18.4766 H   0  0  0  0  0  0  0  0  0  0  0  0
    6.6079    0.2271   19.9203 C   0  0  0  0  0  0  0  0  0  0  0  0
    7.2207   -0.4270   21.0497 N   0  0  0  0  0  0  0  0  0  0  0  0
    7.3521   -1.8086   21.0353 C   0  0  0  0  0  0  0  0  0  0  0  0
    6.9259   -2.2992   20.1644 H   0  0  0  0  0  0  0  0  0  0  0  0
    8.0112   -2.4970   22.0126 C   0  0  0  0  0  0  0  0  0  0  0  0
    8.1687   -4.0129   21.9515 C   0  0  0  0  0  0  0  0  0  0  0  0
    9.0805   -4.2900   22.4903 H   0  0  0  0  0  0  0  0  0  0  0  0
    8.3334   -4.3203   20.9097 H   0  0  0  0  0  0  0  0  0  0  0  0
    7.0180   -4.8538   22.5062 C   0  0  0  0  0  0  0  0  0  0  0  0
    5.9793   -5.2893   21.6240 C   0  0  0  0  0  0  0  0  0  0  0  0
    6.0418   -5.0443   20.5648 H   0  0  0  0  0  0  0  0  0  0  0  0
    4.9215   -6.0357   22.0816 C   0  0  0  0  0  0  0  0  0  0  0  0
    4.1396   -6.3788   21.4157 H   0  0  0  0  0  0  0  0  0  0  0  0
    4.8094   -6.4044   23.4518 C   0  0  0  0  0  0  0  0  0  0  0  0
    3.7047   -7.1666   23.9553 C   0  0  0  0  0  0  0  0  0  0  0  0
    2.9115   -7.4675   23.2712 H   0  0  0  0  0  0  0  0  0  0  0  0
    3.6375   -7.5045   25.2898 C   0  0  0  0  0  0  0  0  0  0  0  0
    2.8032   -8.0856   25.6786 H   0  0  0  0  0  0  0  0  0  0  0  0
    4.6726   -7.0936   26.1827 C   0  0  0  0  0  0  0  0  0  0  0  0
    4.6031   -7.3705   27.2349 H   0  0  0  0  0  0  0  0  0  0  0  0
    5.7455   -6.3671   25.7261 C   0  0  0  0  0  0  0  0  0  0  0  0
    6.5379   -6.0619   26.4091 H   0  0  0  0  0  0  0  0  0  0  0  0
    5.8488   -5.9919   24.3486 C   0  0  0  0  0  0  0  0  0  0  0  0
    6.9491   -5.2347   23.8328 C   0  0  0  0  0  0  0  0  0  0  0  0
    7.7556   -4.9910   24.5248 H   0  0  0  0  0  0  0  0  0  0  0  0
    8.5920   -1.7339   23.0795 C   0  0  0  0  0  0  0  0  0  0  0  0
    9.1900   -2.2429   23.8358 H   0  0  0  0  0  0  0  0  0  0  0  0
    8.4223   -0.3834   23.1521 C   0  0  0  0  0  0  0  0  0  0  0  0
    8.8083    0.2413   23.9419 H   0  0  0  0  0  0  0  0  0  0  0  0
    7.6542    0.3574   22.1702 C   0  0  0  0  0  0  0  0  0  0  0  0
    7.4140    1.5509   22.2669 O   0  0  0  0  0  0  0  0  0  0  0  0
    5.4139    0.9372   20.0861 C   0  0  0  0  0  0  0  0  0  0  0  0
    5.0098    1.0698   21.0886 H   0  0  0  0  0  0  0  0  0  0  0  0
    4.7881    1.4583   18.9483 C   0  0  0  0  0  0  0  0  0  0  0  0
    3.8495    2.0012   19.0205 H   0  0  0  0  0  0  0  0  0  0  0  0
  1  2  1  0
  2  3  2  0
  3  4  1  0
  4  5  1  0
  4  6  2  0
  6  7  1  0
  7  8  1  0
  8  9  1  0
  8 10  2  0
 10 11  1  0
 11 12  1  0
 11 13  1  0
 11 14  1  0
 14 15  2  0
 15 16  1  0
 15 17  1  0
 17 18  1  0
 17 19  2  0
 19 20  1  0
 20 21  1  0
 20 22  2  0
 22 23  1  0
 22 24  1  0
 24 25  1  0
 24 26  2  0
 26 27  1  0
 26 28  1  0
 28 29  2  0
 29 30  1  0
 10 31  1  0
 31 32  1  0
 31 33  2  0
 33 34  1  0
 33 35  1  0
 35 36  2  0
  6 37  1  0
 37 38  1  0
 37 39  2  0
 39 40  1  0
 39  2  1  0
 35  7  1  0
 29 14  1  0
 28 19  1  0
M  END
>  <cnnaffinity>  (1) 
-5.16227

>  <filename>  (1) 
[H]c1nc([H])c(-n2c([H])c(C([H])([H])c3c([H])c([H])c4c([H])c([H])c([H])c([H])c4c3[H])c([H])c([H])c2=O)c([H])c1[H]

$$$$
