
     RDKit          3D

 41 44  0  0  0  0  0  0  0  0999 V2000
   11.7603    3.3199   22.2001 C   0  0  0  0  0  0  0  0  0  0  0  0
   11.5053    1.8069   22.1449 C   0  0  0  0  0  0  0  0  0  0  0  0
   10.0762    1.4413   22.1911 N   0  0  0  0  0  0  0  0  0  0  0  0
    9.6342    0.4852   21.3373 N   0  0  0  0  0  0  0  0  0  0  0  0
    8.3989    0.2563   21.7306 C   0  0  0  0  0  0  0  0  0  0  0  0
    7.4676   -0.6712   21.0002 C   0  0  0  0  0  0  0  0  0  0  0  0
    6.6798   -0.0096   19.8614 C   0  0  0  0  0  0  0  0  0  0  0  0
    5.4635    0.6434   20.1167 C   0  0  0  0  0  0  0  0  0  0  0  0
    4.8090    1.3040   19.0748 C   0  0  0  0  0  0  0  0  0  0  0  0
    5.3934    1.2947   17.8074 C   0  0  0  0  0  0  0  0  0  0  0  0
    6.5424    0.6622   17.5275 N   0  0  0  0  0  0  0  0  0  0  0  0
    7.1601    0.0349   18.5364 C   0  0  0  0  0  0  0  0  0  0  0  0
    8.0978   -0.4574   18.2719 H   0  0  0  0  0  0  0  0  0  0  0  0
    4.9268    1.8311   16.9843 H   0  0  0  0  0  0  0  0  0  0  0  0
    3.8790    1.8400   19.2328 H   0  0  0  0  0  0  0  0  0  0  0  0
    5.0311    0.6430   21.1197 H   0  0  0  0  0  0  0  0  0  0  0  0
    8.0731   -1.5054   20.6293 H   0  0  0  0  0  0  0  0  0  0  0  0
    6.7908   -1.0656   21.7667 H   0  0  0  0  0  0  0  0  0  0  0  0
    8.0230    0.9650   22.8246 N   0  0  0  0  0  0  0  0  0  0  0  0
    9.0561    1.7635   23.0373 C   0  0  0  0  0  0  0  0  0  0  0  0
    9.0529    2.8547   24.0422 C   0  0  0  0  0  0  0  0  0  0  0  0
    8.9347    2.4546   25.4011 C   0  0  0  0  0  0  0  0  0  0  0  0
    8.8979    3.3103   26.4349 N   0  0  0  0  0  0  0  0  0  0  0  0
    8.9738    4.5876   26.0346 C   0  0  0  0  0  0  0  0  0  0  0  0
    8.9997    5.6770   26.8425 N   0  0  0  0  0  0  0  0  0  0  0  0
    9.0806    6.8193   26.0689 C   0  0  0  0  0  0  0  0  0  0  0  0
    9.1181    6.4779   24.7460 C   0  0  0  0  0  0  0  0  0  0  0  0
    9.0536    5.0444   24.6838 C   0  0  0  0  0  0  0  0  0  0  0  0
    9.0880    4.1567   23.6622 N   0  0  0  0  0  0  0  0  0  0  0  0
    9.1689    7.1655   23.9094 H   0  0  0  0  0  0  0  0  0  0  0  0
    9.1002    7.8075   26.5285 H   0  0  0  0  0  0  0  0  0  0  0  0
    8.9131    5.5814   27.8356 H   0  0  0  0  0  0  0  0  0  0  0  0
    8.8865    1.3960   25.6363 H   0  0  0  0  0  0  0  0  0  0  0  0
   12.3100    1.0869   23.2490 C   0  0  0  0  0  0  0  0  0  0  0  0
   11.9211    1.5199   24.4699 F   0  0  0  0  0  0  0  0  0  0  0  0
   12.2024   -0.2424   23.2326 F   0  0  0  0  0  0  0  0  0  0  0  0
   13.6166    1.3941   23.1163 F   0  0  0  0  0  0  0  0  0  0  0  0
   11.8567    1.3877   21.1974 H   0  0  0  0  0  0  0  0  0  0  0  0
   12.6016    3.6136   21.5651 H   0  0  0  0  0  0  0  0  0  0  0  0
   11.9260    3.6436   23.2343 H   0  0  0  0  0  0  0  0  0  0  0  0
   10.8697    3.8567   21.8973 H   0  0  0  0  0  0  0  0  0  0  0  0
  1  2  1  0
  2  3  1  0
  3  4  1  0
  4  5  2  0
  5  6  1  0
  6  7  1  0
  7  8  2  0
  8  9  1  0
  9 10  2  0
 10 11  1  0
 11 12  2  0
 12 13  1  0
 10 14  1  0
  9 15  1  0
  8 16  1  0
  6 17  1  0
  6 18  1  0
  5 19  1  0
 19 20  2  0
 20 21  1  0
 21 22  2  0
 22 23  1  0
 23 24  2  0
 24 25  1  0
 25 26  1  0
 26 27  2  0
 27 28  1  0
 28 29  2  0
 27 30  1  0
 26 31  1  0
 25 32  1  0
 22 33  1  0
  2 34  1  0
 34 35  1  0
 34 36  1  0
 34 37  1  0
  2 38  1  0
  1 39  1  0
  1 40  1  0
  1 41  1  0
 20  3  1  0
 29 21  1  0
 12  7  1  0
 28 24  1  0
M  END
>  <cnnaffinity>  (1) 
-6.1753

>  <filename>  (1) 
[H]c1nc2c(nc1-c1nc(C([H])([H])c3c([H])nc([H])c([H])c3[H])nn1C([H])(C([H])([H])[H])C(F)(F)F)c([H])c([H])n2[H]

$$$$
