
     RDKit          3D

 41 43  0  0  0  0  0  0  0  0999 V2000
    8.5906    6.4914   26.9664 C   0  0  0  0  0  0  0  0  0  0  0  0
    8.9645    6.8837   25.6771 C   0  0  0  0  0  0  0  0  0  0  0  0
    8.8818    5.9391   24.6569 C   0  0  0  0  0  0  0  0  0  0  0  0
    8.4138    4.6339   24.9518 C   0  0  0  0  0  0  0  0  0  0  0  0
    8.3557    3.6433   23.9833 N   0  0  0  0  0  0  0  0  0  0  0  0
    9.1510    3.7031   22.7510 C   0  0  0  0  0  0  0  0  0  0  0  0
    9.4889    2.3083   22.2143 C   0  0  0  0  0  0  0  0  0  0  0  0
    8.2582    1.4467   22.0101 N   0  0  0  0  0  4  0  0  0  0  0  0
    8.6197    0.0903   21.4771 C   0  0  0  0  0  0  0  0  0  0  0  0
    7.4093   -0.7149   20.9860 C   0  0  0  0  0  0  0  0  0  0  0  0
    6.6430   -0.0094   19.8919 C   0  0  0  0  0  0  0  0  0  0  0  0
    5.4357    0.6518   20.1454 C   0  0  0  0  0  0  0  0  0  0  0  0
    4.7984    1.3192   19.0957 C   0  0  0  0  0  0  0  0  0  0  0  0
    5.3934    1.3015   17.8292 C   0  0  0  0  0  0  0  0  0  0  0  0
    6.5574    0.6917   17.5668 N   0  0  0  0  0  0  0  0  0  0  0  0
    7.1601    0.0670   18.5860 C   0  0  0  0  0  0  0  0  0  0  0  0
    8.1106   -0.4158   18.3637 H   0  0  0  0  0  0  0  0  0  0  0  0
    4.9147    1.7923   16.9844 H   0  0  0  0  0  0  0  0  0  0  0  0
    3.8686    1.8501   19.2473 H   0  0  0  0  0  0  0  0  0  0  0  0
    5.0189    0.6401   21.1586 H   0  0  0  0  0  0  0  0  0  0  0  0
    6.7488   -0.9292   21.8360 H   0  0  0  0  0  0  0  0  0  0  0  0
    7.7873   -1.6806   20.6251 H   0  0  0  0  0  0  0  0  0  0  0  0
    9.3221    0.2209   20.6453 H   0  0  0  0  0  0  0  0  0  0  0  0
    9.1483   -0.4707   22.2617 H   0  0  0  0  0  0  0  0  0  0  0  0
    7.5155    1.3870   23.3478 C   0  0  0  0  0  0  0  0  0  0  0  0
    7.1680    2.7787   23.8740 C   0  0  0  0  0  0  0  0  0  0  0  0
    6.4107    3.2040   23.1903 H   0  0  0  0  0  0  0  0  0  0  0  0
    6.7053    2.6705   24.8555 H   0  0  0  0  0  0  0  0  0  0  0  0
    8.1540    0.8771   24.0741 H   0  0  0  0  0  0  0  0  0  0  0  0
    6.6081    0.7951   23.2288 H   0  0  0  0  0  0  0  0  0  0  0  0
    7.6286    1.8872   21.2870 H   0  0  0  0  0  0  0  0  0  0  0  0
   10.1449    1.8001   22.9287 H   0  0  0  0  0  0  0  0  0  0  0  0
   10.0384    2.3936   21.2747 H   0  0  0  0  0  0  0  0  0  0  0  0
    8.6394    4.2423   21.9372 H   0  0  0  0  0  0  0  0  0  0  0  0
   10.1000    4.2117   22.9370 H   0  0  0  0  0  0  0  0  0  0  0  0
    8.0092    4.2792   26.1804 N   0  0  0  0  0  0  0  0  0  0  0  0
    8.1336    5.1876   27.1505 C   0  0  0  0  0  0  0  0  0  0  0  0
    7.8273    4.8519   28.1384 H   0  0  0  0  0  0  0  0  0  0  0  0
    9.1325    6.1667   23.6328 H   0  0  0  0  0  0  0  0  0  0  0  0
    9.3152    7.8983   25.4715 H   0  0  0  0  0  0  0  0  0  0  0  0
    8.6256    7.1762   27.8045 H   0  0  0  0  0  0  0  0  0  0  0  0
  1  2  2  0
  2  3  1  0
  3  4  2  0
  4  5  1  0
  5  6  1  0
  6  7  1  0
  7  8  1  0
  8  9  1  0
  9 10  1  0
 10 11  1  0
 11 12  2  0
 12 13  1  0
 13 14  2  0
 14 15  1  0
 15 16  2  0
 16 17  1  0
 14 18  1  0
 13 19  1  0
 12 20  1  0
 10 21  1  0
 10 22  1  0
  9 23  1  0
  9 24  1  0
  8 25  1  0
 25 26  1  0
 26 27  1  0
 26 28  1  0
 25 29  1  0
 25 30  1  0
  8 31  1  0
  7 32  1  0
  7 33  1  0
  6 34  1  0
  6 35  1  0
  4 36  1  0
 36 37  2  0
 37 38  1  0
  3 39  1  0
  2 40  1  0
  1 41  1  0
 37  1  1  0
 26  5  1  0
 16 11  1  0
M  CHG  1   8   1
M  END
>  <cnnaffinity>  (1) 
-4.30851

>  <filename>  (1) 
[H]c1nc(N2C([H])([H])C([H])([H])[N+]([H])(C([H])([H])C([H])([H])c3c([H])nc([H])c([H])c3[H])C([H])([H])C2([H])[H])c([H])c([H])c1[H]

$$$$
