
     RDKit          3D

 36 39  0  0  0  0  0  0  0  0999 V2000
   11.7471   -1.1474   21.1221 F   0  0  0  0  0  0  0  0  0  0  0  0
   11.3519   -1.7591   22.2932 C   0  0  0  0  0  0  0  0  0  0  0  0
   10.0036   -2.4433   22.1457 C   0  0  0  0  0  0  0  0  0  0  0  0
    8.8419   -1.5683   22.0808 N   0  0  0  0  0  0  0  0  0  0  0  0
    8.5435   -1.0470   20.8715 N   0  0  0  0  0  0  0  0  0  0  0  0
    7.3306   -0.5629   21.0372 C   0  0  0  0  0  0  0  0  0  0  0  0
    6.5957    0.0675   19.9453 C   0  0  0  0  0  0  0  0  0  0  0  0
    5.3614    0.7029   20.1343 C   0  0  0  0  0  0  0  0  0  0  0  0
    4.7779    1.3282   19.0343 C   0  0  0  0  0  0  0  0  0  0  0  0
    5.4366    1.2803   17.7992 C   0  0  0  0  0  0  0  0  0  0  0  0
    6.5933    0.6307   17.6016 N   0  0  0  0  0  0  0  0  0  0  0  0
    7.1552    0.0392   18.6591 C   0  0  0  0  0  0  0  0  0  0  0  0
    8.0909   -0.4898   18.4827 H   0  0  0  0  0  0  0  0  0  0  0  0
    5.0232    1.7896   16.9313 H   0  0  0  0  0  0  0  0  0  0  0  0
    3.8460    1.8738   19.1238 H   0  0  0  0  0  0  0  0  0  0  0  0
    4.8859    0.7072   21.1181 H   0  0  0  0  0  0  0  0  0  0  0  0
    6.8233   -0.7497   22.2756 N   0  0  0  0  0  0  0  0  0  0  0  0
    7.7906   -1.3774   22.9236 C   0  0  0  0  0  0  0  0  0  0  0  0
    7.7963   -1.8556   24.3322 C   0  0  0  0  0  0  0  0  0  0  0  0
    8.8973   -1.6338   25.1666 C   0  0  0  0  0  0  0  0  0  0  0  0
    8.8732   -1.9619   26.6346 C   0  0  0  0  0  0  0  0  0  0  0  0
    7.7092   -2.5203   27.1022 C   0  0  0  0  0  0  0  0  0  0  0  0
    7.9681   -2.4666   27.3330 F   0  0  0  0  0  0  0  0  0  0  0  0
    6.5198   -2.8046   26.2037 C   0  0  0  0  0  0  0  0  0  0  0  0
    6.6225   -2.5117   24.8554 C   0  0  0  0  0  0  0  0  0  0  0  0
    5.3750   -2.9423   24.2663 C   0  0  0  0  0  0  0  0  0  0  0  0
    4.6109   -3.3617   25.2902 C   0  0  0  0  0  0  0  0  0  0  0  0
    5.2834   -3.3055   26.4722 O   0  0  0  0  0  0  0  0  0  0  0  0
    3.5776   -3.6784   25.3659 H   0  0  0  0  0  0  0  0  0  0  0  0
    5.1473   -2.8791   23.2086 H   0  0  0  0  0  0  0  0  0  0  0  0
    9.8739   -1.6180   27.0944 H   0  0  0  0  0  0  0  0  0  0  0  0
    9.8111   -1.1658   24.8254 H   0  0  0  0  0  0  0  0  0  0  0  0
    9.8688   -3.1406   22.9779 H   0  0  0  0  0  0  0  0  0  0  0  0
   10.0111   -2.9847   21.1965 H   0  0  0  0  0  0  0  0  0  0  0  0
   11.3478   -1.0046   23.0872 H   0  0  0  0  0  0  0  0  0  0  0  0
   12.0888   -2.5321   22.5401 H   0  0  0  0  0  0  0  0  0  0  0  0
  1  2  1  0
  2  3  1  0
  3  4  1  0
  4  5  1  0
  5  6  2  0
  6  7  1  0
  7  8  2  0
  8  9  1  0
  9 10  2  0
 10 11  1  0
 11 12  2  0
 12 13  1  0
 10 14  1  0
  9 15  1  0
  8 16  1  0
  6 17  1  0
 17 18  2  0
 18 19  1  0
 19 20  2  0
 20 21  1  0
 21 22  2  0
 22 23  1  0
 22 24  1  0
 24 25  2  0
 25 26  1  0
 26 27  2  0
 27 28  1  0
 27 29  1  0
 26 30  1  0
 21 31  1  0
 20 32  1  0
  3 33  1  0
  3 34  1  0
  2 35  1  0
  2 36  1  0
 18  4  1  0
 25 19  1  0
 12  7  1  0
 28 24  1  0
M  END
>  <cnnaffinity>  (1) 
-5.86575

>  <filename>  (1) 
[H]c1nc([H])c(-c2nc(-c3c([H])c([H])c(F)c4oc([H])c([H])c34)n(C([H])([H])C([H])([H])F)n2)c([H])c1[H]

$$$$
