
     RDKit          3D

 32 33  0  0  0  0  0  0  0  0999 V2000
    8.2724   -3.4649   23.8686 C   0  0  0  0  0  0  0  0  0  0  0  0
    8.1668   -2.5042   22.8237 O   0  0  0  0  0  0  0  0  0  0  0  0
    7.9914   -1.1745   23.2896 C   0  0  0  0  0  0  0  0  0  0  0  0
    7.3612   -0.2035   22.2483 C   0  0  0  0  0  0  0  0  0  0  0  0
    6.9140    0.8583   22.6394 O   0  0  0  0  0  0  0  0  0  0  0  0
    7.3644   -0.6182   20.9424 N   0  0  0  0  0  0  0  0  0  0  0  0
    6.6794    0.0128   19.8670 C   0  0  0  0  0  0  0  0  0  0  0  0
    5.4576    0.6600   20.1091 C   0  0  0  0  0  0  0  0  0  0  0  0
    4.8173    1.2962   19.0435 C   0  0  0  0  0  0  0  0  0  0  0  0
    5.4161    1.2896   17.7826 C   0  0  0  0  0  0  0  0  0  0  0  0
    6.5704    0.6496   17.5248 N   0  0  0  0  0  0  0  0  0  0  0  0
    7.1788    0.0230   18.5413 C   0  0  0  0  0  0  0  0  0  0  0  0
    8.1279   -0.4620   18.3024 H   0  0  0  0  0  0  0  0  0  0  0  0
    4.9555    1.8190   16.9531 H   0  0  0  0  0  0  0  0  0  0  0  0
    3.8852    1.8252   19.2037 H   0  0  0  0  0  0  0  0  0  0  0  0
    5.0674    0.6827   21.1229 H   0  0  0  0  0  0  0  0  0  0  0  0
    7.7815   -1.5299   20.8267 H   0  0  0  0  0  0  0  0  0  0  0  0
    9.2950   -0.5762   23.8160 C   0  0  0  0  0  0  0  0  0  0  0  0
    9.2763   -0.0270   25.0992 C   0  0  0  0  0  0  0  0  0  0  0  0
   10.4046    0.5577   25.6619 C   0  0  0  0  0  0  0  0  0  0  0  0
   11.5872    0.6210   24.9274 C   0  0  0  0  0  0  0  0  0  0  0  0
   11.6422    0.0885   23.6381 C   0  0  0  0  0  0  0  0  0  0  0  0
   10.4974   -0.4985   23.0907 C   0  0  0  0  0  0  0  0  0  0  0  0
   10.6095   -1.0933   21.4629 Cl  0  0  0  0  0  0  0  0  0  0  0  0
   12.5574    0.1357   23.0565 H   0  0  0  0  0  0  0  0  0  0  0  0
   12.4606    1.1044   25.3450 H   0  0  0  0  0  0  0  0  0  0  0  0
   10.3441    0.9628   26.6589 H   0  0  0  0  0  0  0  0  0  0  0  0
    8.3480   -0.0643   25.6599 H   0  0  0  0  0  0  0  0  0  0  0  0
    7.2391   -1.1488   24.1000 H   0  0  0  0  0  0  0  0  0  0  0  0
    8.5564   -4.4106   23.3997 H   0  0  0  0  0  0  0  0  0  0  0  0
    9.0395   -3.1951   24.6134 H   0  0  0  0  0  0  0  0  0  0  0  0
    7.3023   -3.6000   24.3735 H   0  0  0  0  0  0  0  0  0  0  0  0
  1  2  1  0
  2  3  1  0
  3  4  1  0
  4  5  2  0
  4  6  1  0
  6  7  1  0
  7  8  2  0
  8  9  1  0
  9 10  2  0
 10 11  1  0
 11 12  2  0
 12 13  1  0
 10 14  1  0
  9 15  1  0
  8 16  1  0
  6 17  1  0
  3 18  1  0
 18 19  2  0
 19 20  1  0
 20 21  2  0
 21 22  1  0
 22 23  2  0
 23 24  1  0
 22 25  1  0
 21 26  1  0
 20 27  1  0
 19 28  1  0
  3 29  1  0
  1 30  1  0
  1 31  1  0
  1 32  1  0
 12  7  1  0
 23 18  1  0
M  END
>  <cnnaffinity>  (1) 
-4.98479

>  <filename>  (1) 
[H]c1nc([H])c(N([H])C(=O)C([H])(OC([H])([H])[H])c2c([H])c([H])c([H])c([H])c2Cl)c([H])c1[H]

$$$$
