
     RDKit          3D

 37 38  0  0  0  0  0  0  0  0999 V2000
    5.0011    1.7478   16.9791 H   0  0  0  0  0  0  0  0  0  0  0  0
    5.4504    1.2815   17.8577 C   0  0  0  0  0  0  0  0  0  0  0  0
    6.6194    0.6440   17.6787 N   0  0  0  0  0  0  0  0  0  0  0  0
    7.1745    0.0545   18.7437 C   0  0  0  0  0  0  0  0  0  0  0  0
    8.1263   -0.4501   18.5592 H   0  0  0  0  0  0  0  0  0  0  0  0
    6.6059    0.0707   20.0203 C   0  0  0  0  0  0  0  0  0  0  0  0
    7.2832   -0.6232   21.1315 C   0  0  0  0  0  0  0  0  0  0  0  0
    8.1048   -2.0315   20.9993 S   0  0  0  0  0  0  0  0  0  0  0  0
    7.1753   -0.0633   22.3737 N   0  0  0  0  0  0  0  0  0  0  0  0
    7.5394   -0.6557   23.1035 H   0  0  0  0  0  0  0  0  0  0  0  0
    7.4248    1.2894   22.6185 C   0  0  0  0  0  0  0  0  0  0  0  0
    7.7343    2.0691   21.7429 O   0  0  0  0  0  0  0  0  0  0  0  0
    7.2496    1.6336   23.9224 N   0  0  0  0  0  0  0  0  0  0  0  0
    6.9729    0.7626   25.0614 C   0  0  0  0  0  0  0  0  0  0  0  0
    6.0110    0.2494   24.9369 H   0  0  0  0  0  0  0  0  0  0  0  0
    7.7479   -0.0101   25.1710 H   0  0  0  0  0  0  0  0  0  0  0  0
    6.9711    1.7194   26.2551 C   0  0  0  0  0  0  0  0  0  0  0  0
    6.2452    1.4163   27.0140 H   0  0  0  0  0  0  0  0  0  0  0  0
    7.9639    1.7278   26.7114 H   0  0  0  0  0  0  0  0  0  0  0  0
    6.6809    3.1219   25.6960 C   0  0  1  0  0  0  0  0  0  0  0  0
    5.5830    3.2353   25.5834 H   0  0  0  0  0  0  0  0  0  0  0  0
    7.2403    4.2040   26.5172 N   0  0  0  0  0  0  0  0  0  0  0  0
    7.0238    5.5260   25.9375 C   0  0  0  0  0  0  0  0  0  0  0  0
    7.4884    6.2884   26.5736 H   0  0  0  0  0  0  0  0  0  0  0  0
    5.9522    5.7796   25.8216 H   0  0  0  0  0  0  0  0  0  0  0  0
    7.4997    5.6074   24.9564 H   0  0  0  0  0  0  0  0  0  0  0  0
    6.7695    4.1750   27.8985 C   0  0  0  0  0  0  0  0  0  0  0  0
    7.2337    4.9938   28.4607 H   0  0  0  0  0  0  0  0  0  0  0  0
    5.6697    4.2762   27.9891 H   0  0  0  0  0  0  0  0  0  0  0  0
    7.0692    3.2484   28.3963 H   0  0  0  0  0  0  0  0  0  0  0  0
    7.2826    3.0496   24.2835 C   0  0  0  0  0  0  0  0  0  0  0  0
    8.3071    3.4396   24.2649 H   0  0  0  0  0  0  0  0  0  0  0  0
    6.7027    3.6402   23.5697 H   0  0  0  0  0  0  0  0  0  0  0  0
    5.3712    0.7176   20.1873 C   0  0  0  0  0  0  0  0  0  0  0  0
    4.8993    0.7450   21.1698 H   0  0  0  0  0  0  0  0  0  0  0  0
    4.7875    1.3320   19.0860 C   0  0  0  0  0  0  0  0  0  0  0  0
    3.8414    1.8501   19.1802 H   0  0  0  0  0  0  0  0  0  0  0  0
  1  2  1  0
  2  3  2  0
  3  4  1  0
  4  5  1  0
  4  6  2  0
  6  7  1  0
  7  8  2  0
  7  9  1  0
  9 10  1  0
  9 11  1  0
 11 12  2  0
 11 13  1  0
 13 14  1  0
 14 15  1  0
 14 16  1  0
 14 17  1  0
 17 18  1  0
 17 19  1  0
 17 20  1  0
 20 21  1  6
 20 22  1  0
 22 23  1  0
 23 24  1  0
 23 25  1  0
 23 26  1  0
 22 27  1  0
 27 28  1  0
 27 29  1  0
 27 30  1  0
 20 31  1  0
 31 32  1  0
 31 33  1  0
  6 34  1  0
 34 35  1  0
 34 36  2  0
 36 37  1  0
 36  2  1  0
 31 13  1  0
M  END
>  <cnnaffinity>  (1) 
-4.67409

>  <filename>  (1) 
[H]c1nc([H])c(C(=S)N([H])C(=O)N2C([H])([H])C([H])([H])[C@@]([H])(N(C([H])([H])[H])C([H])([H])[H])C2([H])[H])c([H])c1[H]

$$$$
