
     RDKit          3D

 42 45  0  0  0  0  0  0  0  0999 V2000
   12.3041    0.9036   23.0020 C   0  0  0  0  0  0  0  0  0  0  0  0
   11.1787    1.8292   22.5221 C   0  0  0  0  0  0  0  0  0  0  0  0
   11.5001    2.4374   21.1561 C   0  0  0  0  0  0  0  0  0  0  0  0
   12.2224    3.2528   21.2754 H   0  0  0  0  0  0  0  0  0  0  0  0
   10.5850    2.8121   20.6994 H   0  0  0  0  0  0  0  0  0  0  0  0
   11.9167    1.6848   20.4827 H   0  0  0  0  0  0  0  0  0  0  0  0
    9.8491    1.1714   22.5013 N   0  0  0  0  0  0  0  0  0  0  0  0
    9.5054    0.2958   21.5253 N   0  0  0  0  0  0  0  0  0  0  0  0
    8.2680   -0.0367   21.8434 C   0  0  0  0  0  0  0  0  0  0  0  0
    7.4268   -0.8806   20.9307 C   0  0  0  0  0  0  0  0  0  0  0  0
    6.7174   -0.0914   19.8256 C   0  0  0  0  0  0  0  0  0  0  0  0
    5.5537    0.6473   20.0941 C   0  0  0  0  0  0  0  0  0  0  0  0
    4.9280    1.3304   19.0458 C   0  0  0  0  0  0  0  0  0  0  0  0
    5.4969    1.2756   17.7712 C   0  0  0  0  0  0  0  0  0  0  0  0
    6.6297    0.6101   17.4997 N   0  0  0  0  0  0  0  0  0  0  0  0
    7.2159   -0.0407   18.5129 C   0  0  0  0  0  0  0  0  0  0  0  0
    8.1530   -0.5463   18.2756 H   0  0  0  0  0  0  0  0  0  0  0  0
    5.0230    1.7774   16.9270 H   0  0  0  0  0  0  0  0  0  0  0  0
    4.0201    1.9056   19.1976 H   0  0  0  0  0  0  0  0  0  0  0  0
    5.1574    0.7016   21.1105 H   0  0  0  0  0  0  0  0  0  0  0  0
    8.0764   -1.6467   20.4938 H   0  0  0  0  0  0  0  0  0  0  0  0
    6.6857   -1.3924   21.5522 H   0  0  0  0  0  0  0  0  0  0  0  0
    7.8000    0.5293   22.9869 N   0  0  0  0  0  0  0  0  0  0  0  0
    8.8033    1.3100   23.3630 C   0  0  0  0  0  0  0  0  0  0  0  0
    8.8128    2.2668   24.4565 C   0  0  0  0  0  0  0  0  0  0  0  0
    8.9448    3.6620   24.2961 C   0  0  0  0  0  0  0  0  0  0  0  0
    8.8592    4.6002   23.2413 C   0  0  0  0  0  0  0  0  0  0  0  0
    8.5495    4.1547   22.0191 F   0  0  0  0  0  0  0  0  0  0  0  0
    9.1148    5.9353   23.4793 C   0  0  0  0  0  0  0  0  0  0  0  0
    9.0037    7.0462   22.1736 Cl  0  0  0  0  0  0  0  0  0  0  0  0
    9.4535    6.3820   24.7957 C   0  0  0  0  0  0  0  0  0  0  0  0
    9.4587    5.4794   25.8257 C   0  0  0  0  0  0  0  0  0  0  0  0
    9.1517    4.1593   25.5692 N   0  0  0  0  0  0  0  0  0  0  0  0
    9.0809    3.1984   26.5054 N   0  0  0  0  0  0  0  0  0  0  0  0
    8.8855    2.0679   25.8495 C   0  0  0  0  0  0  0  0  0  0  0  0
    8.8425    1.1347   26.4074 H   0  0  0  0  0  0  0  0  0  0  0  0
    9.7304    5.6751   26.8554 H   0  0  0  0  0  0  0  0  0  0  0  0
    9.7035    7.4295   24.9518 H   0  0  0  0  0  0  0  0  0  0  0  0
   11.0821    2.6415   23.2481 H   0  0  0  0  0  0  0  0  0  0  0  0
   13.2609    1.4387   22.9291 H   0  0  0  0  0  0  0  0  0  0  0  0
   12.3679    0.0115   22.3683 H   0  0  0  0  0  0  0  0  0  0  0  0
   12.1685    0.5945   24.0432 H   0  0  0  0  0  0  0  0  0  0  0  0
  1  2  1  0
  2  3  1  0
  3  4  1  0
  3  5  1  0
  3  6  1  0
  2  7  1  0
  7  8  1  0
  8  9  2  0
  9 10  1  0
 10 11  1  0
 11 12  2  0
 12 13  1  0
 13 14  2  0
 14 15  1  0
 15 16  2  0
 16 17  1  0
 14 18  1  0
 13 19  1  0
 12 20  1  0
 10 21  1  0
 10 22  1  0
  9 23  1  0
 23 24  2  0
 24 25  1  0
 25 26  2  0
 26 27  1  0
 27 28  1  0
 27 29  2  0
 29 30  1  0
 29 31  1  0
 31 32  2  0
 32 33  1  0
 33 34  1  0
 34 35  2  0
 35 36  1  0
 32 37  1  0
 31 38  1  0
  2 39  1  0
  1 40  1  0
  1 41  1  0
  1 42  1  0
 24  7  1  0
 35 25  1  0
 16 11  1  0
 33 26  1  0
M  END
>  <cnnaffinity>  (1) 
-5.74602

>  <filename>  (1) 
[H]c1nc([H])c(C([H])([H])c2nc(-c3c([H])nn4c([H])c([H])c(Cl)c(F)c34)n(C([H])(C([H])([H])[H])C([H])([H])[H])n2)c([H])c1[H]

$$$$
