
     RDKit          3D

 32 34  0  0  0  0  0  0  0  0999 V2000
    4.9588    1.8093   16.9449 H   0  0  0  0  0  0  0  0  0  0  0  0
    5.4087    1.3053   17.7974 C   0  0  0  0  0  0  0  0  0  0  0  0
    6.5669    0.6668   17.5699 N   0  0  0  0  0  0  0  0  0  0  0  0
    7.1454    0.0539   18.6114 C   0  0  0  0  0  0  0  0  0  0  0  0
    8.0940   -0.4409   18.3938 H   0  0  0  0  0  0  0  0  0  0  0  0
    6.6072    0.0391   19.9049 C   0  0  0  0  0  0  0  0  0  0  0  0
    7.3240   -0.6723   21.0312 C   0  0  1  0  0  0  0  0  0  0  0  0
    8.1694   -1.2226   20.5941 H   0  0  0  0  0  0  0  0  0  0  0  0
    7.9842    0.4726   22.3146 S   0  0  0  0  0  0  0  0  0  0  0  0
    7.0112   -0.3086   23.6317 C   0  0  0  0  0  0  0  0  0  0  0  0
    7.5873   -0.4750   24.5418 H   0  0  0  0  0  0  0  0  0  0  0  0
    6.1195    0.2720   23.8806 H   0  0  0  0  0  0  0  0  0  0  0  0
    6.5319   -1.6489   23.1240 C   0  0  0  0  0  0  0  0  0  0  0  0
    6.2228   -2.5558   23.8718 O   0  0  0  0  0  0  0  0  0  0  0  0
    6.4569   -1.6314   21.7367 N   0  0  0  0  0  0  0  0  0  0  0  0
    5.9497   -2.7561   21.0156 N   0  0  0  0  0  0  0  0  0  0  0  0
    5.6322   -2.4141   20.1024 H   0  0  0  0  0  0  0  0  0  0  0  0
    7.0157   -3.7554   20.8489 C   0  0  0  0  0  0  0  0  0  0  0  0
    7.9382   -3.2449   20.5673 H   0  0  0  0  0  0  0  0  0  0  0  0
    6.7088   -4.4487   20.0568 H   0  0  0  0  0  0  0  0  0  0  0  0
    7.4133   -4.4816   22.1122 C   0  0  0  0  0  0  0  0  0  0  0  0
    7.9575   -3.8577   22.8208 H   0  0  0  0  0  0  0  0  0  0  0  0
    6.6015   -5.5801   22.7165 C   0  0  0  0  0  0  0  0  0  0  0  0
    5.6528   -5.8424   22.2554 H   0  0  0  0  0  0  0  0  0  0  0  0
    6.6019   -5.6403   23.8020 H   0  0  0  0  0  0  0  0  0  0  0  0
    7.8767   -5.8965   21.9856 C   0  0  0  0  0  0  0  0  0  0  0  0
    7.7508   -6.3300   20.9973 H   0  0  0  0  0  0  0  0  0  0  0  0
    8.7573   -6.2192   22.5355 H   0  0  0  0  0  0  0  0  0  0  0  0
    5.3894    0.6889   20.1173 C   0  0  0  0  0  0  0  0  0  0  0  0
    4.9436    0.6758   21.1116 H   0  0  0  0  0  0  0  0  0  0  0  0
    4.7818    1.3399   19.0490 C   0  0  0  0  0  0  0  0  0  0  0  0
    3.8481    1.8755   19.1784 H   0  0  0  0  0  0  0  0  0  0  0  0
  1  2  1  0
  2  3  2  0
  3  4  1  0
  4  5  1  0
  4  6  2  0
  6  7  1  0
  7  8  1  6
  7  9  1  0
  9 10  1  0
 10 11  1  0
 10 12  1  0
 10 13  1  0
 13 14  2  0
 13 15  1  0
 15 16  1  0
 16 17  1  0
 16 18  1  0
 18 19  1  0
 18 20  1  0
 18 21  1  0
 21 22  1  0
 21 23  1  0
 23 24  1  0
 23 25  1  0
 23 26  1  0
 26 27  1  0
 26 28  1  0
  6 29  1  0
 29 30  1  0
 29 31  2  0
 31 32  1  0
 31  2  1  0
 15  7  1  0
 26 21  1  0
M  END
>  <cnnaffinity>  (1) 
-4.10763

>  <filename>  (1) 
[H]c1nc([H])c([C@@]2([H])SC([H])([H])C(=O)N2N([H])C([H])([H])C2([H])C([H])([H])C2([H])[H])c([H])c1[H]

$$$$
