
     RDKit          3D

 32 33  0  0  0  0  0  0  0  0999 V2000
    4.9297    1.8091   16.9142 H   0  0  0  0  0  0  0  0  0  0  0  0
    5.3848    1.3358   17.7868 C   0  0  0  0  0  0  0  0  0  0  0  0
    6.5560    0.7107   17.5875 N   0  0  0  0  0  0  0  0  0  0  0  0
    7.1265    0.1194   18.6473 C   0  0  0  0  0  0  0  0  0  0  0  0
    8.0764   -0.3769   18.4540 H   0  0  0  0  0  0  0  0  0  0  0  0
    6.5917    0.1248   19.9494 C   0  0  0  0  0  0  0  0  0  0  0  0
    7.2939   -0.5639   21.0669 C   0  0  0  0  0  0  0  0  0  0  0  0
    7.7241   -1.8788   20.9044 C   0  0  0  0  0  0  0  0  0  0  0  0
    7.3551   -2.4302   20.0629 H   0  0  0  0  0  0  0  0  0  0  0  0
    8.4938   -2.4814   21.8967 C   0  0  0  0  0  0  0  0  0  0  0  0
    8.9057   -3.4721   21.7358 H   0  0  0  0  0  0  0  0  0  0  0  0
    8.7514   -1.9075   23.0734 N   0  0  0  0  0  0  0  0  0  0  0  0
    8.2198   -0.6899   23.3042 C   0  0  0  0  0  0  0  0  0  0  0  0
    8.3562   -0.1258   24.6881 C   0  0  0  0  0  0  0  0  0  0  0  0
    7.7736    1.0048   24.8746 N   0  0  0  0  0  0  0  0  0  0  0  0
    7.8214    1.6432   26.0688 N   0  0  0  0  0  0  0  0  0  0  0  0
    8.3062    1.3039   26.8865 H   0  0  0  0  0  0  0  0  0  0  0  0
    7.2246    2.8544   26.2995 C   0  0  0  0  0  0  0  0  0  0  0  0
    7.3444    3.5518   27.7994 S   0  0  0  0  0  0  0  0  0  0  0  0
    6.5709    3.3886   25.2715 N   0  0  0  0  0  0  0  0  0  0  0  0
    6.1592    4.2920   25.3974 H   0  0  0  0  0  0  0  0  0  0  0  0
    6.5932    2.8876   24.3985 H   0  0  0  0  0  0  0  0  0  0  0  0
    9.0988   -0.8507   25.7867 C   0  0  0  0  0  0  0  0  0  0  0  0
    9.9095   -0.2080   26.1515 H   0  0  0  0  0  0  0  0  0  0  0  0
    9.5090   -1.8027   25.4416 H   0  0  0  0  0  0  0  0  0  0  0  0
    8.4159   -1.0296   26.6277 H   0  0  0  0  0  0  0  0  0  0  0  0
    7.5278    0.0257   22.3009 C   0  0  0  0  0  0  0  0  0  0  0  0
    7.1555    1.0145   22.5132 H   0  0  0  0  0  0  0  0  0  0  0  0
    5.3675    0.7799   20.1302 C   0  0  0  0  0  0  0  0  0  0  0  0
    4.9142    0.7925   21.1220 H   0  0  0  0  0  0  0  0  0  0  0  0
    4.7481    1.3820   19.0322 C   0  0  0  0  0  0  0  0  0  0  0  0
    3.7927    1.8834   19.1278 H   0  0  0  0  0  0  0  0  0  0  0  0
  1  2  1  0
  2  3  2  0
  3  4  1  0
  4  5  1  0
  4  6  2  0
  6  7  1  0
  7  8  2  0
  8  9  1  0
  8 10  1  0
 10 11  1  0
 10 12  2  0
 12 13  1  0
 13 14  1  0
 14 15  2  3
 15 16  1  0
 16 17  1  0
 16 18  1  0
 18 19  2  0
 18 20  1  0
 20 21  1  0
 20 22  1  0
 14 23  1  0
 23 24  1  0
 23 25  1  0
 23 26  1  0
 13 27  2  0
 27 28  1  0
  6 29  1  0
 29 30  1  0
 29 31  2  0
 31 32  1  0
 31  2  1  0
 27  7  1  0
M  END
>  <cnnaffinity>  (1) 
-4.84123

>  <filename>  (1) 
[H]c1nc([H])c(-c2c([H])c([H])nc(C(=NN([H])C(=S)N([H])[H])C([H])([H])[H])c2[H])c([H])c1[H]

$$$$
