
     RDKit          3D

 39 42  0  0  0  0  0  0  0  0999 V2000
    4.9651    1.8652   16.8921 H   0  0  0  0  0  0  0  0  0  0  0  0
    5.4161    1.3395   17.7306 C   0  0  0  0  0  0  0  0  0  0  0  0
    6.5719    0.7079   17.4815 N   0  0  0  0  0  0  0  0  0  0  0  0
    7.1565    0.0666   18.5046 C   0  0  0  0  0  0  0  0  0  0  0  0
    8.0863   -0.4464   18.2563 H   0  0  0  0  0  0  0  0  0  0  0  0
    6.6479    0.0109   19.8182 C   0  0  0  0  0  0  0  0  0  0  0  0
    7.3390   -0.7947   20.9165 C   0  0  1  0  0  0  0  0  0  0  0  0
    6.9279   -1.8137   20.8591 H   0  0  0  0  0  0  0  0  0  0  0  0
    8.8941   -0.9331   20.8305 C   0  0  0  0  0  0  0  0  0  0  0  0
    9.2502   -1.6537   20.0898 H   0  0  0  0  0  0  0  0  0  0  0  0
    9.3177    0.0544   20.6065 H   0  0  0  0  0  0  0  0  0  0  0  0
    9.2448   -1.3041   22.2465 C   0  0  0  0  0  0  0  0  0  0  0  0
   10.2602   -1.9073   22.8378 N   0  0  0  0  0  0  0  0  0  0  0  0
    9.8851   -1.8667   24.1620 N   0  0  0  0  0  0  0  0  0  0  0  0
   10.3695   -2.4251   24.8430 H   0  0  0  0  0  0  0  0  0  0  0  0
    8.6736   -1.2774   24.3691 C   0  0  0  0  0  0  0  0  0  0  0  0
    8.0940   -1.0763   25.6252 N   0  0  0  0  0  0  0  0  0  0  0  0
    7.1353   -0.7967   25.4512 H   0  0  0  0  0  0  0  0  0  0  0  0
    8.1433   -2.1207   26.6622 C   0  0  0  0  0  0  0  0  0  0  0  0
    9.1375   -2.1309   27.1242 H   0  0  0  0  0  0  0  0  0  0  0  0
    7.4314   -1.8236   27.4406 H   0  0  0  0  0  0  0  0  0  0  0  0
    7.8077   -3.5143   26.1600 C   0  0  0  0  0  0  0  0  0  0  0  0
    6.5757   -3.7875   25.5401 C   0  0  0  0  0  0  0  0  0  0  0  0
    5.7825   -3.0474   25.4721 H   0  0  0  0  0  0  0  0  0  0  0  0
    6.3784   -5.0379   24.9556 C   0  0  0  0  0  0  0  0  0  0  0  0
    5.4334   -5.2796   24.4679 H   0  0  0  0  0  0  0  0  0  0  0  0
    7.3089   -5.9949   24.9419 N   0  0  0  0  0  0  0  0  0  0  0  0
    8.4725   -5.7535   25.5524 C   0  0  0  0  0  0  0  0  0  0  0  0
    9.2071   -6.5583   25.5333 H   0  0  0  0  0  0  0  0  0  0  0  0
    8.7637   -4.5411   26.1795 C   0  0  0  0  0  0  0  0  0  0  0  0
    9.7370   -4.4020   26.6435 H   0  0  0  0  0  0  0  0  0  0  0  0
    8.2356   -0.8986   23.1251 C   0  0  0  0  0  0  0  0  0  0  0  0
    7.0997   -0.2834   22.3744 C   0  0  0  0  0  0  0  0  0  0  0  0
    6.1079   -0.5472   22.7556 H   0  0  0  0  0  0  0  0  0  0  0  0
    7.1791    0.8129   22.3687 H   0  0  0  0  0  0  0  0  0  0  0  0
    5.4180    0.6638   20.0359 C   0  0  0  0  0  0  0  0  0  0  0  0
    4.9424    0.6439   21.0184 H   0  0  0  0  0  0  0  0  0  0  0  0
    4.7964    1.3402   18.9832 C   0  0  0  0  0  0  0  0  0  0  0  0
    3.8576    1.8703   19.1231 H   0  0  0  0  0  0  0  0  0  0  0  0
  1  2  1  0
  2  3  2  0
  3  4  1  0
  4  5  1  0
  4  6  2  0
  6  7  1  0
  7  8  1  1
  7  9  1  0
  9 10  1  0
  9 11  1  0
  9 12  1  0
 12 13  2  0
 13 14  1  0
 14 15  1  0
 14 16  1  0
 16 17  1  0
 17 18  1  0
 17 19  1  0
 19 20  1  0
 19 21  1  0
 19 22  1  0
 22 23  2  0
 23 24  1  0
 23 25  1  0
 25 26  1  0
 25 27  2  0
 27 28  1  0
 28 29  1  0
 28 30  2  0
 30 31  1  0
 16 32  2  0
 32 33  1  0
 33 34  1  0
 33 35  1  0
  6 36  1  0
 36 37  1  0
 36 38  2  0
 38 39  1  0
 38  2  1  0
 33  7  1  0
 32 12  1  0
 30 22  1  0
M  END
>  <cnnaffinity>  (1) 
-5.3962

>  <filename>  (1) 
[H]c1nc([H])c([C@@]2([H])C([H])([H])c3nn([H])c(N([H])C([H])([H])c4c([H])c([H])nc([H])c4[H])c3C2([H])[H])c([H])c1[H]

$$$$
