
     RDKit          3D

 25 26  0  0  0  0  0  0  0  0999 V2000
    4.9305    1.7941   16.9921 H   0  0  0  0  0  0  0  0  0  0  0  0
    5.4025    1.2880   17.8317 C   0  0  0  0  0  0  0  0  0  0  0  0
    6.5661    0.6677   17.5736 N   0  0  0  0  0  0  0  0  0  0  0  0
    7.1739    0.0428   18.5899 C   0  0  0  0  0  0  0  0  0  0  0  0
    8.1277   -0.4298   18.3542 H   0  0  0  0  0  0  0  0  0  0  0  0
    6.6643   -0.0054   19.9084 C   0  0  0  0  0  0  0  0  0  0  0  0
    7.3281   -0.6820   20.9688 N   0  0  0  0  0  0  0  0  0  0  0  0
    7.9002   -1.4840   20.7578 H   0  0  0  0  0  0  0  0  0  0  0  0
    7.4129   -0.2215   22.2635 C   0  0  0  0  0  0  0  0  0  0  0  0
    7.0054    0.8585   22.6282 O   0  0  0  0  0  0  0  0  0  0  0  0
    8.0796   -1.1812   23.2558 C   0  0  0  0  0  0  0  0  0  0  0  0
    7.6521   -0.9190   24.2238 H   0  0  0  0  0  0  0  0  0  0  0  0
    7.8136   -2.2210   23.0356 H   0  0  0  0  0  0  0  0  0  0  0  0
    9.5771   -1.0283   23.2599 C   0  0  0  0  0  0  0  0  0  0  0  0
   10.3796    0.1982   24.1832 S   0  0  0  0  0  0  0  0  0  0  0  0
   11.8970   -0.2056   23.4611 C   0  0  0  0  0  0  0  0  0  0  0  0
   13.3340    0.5775   23.9778 Cl  0  0  0  0  0  0  0  0  0  0  0  0
   11.8005   -1.2330   22.5723 C   0  0  0  0  0  0  0  0  0  0  0  0
   12.6606   -1.6764   22.0858 H   0  0  0  0  0  0  0  0  0  0  0  0
   10.4575   -1.6959   22.4701 C   0  0  0  0  0  0  0  0  0  0  0  0
   10.1458   -2.5135   21.8317 H   0  0  0  0  0  0  0  0  0  0  0  0
    5.4496    0.6449   20.1592 C   0  0  0  0  0  0  0  0  0  0  0  0
    5.0393    0.6374   21.1675 H   0  0  0  0  0  0  0  0  0  0  0  0
    4.8144    1.2965   19.0987 C   0  0  0  0  0  0  0  0  0  0  0  0
    3.8865    1.8291   19.2574 H   0  0  0  0  0  0  0  0  0  0  0  0
  1  2  1  0
  2  3  2  0
  3  4  1  0
  4  5  1  0
  4  6  2  0
  6  7  1  0
  7  8  1  0
  7  9  1  0
  9 10  2  0
  9 11  1  0
 11 12  1  0
 11 13  1  0
 11 14  1  0
 14 15  1  0
 15 16  1  0
 16 17  1  0
 16 18  2  0
 18 19  1  0
 18 20  1  0
 20 21  1  0
  6 22  1  0
 22 23  1  0
 22 24  2  0
 24 25  1  0
 24  2  1  0
 20 14  2  0
M  END
>  <cnnaffinity>  (1) 
-4.80419

>  <filename>  (1) 
[H]c1nc([H])c(N([H])C(=O)C([H])([H])c2sc(Cl)c([H])c2[H])c([H])c1[H]

$$$$
