
     RDKit          3D

 30 32  0  0  0  0  0  0  0  0999 V2000
    5.1028    1.9931   16.6964 H   0  0  0  0  0  0  0  0  0  0  0  0
    5.4361    1.4484   17.5762 C   0  0  0  0  0  0  0  0  0  0  0  0
    6.5942    0.7786   17.4489 N   0  0  0  0  0  0  0  0  0  0  0  0
    7.0373    0.0831   18.5002 C   0  0  0  0  0  0  0  0  0  0  0  0
    7.9899   -0.4296   18.3718 H   0  0  0  0  0  0  0  0  0  0  0  0
    6.3306    0.0053   19.7145 C   0  0  0  0  0  0  0  0  0  0  0  0
    6.7912   -0.8110   20.7892 N   0  0  0  0  0  0  0  0  0  0  0  0
    7.1945   -2.0780   20.5958 N   0  0  0  0  0  0  0  0  0  0  0  0
    7.5679   -2.5551   21.7392 N   0  0  0  0  0  0  0  0  0  0  0  0
    7.4143   -1.6004   22.6999 C   0  0  0  0  0  0  0  0  0  0  0  0
    7.8609   -1.8024   24.1193 C   0  0  0  0  0  0  0  0  0  0  0  0
    8.2301   -2.8250   24.2148 H   0  0  0  0  0  0  0  0  0  0  0  0
    7.0122   -1.6941   24.8044 H   0  0  0  0  0  0  0  0  0  0  0  0
    8.9505   -0.8268   24.5286 C   0  0  0  0  0  0  0  0  0  0  0  0
    8.6467    0.2522   25.3643 C   0  0  0  0  0  0  0  0  0  0  0  0
    7.6432    0.3123   25.7764 H   0  0  0  0  0  0  0  0  0  0  0  0
    9.5909    1.2391   25.6555 C   0  0  0  0  0  0  0  0  0  0  0  0
    9.3136    2.0652   26.3027 H   0  0  0  0  0  0  0  0  0  0  0  0
   10.8726    1.1578   25.1050 C   0  0  0  0  0  0  0  0  0  0  0  0
   11.6136    1.9185   25.3335 H   0  0  0  0  0  0  0  0  0  0  0  0
   11.2095    0.0806   24.2802 C   0  0  0  0  0  0  0  0  0  0  0  0
   12.1892   -0.0027   23.8210 H   0  0  0  0  0  0  0  0  0  0  0  0
   10.2558   -0.9094   24.0170 C   0  0  0  0  0  0  0  0  0  0  0  0
   10.7161   -2.2417   22.9984 Cl  0  0  0  0  0  0  0  0  0  0  0  0
    6.8881   -0.4866   22.1027 C   0  0  0  0  0  0  0  0  0  0  0  0
    6.5542    0.4615   22.4996 H   0  0  0  0  0  0  0  0  0  0  0  0
    5.1548    0.7470   19.8629 C   0  0  0  0  0  0  0  0  0  0  0  0
    4.6143    0.7508   20.8125 H   0  0  0  0  0  0  0  0  0  0  0  0
    4.6924    1.4686   18.7602 C   0  0  0  0  0  0  0  0  0  0  0  0
    3.7806    2.0511   18.8101 H   0  0  0  0  0  0  0  0  0  0  0  0
  1  2  1  0
  2  3  2  0
  3  4  1  0
  4  5  1  0
  4  6  2  0
  6  7  1  0
  7  8  1  0
  8  9  2  0
  9 10  1  0
 10 11  1  0
 11 12  1  0
 11 13  1  0
 11 14  1  0
 14 15  2  0
 15 16  1  0
 15 17  1  0
 17 18  1  0
 17 19  2  0
 19 20  1  0
 19 21  1  0
 21 22  1  0
 21 23  2  0
 23 24  1  0
 10 25  2  0
 25 26  1  0
  6 27  1  0
 27 28  1  0
 27 29  2  0
 29 30  1  0
 29  2  1  0
 25  7  1  0
 23 14  1  0
M  END
>  <cnnaffinity>  (1) 
-5.33455

>  <filename>  (1) 
[H]c1nc([H])c(-n2nnc(C([H])([H])c3c([H])c([H])c([H])c([H])c3Cl)c2[H])c([H])c1[H]

$$$$
