
     RDKit          3D

 32 33  0  0  0  0  0  0  0  0999 V2000
    5.0084    1.6788   17.1180 H   0  0  0  0  0  0  0  0  0  0  0  0
    5.5345    1.1162   17.8843 C   0  0  0  0  0  0  0  0  0  0  0  0
    6.6669    0.4656   17.5625 N   0  0  0  0  0  0  0  0  0  0  0  0
    7.3108   -0.2053   18.5383 C   0  0  0  0  0  0  0  0  0  0  0  0
    8.2283   -0.7178   18.2654 H   0  0  0  0  0  0  0  0  0  0  0  0
    6.8497   -0.2560   19.8731 C   0  0  0  0  0  0  0  0  0  0  0  0
    7.5816   -0.9995   20.9652 C   0  0  0  0  0  0  0  0  0  0  0  0
    8.5016   -1.4398   20.5667 H   0  0  0  0  0  0  0  0  0  0  0  0
    7.8556   -0.2609   21.7303 H   0  0  0  0  0  0  0  0  0  0  0  0
    6.7007   -2.1043   21.5988 C   0  0  1  0  0  0  0  0  0  0  0  0
    5.8245   -1.6409   22.0442 H   0  0  0  0  0  0  0  0  0  0  0  0
    6.0608   -3.4046   20.2293 Br  0  0  0  0  0  0  0  0  0  0  0  0
    7.4297   -2.8816   22.7007 C   0  0  0  0  0  0  0  0  0  0  0  0
    8.2775   -3.7014   22.3583 O   0  0  0  0  0  0  0  0  0  0  0  0
    7.0722   -2.7893   24.0503 N   0  0  0  0  0  0  0  0  0  0  0  0
    5.9086   -1.9908   24.4559 C   0  0  0  0  0  0  0  0  0  0  0  0
    4.9978   -2.5231   24.1513 H   0  0  0  0  0  0  0  0  0  0  0  0
    5.9496   -1.0025   23.9778 H   0  0  0  0  0  0  0  0  0  0  0  0
    5.8274   -1.7723   25.9684 C   0  0  0  0  0  0  0  0  0  0  0  0
    4.8648   -1.3227   26.2321 H   0  0  0  0  0  0  0  0  0  0  0  0
    6.6219   -1.0961   26.2976 H   0  0  0  0  0  0  0  0  0  0  0  0
    5.9555   -3.0226   26.6480 O   0  0  0  0  0  0  0  0  0  0  0  0
    7.2446   -3.6039   26.4301 C   0  0  0  0  0  0  0  0  0  0  0  0
    7.9938   -2.9119   26.8212 H   0  0  0  0  0  0  0  0  0  0  0  0
    7.3203   -4.5486   26.9802 H   0  0  0  0  0  0  0  0  0  0  0  0
    7.5257   -3.8655   24.9440 C   0  0  0  0  0  0  0  0  0  0  0  0
    8.6066   -3.9935   24.8272 H   0  0  0  0  0  0  0  0  0  0  0  0
    7.0357   -4.7991   24.6397 H   0  0  0  0  0  0  0  0  0  0  0  0
    5.6807    0.4266   20.1959 C   0  0  0  0  0  0  0  0  0  0  0  0
    5.3090    0.4222   21.2204 H   0  0  0  0  0  0  0  0  0  0  0  0
    5.0107    1.1039   19.1812 C   0  0  0  0  0  0  0  0  0  0  0  0
    4.0902    1.6340   19.3880 H   0  0  0  0  0  0  0  0  0  0  0  0
  1  2  1  0
  2  3  2  0
  3  4  1  0
  4  5  1  0
  4  6  2  0
  6  7  1  0
  7  8  1  0
  7  9  1  0
  7 10  1  0
 10 11  1  1
 10 12  1  0
 10 13  1  0
 13 14  2  0
 13 15  1  0
 15 16  1  0
 16 17  1  0
 16 18  1  0
 16 19  1  0
 19 20  1  0
 19 21  1  0
 19 22  1  0
 22 23  1  0
 23 24  1  0
 23 25  1  0
 23 26  1  0
 26 27  1  0
 26 28  1  0
  6 29  1  0
 29 30  1  0
 29 31  2  0
 31 32  1  0
 31  2  1  0
 26 15  1  0
M  END
>  <cnnaffinity>  (1) 
-3.96126

>  <filename>  (1) 
[H]c1nc([H])c(C([H])([H])[C@@]([H])(Br)C(=O)N2C([H])([H])C([H])([H])OC([H])([H])C2([H])[H])c([H])c1[H]

$$$$
