
     RDKit          3D

 33 36  0  0  0  0  0  0  0  0999 V2000
    8.6705    0.9071   24.4623 F   0  0  0  0  0  0  0  0  0  0  0  0
    8.6545   -0.2984   25.0657 C   0  0  0  0  0  0  0  0  0  0  0  0
    8.9668   -0.3229   26.4407 C   0  0  0  0  0  0  0  0  0  0  0  0
    8.9812   -1.5261   27.0976 C   0  0  0  0  0  0  0  0  0  0  0  0
    8.6745   -2.7369   26.4078 C   0  0  0  0  0  0  0  0  0  0  0  0
    8.6621   -4.0135   27.0466 C   0  0  0  0  0  0  0  0  0  0  0  0
    8.3577   -5.1509   26.4646 N   0  0  0  0  0  0  0  0  0  0  0  0
    8.0273   -5.0955   25.1490 C   0  0  0  0  0  0  0  0  0  0  0  0
    7.9960   -3.9418   24.4113 C   0  0  0  0  0  0  0  0  0  0  0  0
    8.3461   -2.6973   25.0218 C   0  0  0  0  0  0  0  0  0  0  0  0
    8.3654   -1.4350   24.3268 C   0  0  0  0  0  0  0  0  0  0  0  0
    8.1022   -1.3413   22.8886 C   0  0  0  0  0  0  0  0  0  0  0  0
    7.2291   -0.4918   22.2622 C   0  0  0  0  0  0  0  0  0  0  0  0
    7.3551   -0.6886   20.9248 N   0  0  0  0  0  0  0  0  0  0  0  0
    6.6604   -0.0020   19.9032 C   0  0  0  0  0  0  0  0  0  0  0  0
    5.4440    0.6456   20.1678 C   0  0  0  0  0  0  0  0  0  0  0  0
    4.8141    1.3032   19.1110 C   0  0  0  0  0  0  0  0  0  0  0  0
    5.4054    1.2887   17.8445 C   0  0  0  0  0  0  0  0  0  0  0  0
    6.5731    0.6719   17.5920 N   0  0  0  0  0  0  0  0  0  0  0  0
    7.1843    0.0489   18.6021 C   0  0  0  0  0  0  0  0  0  0  0  0
    8.1295   -0.4351   18.3754 H   0  0  0  0  0  0  0  0  0  0  0  0
    4.9228    1.7778   17.0004 H   0  0  0  0  0  0  0  0  0  0  0  0
    3.8831    1.8358   19.2655 H   0  0  0  0  0  0  0  0  0  0  0  0
    4.9959    0.6254   21.1619 H   0  0  0  0  0  0  0  0  0  0  0  0
    8.2986   -1.6159   20.6411 N   0  0  0  0  0  0  0  0  0  0  0  0
    8.7381   -2.0199   21.8188 C   0  0  0  0  0  0  0  0  0  0  0  0
    9.5077   -2.7760   21.9146 H   0  0  0  0  0  0  0  0  0  0  0  0
    6.5743    0.2503   22.7007 H   0  0  0  0  0  0  0  0  0  0  0  0
    7.6960   -3.9631   23.3724 H   0  0  0  0  0  0  0  0  0  0  0  0
    7.7724   -6.0462   24.6916 H   0  0  0  0  0  0  0  0  0  0  0  0
    8.9115   -4.0698   28.0994 H   0  0  0  0  0  0  0  0  0  0  0  0
    9.2259   -1.5254   28.1524 H   0  0  0  0  0  0  0  0  0  0  0  0
    9.1868    0.6170   26.9381 H   0  0  0  0  0  0  0  0  0  0  0  0
  1  2  1  0
  2  3  2  0
  3  4  1  0
  4  5  2  0
  5  6  1  0
  6  7  2  0
  7  8  1  0
  8  9  2  0
  9 10  1  0
 10 11  2  0
 11 12  1  0
 12 13  2  0
 13 14  1  0
 14 15  1  0
 15 16  2  0
 16 17  1  0
 17 18  2  0
 18 19  1  0
 19 20  2  0
 20 21  1  0
 18 22  1  0
 17 23  1  0
 16 24  1  0
 14 25  1  0
 25 26  2  0
 26 27  1  0
 13 28  1  0
  9 29  1  0
  8 30  1  0
  6 31  1  0
  4 32  1  0
  3 33  1  0
 11  2  1  0
 26 12  1  0
 10  5  1  0
 20 15  1  0
M  END
>  <cnnaffinity>  (1) 
-5.82926

>  <filename>  (1) 
[H]c1nc([H])c(-n2nc([H])c(-c3c(F)c([H])c([H])c4c([H])nc([H])c([H])c34)c2[H])c([H])c1[H]

$$$$
