
     RDKit          3D

 32 34  0  0  0  0  0  0  0  0999 V2000
    6.6959   -1.4118   21.5795 H   0  0  0  0  0  0  0  0  0  0  0  0
    7.3181   -0.7144   21.0113 C   0  0  0  0  0  0  0  0  0  0  0  0
    8.5868   -0.4638   21.3807 C   0  0  0  0  0  0  0  0  0  0  0  0
    9.3529   -1.1005   22.4535 C   0  0  0  0  0  0  0  0  0  0  0  0
    8.8316   -2.3057   23.2388 C   0  0  2  0  0  0  0  0  0  0  0  0
    9.6779   -2.6147   23.8659 H   0  0  0  0  0  0  0  0  0  0  0  0
    8.3981   -3.4647   22.4410 N   0  0  0  0  0  0  0  0  0  0  0  0
    7.2195   -3.7236   22.8389 C   0  0  0  0  0  0  0  0  0  0  0  0
    6.4720   -4.6836   22.3006 N   0  0  0  0  0  0  0  0  0  0  0  0
    6.9907   -5.1892   21.6099 H   0  0  0  0  0  0  0  0  0  0  0  0
    5.5860   -4.8941   22.7021 H   0  0  0  0  0  0  0  0  0  0  0  0
    6.6467   -2.9935   23.8030 O   0  0  0  0  0  0  0  0  0  0  0  0
    7.6066   -1.9664   24.1371 C   0  0  0  0  0  0  0  0  0  0  0  0
    7.8287   -2.0456   25.2057 H   0  0  0  0  0  0  0  0  0  0  0  0
    7.1328   -0.9923   23.9458 H   0  0  0  0  0  0  0  0  0  0  0  0
   10.4775   -0.5431   22.7129 N   0  0  0  0  0  0  0  0  0  0  0  0
   10.6990    0.5650   21.7657 C   0  0  0  0  0  0  0  0  0  0  0  0
   10.8113    1.4938   22.3340 H   0  0  0  0  0  0  0  0  0  0  0  0
   11.6405    0.3880   21.2375 H   0  0  0  0  0  0  0  0  0  0  0  0
    9.4734    0.6171   20.8153 C   0  0  0  0  0  0  0  0  0  0  0  0
    8.9688    1.5856   20.8055 H   0  0  0  0  0  0  0  0  0  0  0  0
    9.6904    0.3734   19.7754 H   0  0  0  0  0  0  0  0  0  0  0  0
    6.6369   -0.0226   19.9026 C   0  0  0  0  0  0  0  0  0  0  0  0
    7.1591    0.0558   18.5951 C   0  0  0  0  0  0  0  0  0  0  0  0
    8.1049   -0.4305   18.3608 H   0  0  0  0  0  0  0  0  0  0  0  0
    6.5588    0.6838   17.5767 N   0  0  0  0  0  0  0  0  0  0  0  0
    5.3957    1.3007   17.8319 C   0  0  0  0  0  0  0  0  0  0  0  0
    4.9234    1.8014   16.9870 H   0  0  0  0  0  0  0  0  0  0  0  0
    4.7940    1.3059   19.0951 C   0  0  0  0  0  0  0  0  0  0  0  0
    3.8682    1.8480   19.2442 H   0  0  0  0  0  0  0  0  0  0  0  0
    5.4163    0.6249   20.1408 C   0  0  0  0  0  0  0  0  0  0  0  0
    4.9948    0.6185   21.1448 H   0  0  0  0  0  0  0  0  0  0  0  0
  1  2  1  0
  2  3  2  3
  3  4  1  0
  4  5  1  0
  5  6  1  1
  5  7  1  0
  7  8  2  0
  8  9  1  0
  9 10  1  0
  9 11  1  0
  8 12  1  0
 12 13  1  0
 13 14  1  0
 13 15  1  0
  4 16  2  0
 16 17  1  0
 17 18  1  0
 17 19  1  0
 17 20  1  0
 20 21  1  0
 20 22  1  0
  2 23  1  0
 23 24  2  0
 24 25  1  0
 24 26  1  0
 26 27  2  0
 27 28  1  0
 27 29  1  0
 29 30  1  0
 29 31  2  0
 31 32  1  0
 20  3  1  0
 31 23  1  0
 13  5  1  0
M  END
>  <cnnaffinity>  (1) 
-4.88805

>  <filename>  (1) 
[H]C(=C1C([C@]2([H])N=C(N([H])[H])OC2([H])[H])=NC([H])([H])C1([H])[H])c1c([H])nc([H])c([H])c1[H]

$$$$
