
     RDKit          3D

 28 30  0  0  0  0  0  0  0  0999 V2000
   12.3322   -0.3990   22.5148 H   0  0  0  0  0  0  0  0  0  0  0  0
   11.4701    0.2001   22.2544 C   0  0  0  0  0  0  0  0  0  0  0  0
   10.2152   -0.3116   22.4797 N   0  0  0  0  0  0  0  0  0  0  0  0
    9.3021    0.5328   22.1203 C   0  0  0  0  0  0  0  0  0  0  0  0
    7.8528    0.2027   22.1307 C   0  0  2  0  0  0  0  0  0  0  0  0
    7.2950    1.1408   22.1422 H   0  0  0  0  0  0  0  0  0  0  0  0
    7.4869   -0.5353   23.4017 C   0  0  0  0  0  0  0  0  0  0  0  0
    7.6417   -0.1778   24.5456 O   0  0  0  0  0  0  0  0  0  0  0  0
    6.8497   -1.6707   23.0342 N   0  0  0  0  0  0  0  0  0  0  0  0
    6.4289   -2.1881   23.7895 H   0  0  0  0  0  0  0  0  0  0  0  0
    6.5831   -1.8598   21.6274 C   0  0  0  0  0  0  0  0  0  0  0  0
    5.5085   -1.7916   21.3864 H   0  0  0  0  0  0  0  0  0  0  0  0
    6.9099   -2.8520   21.2924 H   0  0  0  0  0  0  0  0  0  0  0  0
    7.4161   -0.7313   20.9649 C   0  0  1  0  0  0  0  0  0  0  0  0
    8.3136   -1.2004   20.5388 H   0  0  0  0  0  0  0  0  0  0  0  0
    6.6721    0.0095   19.8883 C   0  0  0  0  0  0  0  0  0  0  0  0
    7.1706    0.0700   18.5784 C   0  0  0  0  0  0  0  0  0  0  0  0
    8.1230   -0.4129   18.3477 H   0  0  0  0  0  0  0  0  0  0  0  0
    6.5596    0.6854   17.5611 N   0  0  0  0  0  0  0  0  0  0  0  0
    5.3955    1.2973   17.8289 C   0  0  0  0  0  0  0  0  0  0  0  0
    4.9153    1.7937   16.9893 H   0  0  0  0  0  0  0  0  0  0  0  0
    4.8094    1.3115   19.0986 C   0  0  0  0  0  0  0  0  0  0  0  0
    3.8777    1.8402   19.2524 H   0  0  0  0  0  0  0  0  0  0  0  0
    5.4514    0.6532   20.1452 C   0  0  0  0  0  0  0  0  0  0  0  0
    5.0163    0.6382   21.1488 H   0  0  0  0  0  0  0  0  0  0  0  0
    9.9160    2.0192   21.4703 S   0  0  0  0  0  0  0  0  0  0  0  0
   11.5160    1.4440   21.7104 C   0  0  0  0  0  0  0  0  0  0  0  0
   12.3892    2.0297   21.4651 H   0  0  0  0  0  0  0  0  0  0  0  0
  1  2  1  0
  2  3  1  0
  3  4  2  0
  4  5  1  0
  5  6  1  6
  5  7  1  0
  7  8  2  0
  7  9  1  0
  9 10  1  0
  9 11  1  0
 11 12  1  0
 11 13  1  0
 11 14  1  0
 14 15  1  6
 14 16  1  0
 16 17  2  0
 17 18  1  0
 17 19  1  0
 19 20  2  0
 20 21  1  0
 20 22  1  0
 22 23  1  0
 22 24  2  0
 24 25  1  0
  4 26  1  0
 26 27  1  0
 27 28  1  0
 27  2  2  0
 14  5  1  0
 24 16  1  0
M  END
>  <cnnaffinity>  (1) 
-4.82821

>  <filename>  (1) 
[H]c1nc([C@]2([H])C(=O)N([H])C([H])([H])[C@@]2([H])c2c([H])nc([H])c([H])c2[H])sc1[H]

$$$$
