
     RDKit          3D

 29 31  0  0  0  0  0  0  0  0999 V2000
    4.9498    1.7778   17.0099 H   0  0  0  0  0  0  0  0  0  0  0  0
    5.4130    1.2746   17.8566 C   0  0  0  0  0  0  0  0  0  0  0  0
    6.5746    0.6497   17.6103 N   0  0  0  0  0  0  0  0  0  0  0  0
    7.1832    0.0362   18.6343 C   0  0  0  0  0  0  0  0  0  0  0  0
    8.1290   -0.4409   18.3825 H   0  0  0  0  0  0  0  0  0  0  0  0
    6.6780    0.0063   19.9631 C   0  0  0  0  0  0  0  0  0  0  0  0
    7.3557   -0.6530   21.0290 N   0  0  0  0  0  0  0  0  0  0  0  0
    7.3625   -0.2786   22.3826 C   0  0  0  0  0  0  0  0  0  0  0  0
    6.9337    0.7365   22.8475 O   0  0  0  0  0  0  0  0  0  0  0  0
    8.0132   -1.2971   23.0792 N   0  0  0  0  0  0  0  0  0  0  0  0
    8.2214   -1.3077   24.4552 C   0  0  0  0  0  0  0  0  0  0  0  0
    7.5599   -0.3875   25.2198 N   0  0  0  0  0  0  0  0  0  0  0  0
    7.8720   -0.5234   26.4626 C   0  0  0  0  0  0  0  0  0  0  0  0
    7.3872    0.3634   27.5789 C   0  0  0  0  0  0  0  0  0  0  0  0
    8.1064    1.1680   27.7699 H   0  0  0  0  0  0  0  0  0  0  0  0
    7.2760   -0.1950   28.5057 H   0  0  0  0  0  0  0  0  0  0  0  0
    6.4275    0.8077   27.3151 H   0  0  0  0  0  0  0  0  0  0  0  0
    8.9968   -1.8288   26.7910 S   0  0  0  0  0  0  0  0  0  0  0  0
    9.0444   -2.1816   25.1069 C   0  0  0  0  0  0  0  0  0  0  0  0
    9.6255   -2.9833   24.6697 H   0  0  0  0  0  0  0  0  0  0  0  0
    8.4360   -2.3006   22.2451 C   0  0  0  0  0  0  0  0  0  0  0  0
    9.0022   -3.3134   22.5719 O   0  0  0  0  0  0  0  0  0  0  0  0
    8.0404   -1.9179   20.8446 C   0  0  0  0  0  0  0  0  0  0  0  0
    7.3847   -2.6948   20.4429 H   0  0  0  0  0  0  0  0  0  0  0  0
    8.9407   -1.8386   20.2246 H   0  0  0  0  0  0  0  0  0  0  0  0
    5.4531    0.6533   20.1920 C   0  0  0  0  0  0  0  0  0  0  0  0
    5.0390    0.6520   21.1973 H   0  0  0  0  0  0  0  0  0  0  0  0
    4.8191    1.2939   19.1218 C   0  0  0  0  0  0  0  0  0  0  0  0
    3.8865    1.8269   19.2613 H   0  0  0  0  0  0  0  0  0  0  0  0
  1  2  1  0
  2  3  2  0
  3  4  1  0
  4  5  1  0
  4  6  2  0
  6  7  1  0
  7  8  1  0
  8  9  2  0
  8 10  1  0
 10 11  1  0
 11 12  1  0
 12 13  2  0
 13 14  1  0
 14 15  1  0
 14 16  1  0
 14 17  1  0
 13 18  1  0
 18 19  1  0
 19 20  1  0
 10 21  1  0
 21 22  2  0
 21 23  1  0
 23 24  1  0
 23 25  1  0
  6 26  1  0
 26 27  1  0
 26 28  2  0
 28 29  1  0
 28  2  1  0
 23  7  1  0
 19 11  2  0
M  END
>  <cnnaffinity>  (1) 
-4.92533

>  <filename>  (1) 
[H]c1nc([H])c(N2C(=O)N(c3nc(C([H])([H])[H])sc3[H])C(=O)C2([H])[H])c([H])c1[H]

$$$$
