
     RDKit          3D

 37 39  0  0  0  0  0  0  0  0999 V2000
    4.9358    1.8038   16.9920 H   0  0  0  0  0  0  0  0  0  0  0  0
    5.4163    1.2791   17.8147 C   0  0  0  0  0  0  0  0  0  0  0  0
    6.5555    0.6332   17.5122 N   0  0  0  0  0  0  0  0  0  0  0  0
    7.1840   -0.0003   18.5095 C   0  0  0  0  0  0  0  0  0  0  0  0
    8.1139   -0.5051   18.2662 H   0  0  0  0  0  0  0  0  0  0  0  0
    6.7088   -0.0433   19.8330 C   0  0  0  0  0  0  0  0  0  0  0  0
    7.4330   -0.7184   20.8768 N   0  0  0  0  0  0  0  0  0  0  0  0
    6.7712   -1.7026   21.6040 C   0  0  0  0  0  0  0  0  0  0  0  0
    5.7400   -1.9016   21.3146 H   0  0  0  0  0  0  0  0  0  0  0  0
    7.3320   -2.3719   22.6349 C   0  0  0  0  0  0  0  0  0  0  0  0
    6.5406   -3.2606   23.3961 N   0  0  0  0  0  0  0  0  0  0  0  0
    6.2245   -2.9889   24.3447 H   0  0  0  0  0  0  0  0  0  0  0  0
    5.7001   -4.2573   22.9293 C   0  0  0  0  0  0  0  0  0  0  0  0
    5.9309   -4.9111   21.7146 C   0  0  0  0  0  0  0  0  0  0  0  0
    6.7596   -4.5716   21.1047 H   0  0  0  0  0  0  0  0  0  0  0  0
    5.1053   -5.9591   21.3015 C   0  0  0  0  0  0  0  0  0  0  0  0
    5.3228   -6.4882   20.3748 H   0  0  0  0  0  0  0  0  0  0  0  0
    3.9947   -6.3144   22.0801 C   0  0  0  0  0  0  0  0  0  0  0  0
    3.3396   -7.1255   21.7729 H   0  0  0  0  0  0  0  0  0  0  0  0
    3.7435   -5.6604   23.2821 C   0  0  0  0  0  0  0  0  0  0  0  0
    2.8421   -5.9028   23.8506 H   0  0  0  0  0  0  0  0  0  0  0  0
    4.6403   -4.6878   23.7693 C   0  0  0  0  0  0  0  0  0  0  0  0
    4.5442   -4.1508   25.1448 C   0  0  0  0  0  0  0  0  0  0  0  0
    5.1629   -3.1805   25.5814 O   0  0  0  0  0  0  0  0  0  0  0  0
    3.7005   -4.7708   26.0216 N   0  0  0  0  0  0  0  0  0  0  0  0
    3.8961   -4.3623   26.9235 H   0  0  0  0  0  0  0  0  0  0  0  0
    3.6538   -5.7757   25.9860 H   0  0  0  0  0  0  0  0  0  0  0  0
    8.7450   -1.9838   23.0242 C   0  0  0  0  0  0  0  0  0  0  0  0
    9.4500   -2.4112   23.9129 O   0  0  0  0  0  0  0  0  0  0  0  0
    9.2859   -0.9792   22.2480 N   0  0  0  0  0  0  0  0  0  0  0  0
   10.2044   -0.6797   22.5087 H   0  0  0  0  0  0  0  0  0  0  0  0
    8.7419   -0.2986   21.2130 C   0  0  0  0  0  0  0  0  0  0  0  0
    9.3613    0.5676   20.6416 O   0  0  0  0  0  0  0  0  0  0  0  0
    5.5031    0.5991   20.1251 C   0  0  0  0  0  0  0  0  0  0  0  0
    5.1101    0.5585   21.1433 H   0  0  0  0  0  0  0  0  0  0  0  0
    4.8476    1.2865   19.0961 C   0  0  0  0  0  0  0  0  0  0  0  0
    3.9203    1.8248   19.2779 H   0  0  0  0  0  0  0  0  0  0  0  0
  1  2  1  0
  2  3  2  0
  3  4  1  0
  4  5  1  0
  4  6  2  0
  6  7  1  0
  7  8  1  0
  8  9  1  0
  8 10  2  0
 10 11  1  0
 11 12  1  0
 11 13  1  0
 13 14  2  0
 14 15  1  0
 14 16  1  0
 16 17  1  0
 16 18  2  0
 18 19  1  0
 18 20  1  0
 20 21  1  0
 20 22  2  0
 22 23  1  0
 23 24  2  0
 23 25  1  0
 25 26  1  0
 25 27  1  0
 10 28  1  0
 28 29  2  0
 28 30  1  0
 30 31  1  0
 30 32  1  0
 32 33  2  0
  6 34  1  0
 34 35  1  0
 34 36  2  0
 36 37  1  0
 36  2  1  0
 32  7  1  0
 22 13  1  0
M  END
>  <cnnaffinity>  (1) 
-4.94951

>  <filename>  (1) 
[H]c1nc([H])c(-n2c([H])c(N([H])c3c([H])c([H])c([H])c([H])c3C(=O)N([H])[H])c(=O)n([H])c2=O)c([H])c1[H]

$$$$
