
     RDKit          3D

 51 55  0  0  0  0  0  0  0  0999 V2000
    5.0503    1.9407   17.0398 H   0  0  0  0  0  0  0  0  0  0  0  0
    5.5110    1.3570   17.8368 C   0  0  0  0  0  0  0  0  0  0  0  0
    6.6737    0.7531   17.5411 N   0  0  0  0  0  0  0  0  0  0  0  0
    7.2568    0.0349   18.5115 C   0  0  0  0  0  0  0  0  0  0  0  0
    8.2012   -0.4385   18.2468 H   0  0  0  0  0  0  0  0  0  0  0  0
    6.7337   -0.1557   19.8202 C   0  0  0  0  0  0  0  0  0  0  0  0
    7.3909   -0.9751   20.7582 N   0  0  0  0  0  0  0  0  0  0  0  0
    6.8697   -1.1646   22.1216 C   0  0  1  0  0  0  0  0  0  0  0  0
    5.8229   -1.4783   22.0753 H   0  0  0  0  0  0  0  0  0  0  0  0
    7.7673   -2.3138   22.6239 C   0  0  0  0  0  0  0  0  0  0  0  0
    7.8374   -2.3182   23.7167 H   0  0  0  0  0  0  0  0  0  0  0  0
    7.3392   -3.2735   22.3231 H   0  0  0  0  0  0  0  0  0  0  0  0
    9.1157   -2.0637   21.9187 C   0  0  0  0  0  0  0  0  0  0  0  0
    9.9266   -1.8373   22.6183 H   0  0  0  0  0  0  0  0  0  0  0  0
    9.4183   -2.9400   21.3407 H   0  0  0  0  0  0  0  0  0  0  0  0
    8.8461   -0.8702   20.9703 C   0  0  2  0  0  0  0  0  0  0  0  0
    9.3851   -1.0026   20.0254 H   0  0  0  0  0  0  0  0  0  0  0  0
    9.1994    0.5063   21.5864 C   0  0  0  0  0  0  0  0  0  0  0  0
    9.4654    1.2043   20.7863 H   0  0  0  0  0  0  0  0  0  0  0  0
   10.0916    0.4008   22.2143 H   0  0  0  0  0  0  0  0  0  0  0  0
    8.0386    1.1438   22.4071 C   0  0  2  0  0  0  0  0  0  0  0  0
    7.4687    1.7771   21.7138 H   0  0  0  0  0  0  0  0  0  0  0  0
    8.4854    2.0257   23.4809 N   0  0  0  0  0  0  0  0  0  0  0  0
    9.3158    1.4578   24.5454 C   0  0  0  0  0  0  0  0  0  0  0  0
    9.4399    0.3704   24.4397 H   0  0  0  0  0  0  0  0  0  0  0  0
    8.8312    1.6337   25.5209 H   0  0  0  0  0  0  0  0  0  0  0  0
   10.6597    2.1905   24.4998 C   0  0  0  0  0  0  0  0  0  0  0  0
   11.1317    2.1629   25.4861 H   0  0  0  0  0  0  0  0  0  0  0  0
   11.3506    1.6839   23.8126 H   0  0  0  0  0  0  0  0  0  0  0  0
   10.2964    3.5866   23.9736 C   0  0  2  0  0  0  0  0  0  0  0  0
   11.0815    3.9883   23.3260 H   0  0  0  0  0  0  0  0  0  0  0  0
    9.9201    4.6492   25.0207 C   0  0  0  0  0  0  0  0  0  0  0  0
    9.5290    4.1729   25.9391 H   0  0  0  0  0  0  0  0  0  0  0  0
   10.7802    5.2541   25.3372 H   0  0  0  0  0  0  0  0  0  0  0  0
    8.9115    5.4766   24.3594 N   0  0  0  0  0  0  0  0  0  0  0  0
    8.1726    6.3791   25.2328 C   0  0  0  0  0  0  0  0  0  0  0  0
    8.8586    7.0477   25.7719 H   0  0  0  0  0  0  0  0  0  0  0  0
    7.5412    5.8523   25.9777 H   0  0  0  0  0  0  0  0  0  0  0  0
    7.5062    7.0181   24.6358 H   0  0  0  0  0  0  0  0  0  0  0  0
    8.0460    4.5194   23.6455 C   0  0  0  0  0  0  0  0  0  0  0  0
    7.5301    5.0287   22.8186 H   0  0  0  0  0  0  0  0  0  0  0  0
    7.2759    4.0887   24.3131 H   0  0  0  0  0  0  0  0  0  0  0  0
    8.9787    3.3752   23.1595 C   0  0  2  0  0  0  0  0  0  0  0  0
    9.1645    3.4973   22.0805 H   0  0  0  0  0  0  0  0  0  0  0  0
    7.0342    0.1147   22.9843 C   0  0  0  0  0  0  0  0  0  0  0  0
    6.0747    0.6234   23.1208 H   0  0  0  0  0  0  0  0  0  0  0  0
    7.3617   -0.1713   23.9912 H   0  0  0  0  0  0  0  0  0  0  0  0
    5.5062    0.4905   20.0905 C   0  0  0  0  0  0  0  0  0  0  0  0
    5.0540    0.4058   21.0777 H   0  0  0  0  0  0  0  0  0  0  0  0
    4.9026    1.2563   19.0889 C   0  0  0  0  0  0  0  0  0  0  0  0
    3.9717    1.7841   19.2807 H   0  0  0  0  0  0  0  0  0  0  0  0
  1  2  1  0
  2  3  2  0
  3  4  1  0
  4  5  1  0
  4  6  2  0
  6  7  1  0
  7  8  1  0
  8  9  1  6
  8 10  1  0
 10 11  1  0
 10 12  1  0
 10 13  1  0
 13 14  1  0
 13 15  1  0
 13 16  1  0
 16 17  1  6
 16 18  1  0
 18 19  1  0
 18 20  1  0
 18 21  1  0
 21 22  1  6
 21 23  1  0
 23 24  1  0
 24 25  1  0
 24 26  1  0
 24 27  1  0
 27 28  1  0
 27 29  1  0
 27 30  1  0
 30 31  1  6
 30 32  1  0
 32 33  1  0
 32 34  1  0
 32 35  1  0
 35 36  1  0
 36 37  1  0
 36 38  1  0
 36 39  1  0
 35 40  1  0
 40 41  1  0
 40 42  1  0
 40 43  1  0
 43 44  1  6
 21 45  1  0
 45 46  1  0
 45 47  1  0
  6 48  1  0
 48 49  1  0
 48 50  2  0
 50 51  1  0
 50  2  1  0
 16  7  1  0
 43 23  1  0
 45  8  1  0
 43 30  1  0
M  END
>  <cnnaffinity>  (1) 
-5.63913

>  <filename>  (1) 
[H]c1nc([H])c(N2[C@@]3([H])C([H])([H])C([H])([H])[C@]2([H])C([H])([H])[C@]([H])(N2C([H])([H])C([H])([H])[C@]4([H])C([H])([H])N(C([H])([H])[H])C([H])([H])[C@]24[H])C3([H])[H])c([H])c1[H]

$$$$
