
     RDKit          3D

 40 43  0  0  0  0  0  0  0  0999 V2000
    9.3228    7.8273   23.8242 F   0  0  0  0  0  0  0  0  0  0  0  0
    9.2365    6.5013   23.9932 C   0  0  0  0  0  0  0  0  0  0  0  0
    9.2828    5.6621   22.8428 C   0  0  0  0  0  0  0  0  0  0  0  0
    9.1936    4.3467   22.9210 N   0  0  0  0  0  0  0  0  0  0  0  0
    9.0377    3.7926   24.1637 C   0  0  0  0  0  0  0  0  0  0  0  0
    8.8647    2.3810   24.2909 C   0  0  0  0  0  0  0  0  0  0  0  0
    8.8919    1.5348   23.0822 C   0  0  0  0  0  0  0  0  0  0  0  0
    7.9254    0.6914   22.7568 N   0  0  0  0  0  0  0  0  0  0  0  0
    8.3518    0.1698   21.5872 C   0  0  0  0  0  0  0  0  0  0  0  0
    7.5243   -0.7791   20.7740 C   0  0  0  0  0  0  0  0  0  0  0  0
    6.7209   -0.0898   19.6770 C   0  0  0  0  0  0  0  0  0  0  0  0
    5.5654    0.6460   19.9755 C   0  0  0  0  0  0  0  0  0  0  0  0
    4.9116    1.3250   18.9424 C   0  0  0  0  0  0  0  0  0  0  0  0
    5.4407    1.2613   17.6516 C   0  0  0  0  0  0  0  0  0  0  0  0
    6.5488    0.5714   17.3484 N   0  0  0  0  0  0  0  0  0  0  0  0
    7.1659   -0.0768   18.3448 C   0  0  0  0  0  0  0  0  0  0  0  0
    8.0795   -0.6075   18.0726 H   0  0  0  0  0  0  0  0  0  0  0  0
    4.9589    1.7891   16.8266 H   0  0  0  0  0  0  0  0  0  0  0  0
    4.0264    1.9231   19.1240 H   0  0  0  0  0  0  0  0  0  0  0  0
    5.1889    0.7072   20.9985 H   0  0  0  0  0  0  0  0  0  0  0  0
    8.1968   -1.5229   20.3346 H   0  0  0  0  0  0  0  0  0  0  0  0
    6.8691   -1.2975   21.4785 H   0  0  0  0  0  0  0  0  0  0  0  0
    9.5489    0.5722   21.2045 N   0  0  0  0  0  0  0  0  0  0  0  0
    9.8954    1.4683   22.1609 N   0  0  0  0  0  0  0  0  0  0  0  0
   11.2701    1.9671   22.1558 C   0  0  0  0  0  0  0  0  0  0  0  0
   12.2089    1.0285   22.8995 C   0  0  0  0  0  0  0  0  0  0  0  0
   11.9593    1.1243   24.2356 F   0  0  0  0  0  0  0  0  0  0  0  0
   13.4919    1.4328   22.6875 F   0  0  0  0  0  0  0  0  0  0  0  0
   12.1185   -0.0186   22.5862 H   0  0  0  0  0  0  0  0  0  0  0  0
   11.3195    2.9627   22.6080 H   0  0  0  0  0  0  0  0  0  0  0  0
   11.5676    2.0384   21.1072 H   0  0  0  0  0  0  0  0  0  0  0  0
    8.6073    1.8723   25.5588 C   0  0  0  0  0  0  0  0  0  0  0  0
    8.6251    2.7197   26.6934 C   0  0  0  0  0  0  0  0  0  0  0  0
    8.8119    4.0289   26.6288 N   0  0  0  0  0  0  0  0  0  0  0  0
    8.9916    4.5699   25.3912 C   0  0  0  0  0  0  0  0  0  0  0  0
    9.1009    5.9862   25.2583 C   0  0  0  0  0  0  0  0  0  0  0  0
    9.0490    6.6119   26.1456 H   0  0  0  0  0  0  0  0  0  0  0  0
    8.4908    2.2825   27.6850 H   0  0  0  0  0  0  0  0  0  0  0  0
    8.3812    0.8212   25.7098 H   0  0  0  0  0  0  0  0  0  0  0  0
    9.4142    6.1178   21.8631 H   0  0  0  0  0  0  0  0  0  0  0  0
  1  2  1  0
  2  3  2  0
  3  4  1  0
  4  5  2  0
  5  6  1  0
  6  7  1  0
  7  8  2  0
  8  9  1  0
  9 10  1  0
 10 11  1  0
 11 12  2  0
 12 13  1  0
 13 14  2  0
 14 15  1  0
 15 16  2  0
 16 17  1  0
 14 18  1  0
 13 19  1  0
 12 20  1  0
 10 21  1  0
 10 22  1  0
  9 23  2  0
 23 24  1  0
 24 25  1  0
 25 26  1  0
 26 27  1  0
 26 28  1  0
 26 29  1  0
 25 30  1  0
 25 31  1  0
  6 32  2  0
 32 33  1  0
 33 34  2  0
 34 35  1  0
 35 36  2  0
 36 37  1  0
 33 38  1  0
 32 39  1  0
  3 40  1  0
 36  2  1  0
 35  5  1  0
 24  7  1  0
 16 11  1  0
M  END
>  <cnnaffinity>  (1) 
-6.11308

>  <filename>  (1) 
[H]c1nc([H])c(C([H])([H])c2nc(-c3c([H])c([H])nc4c([H])c(F)c([H])nc34)n(C([H])([H])C([H])(F)F)n2)c([H])c1[H]

$$$$
