
     RDKit          3D

 39 39  0  0  0  0  0  0  0  0999 V2000
    4.9093    1.7915   16.9921 H   0  0  0  0  0  0  0  0  0  0  0  0
    5.3916    1.3006   17.8334 C   0  0  0  0  0  0  0  0  0  0  0  0
    6.5490    0.6789   17.5573 N   0  0  0  0  0  0  0  0  0  0  0  0
    7.1704    0.0683   18.5749 C   0  0  0  0  0  0  0  0  0  0  0  0
    8.1125   -0.4340   18.3612 H   0  0  0  0  0  0  0  0  0  0  0  0
    6.6809    0.0304   19.9046 C   0  0  0  0  0  0  0  0  0  0  0  0
    7.3856   -0.6305   20.9499 N   0  0  0  0  0  0  0  0  0  0  0  0
    6.8693   -1.2600   21.5551 H   0  0  0  0  0  0  0  0  0  0  0  0
    8.7088   -0.6199   21.2687 C   0  0  0  0  0  0  0  0  0  0  0  0
    9.3760   -1.8769   22.1012 S   0  0  0  0  0  0  0  0  0  0  0  0
    9.4973    0.6225   20.9210 C   0  0  0  0  0  0  0  0  0  0  0  0
    9.1090    1.0754   20.0059 H   0  0  0  0  0  0  0  0  0  0  0  0
   10.5263    0.3110   20.7650 H   0  0  0  0  0  0  0  0  0  0  0  0
    9.4524    1.6362   22.0718 C   0  0  0  0  0  0  0  0  0  0  0  0
   10.1802    2.4334   21.8766 H   0  0  0  0  0  0  0  0  0  0  0  0
    9.7853    1.1371   22.9912 H   0  0  0  0  0  0  0  0  0  0  0  0
    8.0691    2.2350   22.2748 C   0  0  0  0  0  0  0  0  0  0  0  0
    7.3532    1.4442   22.5358 H   0  0  0  0  0  0  0  0  0  0  0  0
    7.7090    2.6544   21.3248 H   0  0  0  0  0  0  0  0  0  0  0  0
    8.0533    3.3141   23.3475 C   0  0  0  0  0  0  0  0  0  0  0  0
    8.7699    4.1055   23.0830 H   0  0  0  0  0  0  0  0  0  0  0  0
    8.4147    2.8911   24.2965 H   0  0  0  0  0  0  0  0  0  0  0  0
    6.6630    3.9083   23.5543 C   0  0  0  0  0  0  0  0  0  0  0  0
    5.9504    3.0941   23.7432 H   0  0  0  0  0  0  0  0  0  0  0  0
    6.3327    4.3880   22.6207 H   0  0  0  0  0  0  0  0  0  0  0  0
    6.5876    4.9218   24.6954 C   0  0  0  0  0  0  0  0  0  0  0  0
    6.9951    4.4670   25.6102 H   0  0  0  0  0  0  0  0  0  0  0  0
    5.5343    5.1418   24.9133 H   0  0  0  0  0  0  0  0  0  0  0  0
    7.3242    6.2323   24.4136 C   0  0  0  0  0  0  0  0  0  0  0  0
    8.3947    6.0396   24.2681 H   0  0  0  0  0  0  0  0  0  0  0  0
    6.9652    6.6459   23.4616 H   0  0  0  0  0  0  0  0  0  0  0  0
    7.1332    7.2586   25.5252 C   0  0  0  0  0  0  0  0  0  0  0  0
    7.5040    6.8725   26.4818 H   0  0  0  0  0  0  0  0  0  0  0  0
    7.6622    8.1917   25.3087 H   0  0  0  0  0  0  0  0  0  0  0  0
    6.0710    7.4956   25.6584 H   0  0  0  0  0  0  0  0  0  0  0  0
    5.4487    0.6431   20.1629 C   0  0  0  0  0  0  0  0  0  0  0  0
    5.0235    0.6162   21.1686 H   0  0  0  0  0  0  0  0  0  0  0  0
    4.8107    1.3074   19.1054 C   0  0  0  0  0  0  0  0  0  0  0  0
    3.8794    1.8372   19.2616 H   0  0  0  0  0  0  0  0  0  0  0  0
  1  2  1  0
  2  3  2  0
  3  4  1  0
  4  5  1  0
  4  6  2  0
  6  7  1  0
  7  8  1  0
  7  9  1  0
  9 10  2  0
  9 11  1  0
 11 12  1  0
 11 13  1  0
 11 14  1  0
 14 15  1  0
 14 16  1  0
 14 17  1  0
 17 18  1  0
 17 19  1  0
 17 20  1  0
 20 21  1  0
 20 22  1  0
 20 23  1  0
 23 24  1  0
 23 25  1  0
 23 26  1  0
 26 27  1  0
 26 28  1  0
 26 29  1  0
 29 30  1  0
 29 31  1  0
 29 32  1  0
 32 33  1  0
 32 34  1  0
 32 35  1  0
  6 36  1  0
 36 37  1  0
 36 38  2  0
 38 39  1  0
 38  2  1  0
M  END
>  <cnnaffinity>  (1) 
-5.31111

>  <filename>  (1) 
[H]c1nc([H])c(N([H])C(=S)C([H])([H])C([H])([H])C([H])([H])C([H])([H])C([H])([H])C([H])([H])C([H])([H])C([H])([H])[H])c([H])c1[H]

$$$$
