
     RDKit          3D

 40 44  0  0  0  0  0  0  0  0999 V2000
   10.6684    5.4316   25.0822 F   0  0  0  0  0  0  0  0  0  0  0  0
    9.7427    4.5144   24.9066 C   0  0  0  0  0  0  0  0  0  0  0  0
    8.5979    4.2429   25.5747 C   0  0  0  0  0  0  0  0  0  0  0  0
    8.0297    3.1334   24.8675 C   0  0  0  0  0  0  0  0  0  0  0  0
    8.8822    2.8394   23.8466 C   0  0  0  0  0  0  0  0  0  0  0  0
    8.7794    1.8545   22.7778 C   0  0  0  0  0  0  0  0  0  0  0  0
    7.7588    1.0312   22.5811 N   0  0  0  0  0  0  0  0  0  0  0  0
    8.1212    0.3446   21.4763 C   0  0  0  0  0  0  0  0  0  0  0  0
    7.2663   -0.7122   20.8305 C   0  0  0  0  0  0  0  0  0  0  0  0
    6.4610   -0.1433   19.6690 C   0  0  0  0  0  0  0  0  0  0  0  0
    5.2864    0.5780   19.9181 C   0  0  0  0  0  0  0  0  0  0  0  0
    4.7150    1.3186   18.8823 C   0  0  0  0  0  0  0  0  0  0  0  0
    5.3339    1.3003   17.6290 C   0  0  0  0  0  0  0  0  0  0  0  0
    6.4263    0.5724   17.3521 N   0  0  0  0  0  0  0  0  0  0  0  0
    6.9611   -0.1331   18.3557 C   0  0  0  0  0  0  0  0  0  0  0  0
    7.8552   -0.7107   18.1127 H   0  0  0  0  0  0  0  0  0  0  0  0
    4.9315    1.8843   16.8043 H   0  0  0  0  0  0  0  0  0  0  0  0
    3.8252    1.9192   19.0359 H   0  0  0  0  0  0  0  0  0  0  0  0
    4.8448    0.5770   20.9169 H   0  0  0  0  0  0  0  0  0  0  0  0
    7.9256   -1.5204   20.4945 H   0  0  0  0  0  0  0  0  0  0  0  0
    6.6080   -1.1175   21.6050 H   0  0  0  0  0  0  0  0  0  0  0  0
    9.2957    0.6811   20.9717 N   0  0  0  0  0  0  0  0  0  0  0  0
    9.7311    1.6337   21.8204 N   0  0  0  0  0  0  0  0  0  0  0  0
   11.0729    2.1017   21.8339 C   0  0  0  0  0  0  0  0  0  0  0  0
   11.6164    2.9842   20.9066 C   0  0  0  0  0  0  0  0  0  0  0  0
   12.7916    3.7112   21.1967 C   0  0  0  0  0  0  0  0  0  0  0  0
   13.5560    3.4014   22.3230 C   0  0  0  0  0  0  0  0  0  0  0  0
   13.1005    2.3686   23.1634 C   0  0  0  0  0  0  0  0  0  0  0  0
   11.8677    1.7548   22.9252 C   0  0  0  0  0  0  0  0  0  0  0  0
   11.6990    0.8498   23.9437 N   0  0  0  0  0  0  0  0  0  0  0  0
   12.8188    0.9231   24.7105 C   0  0  0  0  0  0  0  0  0  0  0  0
   13.6676    1.7985   24.2743 N   0  0  0  0  0  0  0  0  0  0  0  0
   12.9419    0.3221   25.6041 H   0  0  0  0  0  0  0  0  0  0  0  0
   11.0294    0.1036   23.9536 H   0  0  0  0  0  0  0  0  0  0  0  0
   14.5238    3.8529   22.5085 H   0  0  0  0  0  0  0  0  0  0  0  0
   13.1195    4.4843   20.5038 H   0  0  0  0  0  0  0  0  0  0  0  0
   11.1274    3.1320   19.9611 H   0  0  0  0  0  0  0  0  0  0  0  0
    9.9697    3.6955   23.8862 O   0  0  0  0  0  0  0  0  0  0  0  0
    7.0987    2.6138   25.0678 H   0  0  0  0  0  0  0  0  0  0  0  0
    8.2276    4.7858   26.4306 H   0  0  0  0  0  0  0  0  0  0  0  0
  1  2  1  0
  2  3  2  0
  3  4  1  0
  4  5  2  0
  5  6  1  0
  6  7  2  0
  7  8  1  0
  8  9  1  0
  9 10  1  0
 10 11  2  0
 11 12  1  0
 12 13  2  0
 13 14  1  0
 14 15  2  0
 15 16  1  0
 13 17  1  0
 12 18  1  0
 11 19  1  0
  9 20  1  0
  9 21  1  0
  8 22  2  0
 22 23  1  0
 23 24  1  0
 24 25  2  0
 25 26  1  0
 26 27  2  0
 27 28  1  0
 28 29  2  0
 29 30  1  0
 30 31  1  0
 31 32  2  0
 31 33  1  0
 30 34  1  0
 27 35  1  0
 26 36  1  0
 25 37  1  0
  5 38  1  0
  4 39  1  0
  3 40  1  0
 38  2  1  0
 23  6  1  0
 29 24  1  0
 15 10  1  0
 32 28  1  0
M  END
>  <cnnaffinity>  (1) 
-6.17695

>  <filename>  (1) 
[H]c1nc([H])c(C([H])([H])c2nc(-c3oc(F)c([H])c3[H])n(-c3c([H])c([H])c([H])c4nc([H])n([H])c34)n2)c([H])c1[H]

$$$$
