
     RDKit          3D

 33 35  0  0  0  0  0  0  0  0999 V2000
    4.9923    1.8241   16.9832 H   0  0  0  0  0  0  0  0  0  0  0  0
    5.4387    1.2740   17.8079 C   0  0  0  0  0  0  0  0  0  0  0  0
    6.5994    0.6465   17.5527 N   0  0  0  0  0  0  0  0  0  0  0  0
    7.1739   -0.0318   18.5567 C   0  0  0  0  0  0  0  0  0  0  0  0
    8.1188   -0.5247   18.3380 H   0  0  0  0  0  0  0  0  0  0  0  0
    6.6220   -0.1139   19.8478 C   0  0  0  0  0  0  0  0  0  0  0  0
    7.2823   -0.8601   20.7972 O   0  0  0  0  0  0  0  0  0  0  0  0
    7.2272   -0.4599   22.1215 C   0  0  0  0  0  0  0  0  0  0  0  0
    7.2605   -1.3509   23.2068 C   0  0  0  0  0  0  0  0  0  0  0  0
    7.3375   -2.4317   23.1635 H   0  0  0  0  0  0  0  0  0  0  0  0
    7.2435   -0.7121   24.3727 N   0  0  0  0  0  0  0  0  0  0  0  0
    7.1744    0.5922   24.0329 N   0  0  0  0  0  0  0  0  0  0  0  0
    7.3369    1.3134   24.7171 H   0  0  0  0  0  0  0  0  0  0  0  0
    7.1834    0.8061   22.6940 C   0  0  0  0  0  0  0  0  0  0  0  0
    7.0602    2.0612   22.1325 N   0  0  0  0  0  0  0  0  0  0  0  0
    7.3916    2.1231   21.1826 H   0  0  0  0  0  0  0  0  0  0  0  0
    7.0564    3.2895   22.8907 C   0  0  0  0  0  0  0  0  0  0  0  0
    6.2681    3.2532   23.6529 H   0  0  0  0  0  0  0  0  0  0  0  0
    6.7713    4.0861   22.1921 H   0  0  0  0  0  0  0  0  0  0  0  0
    8.3807    3.6479   23.5626 C   0  0  0  0  0  0  0  0  0  0  0  0
    8.4323    4.1048   24.8890 C   0  0  0  0  0  0  0  0  0  0  0  0
    7.5752    4.0721   25.5537 H   0  0  0  0  0  0  0  0  0  0  0  0
    9.6185    4.6471   25.3846 C   0  0  0  0  0  0  0  0  0  0  0  0
    9.6313    5.0564   26.3929 H   0  0  0  0  0  0  0  0  0  0  0  0
   10.7594    4.7188   24.6898 N   0  0  0  0  0  0  0  0  0  0  0  0
   10.7331    4.2138   23.4502 C   0  0  0  0  0  0  0  0  0  0  0  0
   11.6523    4.3292   22.8787 H   0  0  0  0  0  0  0  0  0  0  0  0
    9.6004    3.6440   22.8633 C   0  0  0  0  0  0  0  0  0  0  0  0
    9.6884    3.2629   21.8517 H   0  0  0  0  0  0  0  0  0  0  0  0
    5.4167    0.5419   20.1097 C   0  0  0  0  0  0  0  0  0  0  0  0
    5.0258    0.5503   21.1308 H   0  0  0  0  0  0  0  0  0  0  0  0
    4.8162    1.2453   19.0607 C   0  0  0  0  0  0  0  0  0  0  0  0
    3.8904    1.7865   19.2187 H   0  0  0  0  0  0  0  0  0  0  0  0
  1  2  1  0
  2  3  2  0
  3  4  1  0
  4  5  1  0
  4  6  2  0
  6  7  1  0
  7  8  1  0
  8  9  1  0
  9 10  1  0
  9 11  2  0
 11 12  1  0
 12 13  1  0
 12 14  1  0
 14 15  1  0
 15 16  1  0
 15 17  1  0
 17 18  1  0
 17 19  1  0
 17 20  1  0
 20 21  2  0
 21 22  1  0
 21 23  1  0
 23 24  1  0
 23 25  2  0
 25 26  1  0
 26 27  1  0
 26 28  2  0
 28 29  1  0
  6 30  1  0
 30 31  1  0
 30 32  2  0
 32 33  1  0
 32  2  1  0
 14  8  2  0
 28 20  1  0
M  END
>  <cnnaffinity>  (1) 
-5.11555

>  <filename>  (1) 
[H]c1nc([H])c(Oc2c([H])nn([H])c2N([H])C([H])([H])c2c([H])c([H])nc([H])c2[H])c([H])c1[H]

$$$$
