
     RDKit          3D

 45 48  0  0  0  0  0  0  0  0999 V2000
    6.9194   -7.3993   22.0751 C   0  0  0  0  0  0  0  0  0  0  0  0
    7.3069   -6.5861   23.1514 O   0  0  0  0  0  0  0  0  0  0  0  0
    8.3787   -5.7053   22.8788 C   0  0  0  0  0  0  0  0  0  0  0  0
    7.8261   -4.3175   22.5625 C   0  0  0  0  0  0  0  0  0  0  0  0
    8.8269   -3.3374   21.9240 C   0  0  0  0  0  0  0  0  0  0  0  0
    8.3048   -1.9478   21.7852 C   0  0  0  0  0  0  0  0  0  0  0  0
    7.9103   -1.5168   20.6146 N   0  0  0  0  0  0  0  0  0  0  0  0
    7.3303   -0.3235   20.8888 N   0  0  0  0  0  0  0  0  0  0  0  0
    6.5802    0.2667   19.8399 C   0  0  0  0  0  0  0  0  0  0  0  0
    5.3499    0.9092   20.0364 C   0  0  0  0  0  0  0  0  0  0  0  0
    4.7258    1.4606   18.9104 C   0  0  0  0  0  0  0  0  0  0  0  0
    5.3466    1.3543   17.6624 C   0  0  0  0  0  0  0  0  0  0  0  0
    6.4899    0.6744   17.4608 N   0  0  0  0  0  0  0  0  0  0  0  0
    7.0665    0.1141   18.5239 C   0  0  0  0  0  0  0  0  0  0  0  0
    7.9407   -0.5132   18.3478 H   0  0  0  0  0  0  0  0  0  0  0  0
    4.9127    1.8143   16.7792 H   0  0  0  0  0  0  0  0  0  0  0  0
    3.7737    1.9757   18.9907 H   0  0  0  0  0  0  0  0  0  0  0  0
    4.8849    0.9552   21.0224 H   0  0  0  0  0  0  0  0  0  0  0  0
    7.4668   -0.0658   22.2352 C   0  0  0  0  0  0  0  0  0  0  0  0
    7.0953    1.2410   22.8758 C   0  0  0  0  0  0  0  0  0  0  0  0
    7.4694    2.4582   22.3191 C   0  0  0  0  0  0  0  0  0  0  0  0
    7.1216    3.6839   22.9602 C   0  0  0  0  0  0  0  0  0  0  0  0
    6.4444    3.7833   24.0834 N   0  0  0  0  0  0  0  0  0  0  0  0
    6.0473    2.6049   24.6638 C   0  0  0  0  0  0  0  0  0  0  0  0
    5.2948    2.6977   25.8719 C   0  0  0  0  0  0  0  0  0  0  0  0
    4.8346    1.5688   26.5096 C   0  0  0  0  0  0  0  0  0  0  0  0
    5.1127    0.2861   25.9666 C   0  0  0  0  0  0  0  0  0  0  0  0
    5.8475    0.1531   24.8076 C   0  0  0  0  0  0  0  0  0  0  0  0
    6.3412    1.3047   24.1127 C   0  0  0  0  0  0  0  0  0  0  0  0
    6.0804   -0.8290   24.3981 H   0  0  0  0  0  0  0  0  0  0  0  0
    4.7408   -0.5967   26.4789 H   0  0  0  0  0  0  0  0  0  0  0  0
    4.2573    1.6511   27.4315 H   0  0  0  0  0  0  0  0  0  0  0  0
    5.1141    3.7026   26.2399 H   0  0  0  0  0  0  0  0  0  0  0  0
    7.4336    4.6221   22.5033 H   0  0  0  0  0  0  0  0  0  0  0  0
    8.0455    2.5173   21.4016 H   0  0  0  0  0  0  0  0  0  0  0  0
    8.0584   -1.1052   22.8160 N   0  0  0  0  0  0  0  0  0  0  0  0
    9.0504   -3.6568   20.9054 H   0  0  0  0  0  0  0  0  0  0  0  0
    9.7692   -3.3005   22.4713 H   0  0  0  0  0  0  0  0  0  0  0  0
    6.9591   -4.4472   21.9004 H   0  0  0  0  0  0  0  0  0  0  0  0
    7.4292   -3.9012   23.4961 H   0  0  0  0  0  0  0  0  0  0  0  0
    9.0028   -6.0919   22.0559 H   0  0  0  0  0  0  0  0  0  0  0  0
    9.0051   -5.6858   23.7794 H   0  0  0  0  0  0  0  0  0  0  0  0
    5.9375   -7.8191   22.3045 H   0  0  0  0  0  0  0  0  0  0  0  0
    6.8629   -6.8224   21.1413 H   0  0  0  0  0  0  0  0  0  0  0  0
    7.6274   -8.2256   21.9203 H   0  0  0  0  0  0  0  0  0  0  0  0
  1  2  1  0
  2  3  1  0
  3  4  1  0
  4  5  1  0
  5  6  1  0
  6  7  2  0
  7  8  1  0
  8  9  1  0
  9 10  2  0
 10 11  1  0
 11 12  2  0
 12 13  1  0
 13 14  2  0
 14 15  1  0
 12 16  1  0
 11 17  1  0
 10 18  1  0
  8 19  1  0
 19 20  1  0
 20 21  2  0
 21 22  1  0
 22 23  2  0
 23 24  1  0
 24 25  2  0
 25 26  1  0
 26 27  2  0
 27 28  1  0
 28 29  2  0
 28 30  1  0
 27 31  1  0
 26 32  1  0
 25 33  1  0
 22 34  1  0
 21 35  1  0
 19 36  2  0
  5 37  1  0
  5 38  1  0
  4 39  1  0
  4 40  1  0
  3 41  1  0
  3 42  1  0
  1 43  1  0
  1 44  1  0
  1 45  1  0
 36  6  1  0
 14  9  1  0
 29 20  1  0
 29 24  1  0
M  END
>  <cnnaffinity>  (1) 
-5.44772

>  <filename>  (1) 
[H]c1nc([H])c(-n2nc(C([H])([H])C([H])([H])C([H])([H])OC([H])([H])[H])nc2-c2c([H])c([H])nc3c([H])c([H])c([H])c([H])c23)c([H])c1[H]

$$$$
