
     RDKit          3D

 42 45  0  0  0  0  0  0  0  0999 V2000
    7.1506   -4.0377   24.8555 O   0  0  0  0  0  0  0  0  0  0  0  0
    6.5604   -3.0193   24.5600 C   0  0  0  0  0  0  0  0  0  0  0  0
    7.2947   -1.7104   24.4668 C   0  0  0  0  0  0  0  0  0  0  0  0
    7.7033   -1.5295   23.0484 C   0  0  0  0  0  0  0  0  0  0  0  0
    8.8176   -2.0207   22.4550 C   0  0  0  0  0  0  0  0  0  0  0  0
    8.8697   -1.5386   20.8075 S   0  0  0  0  0  0  0  0  0  0  0  0
    7.3319   -0.7304   21.0251 C   0  0  0  0  0  0  0  0  0  0  0  0
    6.6385   -0.0104   19.9432 C   0  0  0  0  0  0  0  0  0  0  0  0
    5.4184    0.6562   20.1731 C   0  0  0  0  0  0  0  0  0  0  0  0
    4.8012    1.3067   19.1059 C   0  0  0  0  0  0  0  0  0  0  0  0
    5.4286    1.2776   17.8546 C   0  0  0  0  0  0  0  0  0  0  0  0
    6.5896    0.6456   17.6184 N   0  0  0  0  0  0  0  0  0  0  0  0
    7.1771    0.0275   18.6465 C   0  0  0  0  0  0  0  0  0  0  0  0
    8.1290   -0.4591   18.4272 H   0  0  0  0  0  0  0  0  0  0  0  0
    4.9795    1.7883   17.0062 H   0  0  0  0  0  0  0  0  0  0  0  0
    3.8637    1.8429   19.2341 H   0  0  0  0  0  0  0  0  0  0  0  0
    4.9796    0.6620   21.1717 H   0  0  0  0  0  0  0  0  0  0  0  0
    6.8550   -0.8389   22.2308 N   0  0  0  0  0  0  0  0  0  0  0  0
    9.5966   -2.6046   22.9167 H   0  0  0  0  0  0  0  0  0  0  0  0
    6.6492   -0.8814   24.7513 H   0  0  0  0  0  0  0  0  0  0  0  0
    8.1474   -1.7922   25.1426 H   0  0  0  0  0  0  0  0  0  0  0  0
    5.2285   -2.9655   24.2675 N   0  0  0  0  0  0  0  0  0  0  0  0
    4.3851   -4.0882   24.0580 C   0  0  0  0  0  0  0  0  0  0  0  0
    4.9253   -5.2285   23.4572 C   0  0  0  0  0  0  0  0  0  0  0  0
    4.1298   -6.3518   23.2277 C   0  0  0  0  0  0  0  0  0  0  0  0
    2.7917   -6.3338   23.6162 C   0  0  0  0  0  0  0  0  0  0  0  0
    2.2360   -5.1919   24.2149 C   0  0  0  0  0  0  0  0  0  0  0  0
    3.0238   -4.0439   24.4436 C   0  0  0  0  0  0  0  0  0  0  0  0
    2.3820   -2.8098   25.0825 C   0  0  0  0  0  0  0  0  0  0  0  0
    1.0293   -3.1271   25.7341 C   0  0  0  0  0  0  0  0  0  0  0  0
    0.2352   -3.9168   24.8699 O   0  0  0  0  0  0  0  0  0  0  0  0
    0.7793   -5.2087   24.6695 C   0  0  0  0  0  0  0  0  0  0  0  0
    0.1462   -5.6790   23.9107 H   0  0  0  0  0  0  0  0  0  0  0  0
    0.6874   -5.8051   25.5963 H   0  0  0  0  0  0  0  0  0  0  0  0
    1.1689   -3.6342   26.7050 H   0  0  0  0  0  0  0  0  0  0  0  0
    0.4541   -2.2140   25.9200 H   0  0  0  0  0  0  0  0  0  0  0  0
    2.2030   -2.0444   24.3160 H   0  0  0  0  0  0  0  0  0  0  0  0
    3.0474   -2.3626   25.8312 H   0  0  0  0  0  0  0  0  0  0  0  0
    2.1799   -7.2204   23.4700 H   0  0  0  0  0  0  0  0  0  0  0  0
    4.5587   -7.2360   22.7594 H   0  0  0  0  0  0  0  0  0  0  0  0
    5.9721   -5.2194   23.1857 H   0  0  0  0  0  0  0  0  0  0  0  0
    4.9037   -2.0801   23.9160 H   0  0  0  0  0  0  0  0  0  0  0  0
  1  2  2  0
  2  3  1  0
  3  4  1  0
  4  5  2  0
  5  6  1  0
  6  7  1  0
  7  8  1  0
  8  9  2  0
  9 10  1  0
 10 11  2  0
 11 12  1  0
 12 13  2  0
 13 14  1  0
 11 15  1  0
 10 16  1  0
  9 17  1  0
  7 18  2  0
  5 19  1  0
  3 20  1  0
  3 21  1  0
  2 22  1  0
 22 23  1  0
 23 24  2  0
 24 25  1  0
 25 26  2  0
 26 27  1  0
 27 28  2  0
 28 29  1  0
 29 30  1  0
 30 31  1  0
 31 32  1  0
 32 33  1  0
 32 34  1  0
 30 35  1  0
 30 36  1  0
 29 37  1  0
 29 38  1  0
 26 39  1  0
 25 40  1  0
 24 41  1  0
 22 42  1  0
 18  4  1  0
 28 23  1  0
 13  8  1  0
 32 27  1  0
M  END
>  <cnnaffinity>  (1) 
-5.77191

>  <filename>  (1) 
[H]c1nc([H])c(-c2nc(C([H])([H])C(=O)N([H])c3c([H])c([H])c([H])c4c3C([H])([H])C([H])([H])OC4([H])[H])c([H])s2)c([H])c1[H]

$$$$
