
     RDKit          3D

 34 36  0  0  0  0  0  0  0  0999 V2000
    6.6458   -1.3191   21.6750 H   0  0  0  0  0  0  0  0  0  0  0  0
    7.2860   -0.6984   21.0359 C   0  0  0  0  0  0  0  0  0  0  0  0
    8.5707   -0.4977   21.3805 C   0  0  0  0  0  0  0  0  0  0  0  0
    9.3597   -1.1383   22.4537 C   0  0  0  0  0  0  0  0  0  0  0  0
    8.8824   -2.3273   23.2172 C   0  0  0  0  0  0  0  0  0  0  0  0
    9.1055   -2.4061   24.6042 C   0  0  0  0  0  0  0  0  0  0  0  0
    9.6130   -1.5860   25.1086 H   0  0  0  0  0  0  0  0  0  0  0  0
    8.6519   -3.5147   25.3278 C   0  0  0  0  0  0  0  0  0  0  0  0
    8.7980   -3.5626   26.4052 H   0  0  0  0  0  0  0  0  0  0  0  0
    7.9905   -4.5689   24.6822 C   0  0  0  0  0  0  0  0  0  0  0  0
    7.6389   -5.4430   25.2227 H   0  0  0  0  0  0  0  0  0  0  0  0
    7.7881   -4.4875   23.2996 C   0  0  0  0  0  0  0  0  0  0  0  0
    7.0462   -5.5505   22.5656 N   0  0  0  0  0  4  0  0  0  0  0  0
    7.0072   -5.4694   21.3463 O   0  0  0  0  0  0  0  0  0  0  0  0
    6.5153   -6.4373   23.2062 O   0  0  0  0  0  1  0  0  0  0  0  0
    8.2299   -3.3837   22.5675 C   0  0  0  0  0  0  0  0  0  0  0  0
    8.0134   -3.3573   21.5035 H   0  0  0  0  0  0  0  0  0  0  0  0
   10.5073   -0.6021   22.6572 N   0  0  0  0  0  0  0  0  0  0  0  0
   10.6995    0.5089   21.7247 C   0  0  0  0  0  0  0  0  0  0  0  0
   10.7604    1.4289   22.3113 H   0  0  0  0  0  0  0  0  0  0  0  0
   11.6604    0.3851   21.2189 H   0  0  0  0  0  0  0  0  0  0  0  0
    9.4870    0.5265   20.7638 C   0  0  0  0  0  0  0  0  0  0  0  0
    9.7400    0.1847   19.7607 H   0  0  0  0  0  0  0  0  0  0  0  0
    8.9891    1.4946   20.6832 H   0  0  0  0  0  0  0  0  0  0  0  0
    6.6016   -0.0442   19.8958 C   0  0  0  0  0  0  0  0  0  0  0  0
    7.1351    0.0307   18.5889 C   0  0  0  0  0  0  0  0  0  0  0  0
    8.0775   -0.4590   18.3523 H   0  0  0  0  0  0  0  0  0  0  0  0
    6.5541    0.6734   17.5663 N   0  0  0  0  0  0  0  0  0  0  0  0
    5.3986    1.3061   17.8196 C   0  0  0  0  0  0  0  0  0  0  0  0
    4.9523    1.8397   16.9854 H   0  0  0  0  0  0  0  0  0  0  0  0
    4.7690    1.3029   19.0707 C   0  0  0  0  0  0  0  0  0  0  0  0
    3.8447    1.8575   19.2147 H   0  0  0  0  0  0  0  0  0  0  0  0
    5.3736    0.6070   20.1170 C   0  0  0  0  0  0  0  0  0  0  0  0
    4.9406    0.6027   21.1187 H   0  0  0  0  0  0  0  0  0  0  0  0
  1  2  1  0
  2  3  2  3
  3  4  1  0
  4  5  1  0
  5  6  2  0
  6  7  1  0
  6  8  1  0
  8  9  1  0
  8 10  2  0
 10 11  1  0
 10 12  1  0
 12 13  1  0
 13 14  2  0
 13 15  1  0
 12 16  2  0
 16 17  1  0
  4 18  2  0
 18 19  1  0
 19 20  1  0
 19 21  1  0
 19 22  1  0
 22 23  1  0
 22 24  1  0
  2 25  1  0
 25 26  2  0
 26 27  1  0
 26 28  1  0
 28 29  2  0
 29 30  1  0
 29 31  1  0
 31 32  1  0
 31 33  2  0
 33 34  1  0
 22  3  1  0
 33 25  1  0
 16  5  1  0
M  CHG  2  13   1  15  -1
M  END
>  <cnnaffinity>  (1) 
-5.53464

>  <filename>  (1) 
[H]C(=C1C(c2c([H])c([H])c([H])c([N+](=O)[O-])c2[H])=NC([H])([H])C1([H])[H])c1c([H])nc([H])c([H])c1[H]

$$$$
