
     RDKit          3D

 40 43  0  0  0  0  0  0  0  0999 V2000
   11.8594    0.9326   21.9152 H   0  0  0  0  0  0  0  0  0  0  0  0
   11.3788    1.3366   22.8073 C   0  0  0  0  0  0  0  0  0  0  0  0
   10.2961    0.6962   23.2681 C   0  0  0  0  0  0  0  0  0  0  0  0
    9.8449    0.9783   24.2269 H   0  0  0  0  0  0  0  0  0  0  0  0
    9.7308   -0.3839   22.6163 N   0  0  0  0  0  0  0  0  0  0  0  0
    9.7884   -0.5308   21.1364 C   0  0  0  0  0  0  0  0  0  0  0  0
   10.7175   -1.0166   20.8111 H   0  0  0  0  0  0  0  0  0  0  0  0
    9.6885    0.4335   20.6183 H   0  0  0  0  0  0  0  0  0  0  0  0
    8.5616   -1.4269   20.8669 C   0  0  2  0  0  0  0  0  0  0  0  0
    8.6190   -1.9452   19.9251 H   0  0  0  0  0  0  0  0  0  0  0  0
    7.3228   -0.6546   20.9949 N   0  0  0  0  0  0  0  0  0  0  0  0
    6.6951    0.0179   19.9514 C   0  0  0  0  0  0  0  0  0  0  0  0
    7.1997    0.0557   18.6174 C   0  0  0  0  0  0  0  0  0  0  0  0
    8.1376   -0.4405   18.3843 H   0  0  0  0  0  0  0  0  0  0  0  0
    6.6053    0.6730   17.5855 N   0  0  0  0  0  0  0  0  0  0  0  0
    5.4429    1.2995   17.8243 C   0  0  0  0  0  0  0  0  0  0  0  0
    4.9813    1.8082   16.9795 H   0  0  0  0  0  0  0  0  0  0  0  0
    4.8386    1.3121   19.0862 C   0  0  0  0  0  0  0  0  0  0  0  0
    3.8971    1.8354   19.2226 H   0  0  0  0  0  0  0  0  0  0  0  0
    5.4609    0.6698   20.1593 C   0  0  0  0  0  0  0  0  0  0  0  0
    5.0168    0.6584   21.1542 H   0  0  0  0  0  0  0  0  0  0  0  0
    7.2347   -0.2754   22.4255 C   0  0  0  0  0  0  0  0  0  0  0  0
    7.3014    0.8115   22.5732 H   0  0  0  0  0  0  0  0  0  0  0  0
    6.3073   -0.6571   22.8706 H   0  0  0  0  0  0  0  0  0  0  0  0
    8.4686   -1.0194   23.0257 C   0  0  1  0  0  0  0  0  0  0  0  0
    8.4083   -1.1811   24.1061 H   0  0  0  0  0  0  0  0  0  0  0  0
    8.4961   -2.2720   22.1383 C   0  0  0  0  0  0  0  0  0  0  0  0
    7.5881   -2.8757   22.1965 H   0  0  0  0  0  0  0  0  0  0  0  0
    9.3741   -2.9009   22.2979 H   0  0  0  0  0  0  0  0  0  0  0  0
   11.9770    2.5786   23.3236 C   0  0  0  0  0  0  0  0  0  0  0  0
   11.3129    3.4640   24.1950 C   0  0  0  0  0  0  0  0  0  0  0  0
   10.3294    3.2141   24.5807 H   0  0  0  0  0  0  0  0  0  0  0  0
   11.8874    4.6978   24.5205 C   0  0  0  0  0  0  0  0  0  0  0  0
   11.3537    5.3768   25.1789 H   0  0  0  0  0  0  0  0  0  0  0  0
   13.1335    5.0611   23.9959 C   0  0  0  0  0  0  0  0  0  0  0  0
   13.5431    6.0472   24.1963 H   0  0  0  0  0  0  0  0  0  0  0  0
   13.8343    4.1577   23.1853 C   0  0  0  0  0  0  0  0  0  0  0  0
   14.8025    4.4199   22.7651 H   0  0  0  0  0  0  0  0  0  0  0  0
   13.2662    2.9228   22.8805 C   0  0  0  0  0  0  0  0  0  0  0  0
   13.8145    2.2070   22.2778 H   0  0  0  0  0  0  0  0  0  0  0  0
  1  2  1  0
  2  3  2  3
  3  4  1  0
  3  5  1  0
  5  6  1  0
  6  7  1  0
  6  8  1  0
  6  9  1  0
  9 10  1  6
  9 11  1  0
 11 12  1  0
 12 13  2  0
 13 14  1  0
 13 15  1  0
 15 16  2  0
 16 17  1  0
 16 18  1  0
 18 19  1  0
 18 20  2  0
 20 21  1  0
 11 22  1  0
 22 23  1  0
 22 24  1  0
 22 25  1  0
 25 26  1  1
 25 27  1  0
 27 28  1  0
 27 29  1  0
  2 30  1  0
 30 31  2  0
 31 32  1  0
 31 33  1  0
 33 34  1  0
 33 35  2  0
 35 36  1  0
 35 37  1  0
 37 38  1  0
 37 39  2  0
 39 40  1  0
 25  5  1  0
 39 30  1  0
 27  9  1  0
 20 12  1  0
M  END
>  <cnnaffinity>  (1) 
-5.46379

>  <filename>  (1) 
[H]C(=C([H])N1C([H])([H])[C@]2([H])N(c3c([H])nc([H])c([H])c3[H])C([H])([H])[C@@]1([H])C2([H])[H])c1c([H])c([H])c([H])c([H])c1[H]

$$$$
