
     RDKit          3D

 50 54  0  0  0  0  0  0  0  0999 V2000
    9.5666    4.5851   22.5171 F   0  0  0  0  0  0  0  0  0  0  0  0
    9.2944    4.1522   23.7607 C   0  0  0  0  0  0  0  0  0  0  0  0
    8.8750    2.8335   23.9676 C   0  0  0  0  0  0  0  0  0  0  0  0
    8.7717    1.8667   22.8520 C   0  0  0  0  0  0  0  0  0  0  0  0
    7.7879    0.9918   22.6933 N   0  0  0  0  0  0  0  0  0  0  0  0
    8.1342    0.3505   21.5541 C   0  0  0  0  0  0  0  0  0  0  0  0
    7.3232   -0.7238   20.8879 C   0  0  0  0  0  0  0  0  0  0  0  0
    6.5416   -0.1344   19.7256 C   0  0  0  0  0  0  0  0  0  0  0  0
    5.3762    0.5922   19.9916 C   0  0  0  0  0  0  0  0  0  0  0  0
    4.7863    1.3179   18.9582 C   0  0  0  0  0  0  0  0  0  0  0  0
    5.3836    1.2901   17.6942 C   0  0  0  0  0  0  0  0  0  0  0  0
    6.4883    0.5832   17.4094 N   0  0  0  0  0  0  0  0  0  0  0  0
    7.0434   -0.1077   18.4129 C   0  0  0  0  0  0  0  0  0  0  0  0
    7.9564   -0.6551   18.1699 H   0  0  0  0  0  0  0  0  0  0  0  0
    4.9606    1.8645   16.8744 H   0  0  0  0  0  0  0  0  0  0  0  0
    3.9032    1.9228   19.1260 H   0  0  0  0  0  0  0  0  0  0  0  0
    4.9711    0.6056   21.0063 H   0  0  0  0  0  0  0  0  0  0  0  0
    8.0156   -1.5029   20.5520 H   0  0  0  0  0  0  0  0  0  0  0  0
    6.6599   -1.1546   21.6443 H   0  0  0  0  0  0  0  0  0  0  0  0
    9.2616    0.7541   21.0092 N   0  0  0  0  0  0  0  0  0  0  0  0
    9.6840    1.7285   21.8558 N   0  0  0  0  0  0  0  0  0  0  0  0
   11.1094    2.0923   21.8565 C   0  0  0  0  0  0  0  0  0  0  0  0
   11.8207    1.4845   23.0829 C   0  0  0  0  0  0  0  0  0  0  0  0
   11.7467   -0.0699   23.0597 C   0  0  0  0  0  0  0  0  0  0  0  0
   13.0212   -0.7076   22.4862 C   0  0  0  0  0  0  0  0  0  0  0  0
   14.3207   -0.0679   23.0339 C   0  0  0  0  0  0  0  0  0  0  0  0
   14.0697    1.0397   23.8779 O   0  0  0  0  0  0  0  0  0  0  0  0
   13.2661    1.9967   23.2256 C   0  0  0  0  0  0  0  0  0  0  0  0
   13.7089    2.2500   22.2518 H   0  0  0  0  0  0  0  0  0  0  0  0
   13.2973    2.9122   23.8215 H   0  0  0  0  0  0  0  0  0  0  0  0
   14.9228   -0.7563   23.6254 H   0  0  0  0  0  0  0  0  0  0  0  0
   14.9564    0.2625   22.1953 H   0  0  0  0  0  0  0  0  0  0  0  0
   13.0122   -0.6040   21.4060 H   0  0  0  0  0  0  0  0  0  0  0  0
   13.0013   -1.7925   22.6119 H   0  0  0  0  0  0  0  0  0  0  0  0
   11.5460   -0.4439   24.0719 H   0  0  0  0  0  0  0  0  0  0  0  0
   10.8849   -0.3815   22.4516 H   0  0  0  0  0  0  0  0  0  0  0  0
   11.2858    1.8277   23.9803 H   0  0  0  0  0  0  0  0  0  0  0  0
   11.1870    3.1782   21.8220 H   0  0  0  0  0  0  0  0  0  0  0  0
   11.5168    1.6948   20.9219 H   0  0  0  0  0  0  0  0  0  0  0  0
    8.5510    2.4248   25.2897 C   0  0  0  0  0  0  0  0  0  0  0  0
    8.6600    3.2897   26.3705 C   0  0  0  0  0  0  0  0  0  0  0  0
    9.0779    4.6037   26.1085 C   0  0  0  0  0  0  0  0  0  0  0  0
    9.4204    5.0620   24.8254 C   0  0  0  0  0  0  0  0  0  0  0  0
    9.8130    6.3969   24.8700 N   0  0  0  0  0  0  0  0  0  0  0  0
    9.6948    6.7254   26.1218 C   0  0  0  0  0  0  0  0  0  0  0  0
    9.2727    5.6935   26.9219 N   0  0  0  0  0  0  0  0  0  0  0  0
    8.9783    5.7702   27.8772 H   0  0  0  0  0  0  0  0  0  0  0  0
    9.9187    7.7057   26.5299 H   0  0  0  0  0  0  0  0  0  0  0  0
    8.4340    2.9628   27.3793 H   0  0  0  0  0  0  0  0  0  0  0  0
    8.2050    1.4068   25.4549 H   0  0  0  0  0  0  0  0  0  0  0  0
  1  2  1  0
  2  3  2  0
  3  4  1  0
  4  5  2  0
  5  6  1  0
  6  7  1  0
  7  8  1  0
  8  9  2  0
  9 10  1  0
 10 11  2  0
 11 12  1  0
 12 13  2  0
 13 14  1  0
 11 15  1  0
 10 16  1  0
  9 17  1  0
  7 18  1  0
  7 19  1  0
  6 20  2  0
 20 21  1  0
 21 22  1  0
 22 23  1  0
 23 24  1  0
 24 25  1  0
 25 26  1  0
 26 27  1  0
 27 28  1  0
 28 29  1  0
 28 30  1  0
 26 31  1  0
 26 32  1  0
 25 33  1  0
 25 34  1  0
 24 35  1  0
 24 36  1  0
 23 37  1  0
 22 38  1  0
 22 39  1  0
  3 40  1  0
 40 41  2  0
 41 42  1  0
 42 43  2  0
 43 44  1  0
 44 45  2  0
 45 46  1  0
 46 47  1  0
 45 48  1  0
 41 49  1  0
 40 50  1  0
 43  2  1  0
 21  4  1  0
 28 23  1  0
 46 42  1  0
 13  8  1  0
M  END
>  <cnnaffinity>  (1) 
-6.51793

>  <filename>  (1) 
[H]c1nc([H])c(C([H])([H])c2nc(-c3c([H])c([H])c4c(nc([H])n4[H])c3F)n(C([H])([H])C3([H])C([H])([H])OC([H])([H])C([H])([H])C3([H])[H])n2)c([H])c1[H]

$$$$
