
     RDKit          3D

 39 42  0  0  0  0  0  0  0  0999 V2000
    7.0836   -2.1718   27.2087 O   0  0  0  0  0  0  0  0  0  0  0  0
    7.3546   -2.0889   27.0866 C   0  0  0  0  0  0  0  0  0  0  0  0
    9.3331   -2.7001   25.7877 N   0  0  0  0  0  0  0  0  0  0  0  0
    8.8855   -1.7828   25.0109 C   0  0  0  0  0  0  0  0  0  0  0  0
    7.6975   -1.9912   24.2415 C   0  0  0  0  0  0  0  0  0  0  0  0
    7.7299   -1.5050   22.8569 C   0  0  0  0  0  0  0  0  0  0  0  0
    6.8016   -0.7881   22.2477 N   0  0  0  0  0  0  0  0  0  0  0  0
    7.3070   -0.5931   21.0104 C   0  0  0  0  0  0  0  0  0  0  0  0
    6.6114    0.1065   19.9423 C   0  0  0  0  0  0  0  0  0  0  0  0
    5.3790    0.7409   20.1363 C   0  0  0  0  0  0  0  0  0  0  0  0
    4.7917    1.3562   19.0336 C   0  0  0  0  0  0  0  0  0  0  0  0
    5.4450    1.3030   17.7967 C   0  0  0  0  0  0  0  0  0  0  0  0
    6.6240    0.6924   17.6047 N   0  0  0  0  0  0  0  0  0  0  0  0
    7.1966    0.1206   18.6660 C   0  0  0  0  0  0  0  0  0  0  0  0
    8.1673   -0.3478   18.5001 H   0  0  0  0  0  0  0  0  0  0  0  0
    5.0053    1.7683   16.9193 H   0  0  0  0  0  0  0  0  0  0  0  0
    3.8501    1.8838   19.1227 H   0  0  0  0  0  0  0  0  0  0  0  0
    4.9162    0.7429   21.1258 H   0  0  0  0  0  0  0  0  0  0  0  0
    8.4840   -1.1452   20.8070 N   0  0  0  0  0  0  0  0  0  0  0  0
    8.7651   -1.7224   21.9893 N   0  0  0  0  0  0  0  0  0  0  0  0
    9.9389   -2.5756   22.0459 C   0  0  0  0  0  0  0  0  0  0  0  0
   11.2035   -1.9352   22.6301 C   0  0  0  0  0  0  0  0  0  0  0  0
   12.0531   -1.0500   21.7425 C   0  0  0  0  0  0  0  0  0  0  0  0
   12.5867   -1.7243   20.7057 F   0  0  0  0  0  0  0  0  0  0  0  0
   13.0917   -0.5750   22.4640 F   0  0  0  0  0  0  0  0  0  0  0  0
   11.3963    0.0073   21.2459 F   0  0  0  0  0  0  0  0  0  0  0  0
   10.9722   -1.3364   23.5092 H   0  0  0  0  0  0  0  0  0  0  0  0
   11.8712   -2.7485   22.9270 H   0  0  0  0  0  0  0  0  0  0  0  0
    9.6831   -3.4679   22.6251 H   0  0  0  0  0  0  0  0  0  0  0  0
   10.0989   -2.8770   21.0112 H   0  0  0  0  0  0  0  0  0  0  0  0
    6.5551   -2.6457   24.8010 C   0  0  0  0  0  0  0  0  0  0  0  0
    6.2277   -2.7048   26.1767 C   0  0  0  0  0  0  0  0  0  0  0  0
    4.9810   -3.3368   26.4030 C   0  0  0  0  0  0  0  0  0  0  0  0
    4.3738   -3.7372   25.2527 C   0  0  0  0  0  0  0  0  0  0  0  0
    5.3157   -3.4159   23.8700 S   0  0  0  0  0  0  0  0  0  0  0  0
    3.3882   -4.1660   25.1436 H   0  0  0  0  0  0  0  0  0  0  0  0
    4.5595   -3.4820   27.4004 H   0  0  0  0  0  0  0  0  0  0  0  0
    9.3911   -0.7717   24.9053 H   0  0  0  0  0  0  0  0  0  0  0  0
    9.8221   -2.3656   26.6187 H   0  0  0  0  0  0  0  0  0  0  0  0
  1  2  2  0
  2  3  1  0
  3  4  1  0
  4  5  2  0
  5  6  1  0
  6  7  2  0
  7  8  1  0
  8  9  1  0
  9 10  2  0
 10 11  1  0
 11 12  2  0
 12 13  1  0
 13 14  2  0
 14 15  1  0
 12 16  1  0
 11 17  1  0
 10 18  1  0
  8 19  2  0
 19 20  1  0
 20 21  1  0
 21 22  1  0
 22 23  1  0
 23 24  1  0
 23 25  1  0
 23 26  1  0
 22 27  1  0
 22 28  1  0
 21 29  1  0
 21 30  1  0
  5 31  1  0
 31 32  2  0
 32 33  1  0
 33 34  2  0
 34 35  1  0
 34 36  1  0
 33 37  1  0
  4 38  1  0
  3 39  1  0
 32  2  1  0
 20  6  1  0
 35 31  1  0
 14  9  1  0
M  END
>  <cnnaffinity>  (1) 
-6.37398

>  <filename>  (1) 
[H]c1nc([H])c(-c2nc(-c3c([H])n([H])c(=O)c4c([H])c([H])sc34)n(C([H])([H])C([H])([H])C(F)(F)F)n2)c([H])c1[H]

$$$$
