
     RDKit          3D

 37 40  0  0  0  0  0  0  0  0999 V2000
    4.8830    1.7179   17.1942 H   0  0  0  0  0  0  0  0  0  0  0  0
    5.4084    1.3090   18.0556 C   0  0  0  0  0  0  0  0  0  0  0  0
    6.6397    0.8281   17.8365 N   0  0  0  0  0  0  0  0  0  0  0  0
    7.3054    0.3394   18.8909 C   0  0  0  0  0  0  0  0  0  0  0  0
    8.3127   -0.0009   18.6637 H   0  0  0  0  0  0  0  0  0  0  0  0
    6.7986    0.2557   20.2141 C   0  0  0  0  0  0  0  0  0  0  0  0
    7.6117   -0.3561   21.3423 C   0  0  0  0  0  0  0  0  0  0  0  0
    6.9704   -0.4774   22.7019 C   0  0  0  0  0  0  0  0  0  0  0  0
    6.6796    0.5455   23.4565 N   0  0  0  0  0  0  0  0  0  0  0  0
    6.0880    0.1912   24.6250 N   0  0  0  0  0  0  0  0  0  0  0  0
    5.9178   -1.0980   24.7384 C   0  0  0  0  0  0  0  0  0  0  0  0
    5.1743   -1.7692   25.8737 C   0  0  0  0  0  0  0  0  0  0  0  0
    4.9507   -2.9664   25.8778 O   0  0  0  0  0  0  0  0  0  0  0  0
    4.7679   -0.9167   26.8441 N   0  0  0  0  0  0  0  0  0  0  0  0
    5.0435    0.0513   26.7429 H   0  0  0  0  0  0  0  0  0  0  0  0
    3.7157   -1.2281   27.7945 C   0  0  0  0  0  0  0  0  0  0  0  0
    2.7241   -1.1871   27.3047 H   0  0  0  0  0  0  0  0  0  0  0  0
    3.8463   -2.2614   28.1335 H   0  0  0  0  0  0  0  0  0  0  0  0
    3.8010   -0.2481   28.9369 C   0  0  0  0  0  0  0  0  0  0  0  0
    4.8066   -0.1594   29.3561 H   0  0  0  0  0  0  0  0  0  0  0  0
    2.9712    1.0066   28.9093 C   0  0  0  0  0  0  0  0  0  0  0  0
    2.2887    1.1424   28.0714 H   0  0  0  0  0  0  0  0  0  0  0  0
    3.4142    1.9284   29.2776 H   0  0  0  0  0  0  0  0  0  0  0  0
    2.6556   -0.0843   29.8971 C   0  0  0  0  0  0  0  0  0  0  0  0
    1.7614   -0.6879   29.7428 H   0  0  0  0  0  0  0  0  0  0  0  0
    2.8922    0.0808   30.9460 H   0  0  0  0  0  0  0  0  0  0  0  0
    6.5346   -2.0033   23.4148 S   0  0  0  0  0  0  0  0  0  0  0  0
    9.1171   -0.0977   21.3940 C   0  0  0  0  0  0  0  0  0  0  0  0
    9.5527    0.0121   22.3860 H   0  0  0  0  0  0  0  0  0  0  0  0
    9.5432    0.5524   20.6336 H   0  0  0  0  0  0  0  0  0  0  0  0
    8.6242   -1.4380   20.9905 C   0  0  0  0  0  0  0  0  0  0  0  0
    8.7603   -2.2661   21.6832 H   0  0  0  0  0  0  0  0  0  0  0  0
    8.6959   -1.7168   19.9459 H   0  0  0  0  0  0  0  0  0  0  0  0
    5.5071    0.7756   20.4037 C   0  0  0  0  0  0  0  0  0  0  0  0
    5.0610    0.7941   21.3993 H   0  0  0  0  0  0  0  0  0  0  0  0
    4.8076    1.3040   19.3177 C   0  0  0  0  0  0  0  0  0  0  0  0
    3.8199    1.7335   19.4405 H   0  0  0  0  0  0  0  0  0  0  0  0
  1  2  1  0
  2  3  2  0
  3  4  1  0
  4  5  1  0
  4  6  2  0
  6  7  1  0
  7  8  1  0
  8  9  2  0
  9 10  1  0
 10 11  2  0
 11 12  1  0
 12 13  2  0
 12 14  1  0
 14 15  1  0
 14 16  1  0
 16 17  1  0
 16 18  1  0
 16 19  1  0
 19 20  1  0
 19 21  1  0
 21 22  1  0
 21 23  1  0
 21 24  1  0
 24 25  1  0
 24 26  1  0
 11 27  1  0
  7 28  1  0
 28 29  1  0
 28 30  1  0
 28 31  1  0
 31 32  1  0
 31 33  1  0
  6 34  1  0
 34 35  1  0
 34 36  2  0
 36 37  1  0
 36  2  1  0
 31  7  1  0
 27  8  1  0
 24 19  1  0
M  END
>  <cnnaffinity>  (1) 
-4.73495

>  <filename>  (1) 
[H]c1nc([H])c(C2(c3nnc(C(=O)N([H])C([H])([H])C4([H])C([H])([H])C4([H])[H])s3)C([H])([H])C2([H])[H])c([H])c1[H]

$$$$
