
     RDKit          3D

 26 28  0  0  0  0  0  0  0  0999 V2000
    4.9150    1.7785   17.0008 H   0  0  0  0  0  0  0  0  0  0  0  0
    5.4046    1.2900   17.8440 C   0  0  0  0  0  0  0  0  0  0  0  0
    6.5664    0.6707   17.5861 N   0  0  0  0  0  0  0  0  0  0  0  0
    7.1878    0.0543   18.6017 C   0  0  0  0  0  0  0  0  0  0  0  0
    8.1287   -0.4377   18.3644 H   0  0  0  0  0  0  0  0  0  0  0  0
    6.6904    0.0128   19.9185 C   0  0  0  0  0  0  0  0  0  0  0  0
    7.2757   -0.6955   20.9531 O   0  0  0  0  0  0  0  0  0  0  0  0
    8.6416   -0.7637   21.0943 C   0  0  0  0  0  0  0  0  0  0  0  0
    9.6663    0.0765   20.6215 C   0  0  0  0  0  0  0  0  0  0  0  0
    9.5636    0.9421   19.9879 H   0  0  0  0  0  0  0  0  0  0  0  0
   10.8540   -0.3151   21.0606 N   0  0  0  0  0  0  0  0  0  0  0  0
   10.5966   -1.3891   21.8047 N   0  0  0  0  0  0  0  0  0  0  0  0
   11.3711   -1.8589   22.2425 H   0  0  0  0  0  0  0  0  0  0  0  0
    9.2700   -1.7145   21.8843 C   0  0  0  0  0  0  0  0  0  0  0  0
    8.7535   -2.8173   22.6601 C   0  0  0  0  0  0  0  0  0  0  0  0
    7.0404   -3.1400   22.6890 S   0  0  0  0  0  0  0  0  0  0  0  0
    7.3009   -4.4788   23.7361 C   0  0  0  0  0  0  0  0  0  0  0  0
    5.9930   -5.4409   24.2964 Cl  0  0  0  0  0  0  0  0  0  0  0  0
    8.6115   -4.6796   24.0580 C   0  0  0  0  0  0  0  0  0  0  0  0
    8.9680   -5.4730   24.7111 H   0  0  0  0  0  0  0  0  0  0  0  0
    9.4476   -3.7158   23.4369 C   0  0  0  0  0  0  0  0  0  0  0  0
   10.5273   -3.6922   23.5614 H   0  0  0  0  0  0  0  0  0  0  0  0
    5.4622    0.6412   20.1745 C   0  0  0  0  0  0  0  0  0  0  0  0
    5.0300    0.6117   21.1739 H   0  0  0  0  0  0  0  0  0  0  0  0
    4.8214    1.3009   19.1164 C   0  0  0  0  0  0  0  0  0  0  0  0
    3.8858    1.8327   19.2682 H   0  0  0  0  0  0  0  0  0  0  0  0
  1  2  1  0
  2  3  2  0
  3  4  1  0
  4  5  1  0
  4  6  2  0
  6  7  1  0
  7  8  1  0
  8  9  1  0
  9 10  1  0
  9 11  2  0
 11 12  1  0
 12 13  1  0
 12 14  1  0
 14 15  1  0
 15 16  1  0
 16 17  1  0
 17 18  1  0
 17 19  2  0
 19 20  1  0
 19 21  1  0
 21 22  1  0
  6 23  1  0
 23 24  1  0
 23 25  2  0
 25 26  1  0
 25  2  1  0
 14  8  2  0
 21 15  2  0
M  END
>  <cnnaffinity>  (1) 
-5.57665

>  <filename>  (1) 
[H]c1nc([H])c(Oc2c([H])nn([H])c2-c2sc(Cl)c([H])c2[H])c([H])c1[H]

$$$$
