
     RDKit          3D

 31 33  0  0  0  0  0  0  0  0999 V2000
    5.1549   -1.2341   25.9560 F   0  0  0  0  0  0  0  0  0  0  0  0
    6.4417   -1.1316   25.6336 C   0  0  0  0  0  0  0  0  0  0  0  0
    7.1923   -0.3766   26.4024 N   0  0  0  0  0  0  0  0  0  0  0  0
    8.4921   -0.2805   26.0739 C   0  0  0  0  0  0  0  0  0  0  0  0
    9.0511   -0.9323   24.9855 C   0  0  0  0  0  0  0  0  0  0  0  0
    8.2466   -1.7368   24.1571 C   0  0  0  0  0  0  0  0  0  0  0  0
    8.8256   -2.4380   22.9546 C   0  0  0  0  0  0  0  0  0  0  0  0
    9.3709   -1.4945   21.9939 N   0  0  0  0  0  0  0  0  0  0  0  0
   10.6795   -1.0980   21.8695 C   0  0  0  0  0  0  0  0  0  0  0  0
   10.8069   -0.1636   20.9834 N   0  0  0  0  0  0  0  0  0  0  0  0
    9.5502    0.1006   20.4796 N   0  0  0  0  0  0  0  0  0  0  0  0
    8.7086   -0.6699   21.1174 C   0  0  0  0  0  0  0  0  0  0  0  0
    7.3486   -0.7150   20.9331 N   0  0  0  0  0  0  0  0  0  0  0  0
    6.6715   -0.0084   19.9064 C   0  0  0  0  0  0  0  0  0  0  0  0
    5.4506    0.6296   20.1645 C   0  0  0  0  0  0  0  0  0  0  0  0
    4.8139    1.3037   19.1134 C   0  0  0  0  0  0  0  0  0  0  0  0
    5.3930    1.2962   17.8403 C   0  0  0  0  0  0  0  0  0  0  0  0
    6.5552    0.6789   17.5691 N   0  0  0  0  0  0  0  0  0  0  0  0
    7.1761    0.0625   18.5805 C   0  0  0  0  0  0  0  0  0  0  0  0
    8.1304   -0.4187   18.3761 H   0  0  0  0  0  0  0  0  0  0  0  0
    4.9099    1.7855   16.9986 H   0  0  0  0  0  0  0  0  0  0  0  0
    3.8832    1.8363   19.2680 H   0  0  0  0  0  0  0  0  0  0  0  0
    5.0239    0.6194   21.1693 H   0  0  0  0  0  0  0  0  0  0  0  0
    6.7989   -1.0895   21.6945 H   0  0  0  0  0  0  0  0  0  0  0  0
   11.4900   -1.5178   22.4468 H   0  0  0  0  0  0  0  0  0  0  0  0
    8.0737   -3.0681   22.4750 H   0  0  0  0  0  0  0  0  0  0  0  0
    9.6344   -3.0940   23.2872 H   0  0  0  0  0  0  0  0  0  0  0  0
    6.9070   -1.8374   24.5036 C   0  0  0  0  0  0  0  0  0  0  0  0
    6.0571   -2.5860   23.7754 F   0  0  0  0  0  0  0  0  0  0  0  0
   10.1044   -0.8142   24.7724 H   0  0  0  0  0  0  0  0  0  0  0  0
    9.1062    0.3414   26.7148 H   0  0  0  0  0  0  0  0  0  0  0  0
  1  2  1  0
  2  3  2  0
  3  4  1  0
  4  5  2  0
  5  6  1  0
  6  7  1  0
  7  8  1  0
  8  9  1  0
  9 10  2  0
 10 11  1  0
 11 12  2  0
 12 13  1  0
 13 14  1  0
 14 15  2  0
 15 16  1  0
 16 17  2  0
 17 18  1  0
 18 19  2  0
 19 20  1  0
 17 21  1  0
 16 22  1  0
 15 23  1  0
 13 24  1  0
  9 25  1  0
  7 26  1  0
  7 27  1  0
  6 28  2  0
 28 29  1  0
  5 30  1  0
  4 31  1  0
 28  2  1  0
 12  8  1  0
 19 14  1  0
M  END
>  <cnnaffinity>  (1) 
-5.52568

>  <filename>  (1) 
[H]c1nc([H])c(N([H])c2nnc([H])n2C([H])([H])c2c([H])c([H])nc(F)c2F)c([H])c1[H]

$$$$
