
     RDKit          3D

 29 31  0  0  0  0  0  0  0  0999 V2000
    4.9119    1.7833   16.9969 H   0  0  0  0  0  0  0  0  0  0  0  0
    5.3972    1.2962   17.8396 C   0  0  0  0  0  0  0  0  0  0  0  0
    6.5623    0.6822   17.5746 N   0  0  0  0  0  0  0  0  0  0  0  0
    7.1736    0.0596   18.5917 C   0  0  0  0  0  0  0  0  0  0  0  0
    8.1204   -0.4299   18.3730 H   0  0  0  0  0  0  0  0  0  0  0  0
    6.6675   -0.0159   19.9146 C   0  0  0  0  0  0  0  0  0  0  0  0
    7.3218   -0.7465   20.9220 N   0  0  0  0  0  0  0  0  0  0  0  0
    6.7719   -1.0178   21.7280 H   0  0  0  0  0  0  0  0  0  0  0  0
    8.7110   -0.7917   21.0947 C   0  0  0  0  0  0  0  0  0  0  0  0
    9.7013    0.1265   20.6828 C   0  0  0  0  0  0  0  0  0  0  0  0
    9.5366    1.0275   20.1150 H   0  0  0  0  0  0  0  0  0  0  0  0
   10.9105   -0.2258   21.1026 N   0  0  0  0  0  0  0  0  0  0  0  0
   10.7158   -1.3672   21.7641 N   0  0  0  0  0  0  0  0  0  0  0  0
   11.4955   -1.8278   22.2128 H   0  0  0  0  0  0  0  0  0  0  0  0
    9.4109   -1.7648   21.7943 C   0  0  0  0  0  0  0  0  0  0  0  0
    8.9280   -2.9753   22.4318 C   0  0  0  0  0  0  0  0  0  0  0  0
    9.6536   -3.5729   23.4488 N   0  0  0  0  0  0  0  0  0  0  0  0
    9.0482   -4.6275   23.8899 C   0  0  0  0  0  0  0  0  0  0  0  0
    9.5445   -5.4668   25.0244 C   0  0  0  0  0  0  0  0  0  0  0  0
    9.2886   -6.5191   24.8923 H   0  0  0  0  0  0  0  0  0  0  0  0
   10.6273   -5.3651   25.1190 H   0  0  0  0  0  0  0  0  0  0  0  0
    9.0932   -5.1282   25.9635 H   0  0  0  0  0  0  0  0  0  0  0  0
    7.5627   -5.0089   23.0584 S   0  0  0  0  0  0  0  0  0  0  0  0
    7.7802   -3.6165   22.0812 C   0  0  0  0  0  0  0  0  0  0  0  0
    7.1187   -3.3407   21.2758 H   0  0  0  0  0  0  0  0  0  0  0  0
    5.4477    0.6326   20.1658 C   0  0  0  0  0  0  0  0  0  0  0  0
    5.0183    0.6220   21.1691 H   0  0  0  0  0  0  0  0  0  0  0  0
    4.8140    1.3050   19.1124 C   0  0  0  0  0  0  0  0  0  0  0  0
    3.8813    1.8379   19.2654 H   0  0  0  0  0  0  0  0  0  0  0  0
  1  2  1  0
  2  3  2  0
  3  4  1  0
  4  5  1  0
  4  6  2  0
  6  7  1  0
  7  8  1  0
  7  9  1  0
  9 10  1  0
 10 11  1  0
 10 12  2  0
 12 13  1  0
 13 14  1  0
 13 15  1  0
 15 16  1  0
 16 17  1  0
 17 18  2  0
 18 19  1  0
 19 20  1  0
 19 21  1  0
 19 22  1  0
 18 23  1  0
 23 24  1  0
 24 25  1  0
  6 26  1  0
 26 27  1  0
 26 28  2  0
 28 29  1  0
 28  2  1  0
 15  9  2  0
 24 16  2  0
M  END
>  <cnnaffinity>  (1) 
-5.8363

>  <filename>  (1) 
[H]c1nc([H])c(N([H])c2c([H])nn([H])c2-c2nc(C([H])([H])[H])sc2[H])c([H])c1[H]

$$$$
