
     RDKit          3D

 31 34  0  0  0  0  0  0  0  0999 V2000
    4.9700    1.7934   17.0263 H   0  0  0  0  0  0  0  0  0  0  0  0
    5.4424    1.2804   17.8610 C   0  0  0  0  0  0  0  0  0  0  0  0
    6.5922    0.6451   17.5867 N   0  0  0  0  0  0  0  0  0  0  0  0
    7.2075    0.0004   18.5861 C   0  0  0  0  0  0  0  0  0  0  0  0
    8.1500   -0.4939   18.3506 H   0  0  0  0  0  0  0  0  0  0  0  0
    6.7019   -0.0356   19.8967 C   0  0  0  0  0  0  0  0  0  0  0  0
    7.2817   -0.7435   20.9181 O   0  0  0  0  0  0  0  0  0  0  0  0
    8.6403   -0.7384   21.0689 C   0  0  0  0  0  0  0  0  0  0  0  0
    9.6660    0.1252   20.6393 C   0  0  0  0  0  0  0  0  0  0  0  0
    9.5935    0.9952   20.0115 H   0  0  0  0  0  0  0  0  0  0  0  0
   10.8464   -0.2821   21.0989 N   0  0  0  0  0  0  0  0  0  0  0  0
   10.5868   -1.3745   21.8052 N   0  0  0  0  0  0  0  0  0  0  0  0
   11.3241   -1.9015   22.2546 H   0  0  0  0  0  0  0  0  0  0  0  0
    9.2699   -1.6974   21.8280 C   0  0  0  0  0  0  0  0  0  0  0  0
    8.7408   -2.8049   22.5848 C   0  0  0  0  0  0  0  0  0  0  0  0
    9.4914   -3.5899   23.2892 N   0  0  0  0  0  0  0  0  0  0  0  0
    8.7105   -4.4814   23.9913 C   0  0  0  0  0  0  0  0  0  0  0  0
    9.1981   -5.4755   24.8618 C   0  0  0  0  0  0  0  0  0  0  0  0
   10.2746   -5.6004   24.9457 H   0  0  0  0  0  0  0  0  0  0  0  0
    8.2880   -6.2380   25.5875 C   0  0  0  0  0  0  0  0  0  0  0  0
    8.6507   -6.9934   26.2832 H   0  0  0  0  0  0  0  0  0  0  0  0
    6.8961   -6.0530   25.4164 C   0  0  0  0  0  0  0  0  0  0  0  0
    6.1980   -6.6181   26.0317 H   0  0  0  0  0  0  0  0  0  0  0  0
    6.4058   -5.1678   24.4584 C   0  0  0  0  0  0  0  0  0  0  0  0
    5.3442   -5.1051   24.2338 H   0  0  0  0  0  0  0  0  0  0  0  0
    7.3191   -4.3566   23.7701 C   0  0  0  0  0  0  0  0  0  0  0  0
    7.0150   -3.0961   22.6270 S   0  0  0  0  0  0  0  0  0  0  0  0
    5.4950    0.6120   20.1777 C   0  0  0  0  0  0  0  0  0  0  0  0
    5.1008    0.5856   21.1933 H   0  0  0  0  0  0  0  0  0  0  0  0
    4.8542    1.2843   19.1325 C   0  0  0  0  0  0  0  0  0  0  0  0
    3.9163    1.8094   19.2886 H   0  0  0  0  0  0  0  0  0  0  0  0
  1  2  1  0
  2  3  2  0
  3  4  1  0
  4  5  1  0
  4  6  2  0
  6  7  1  0
  7  8  1  0
  8  9  1  0
  9 10  1  0
  9 11  2  0
 11 12  1  0
 12 13  1  0
 12 14  1  0
 14 15  1  0
 15 16  2  0
 16 17  1  0
 17 18  2  0
 18 19  1  0
 18 20  1  0
 20 21  1  0
 20 22  2  0
 22 23  1  0
 22 24  1  0
 24 25  1  0
 24 26  2  0
 26 27  1  0
  6 28  1  0
 28 29  1  0
 28 30  2  0
 30 31  1  0
 30  2  1  0
 14  8  2  0
 27 15  1  0
 26 17  1  0
M  END
>  <cnnaffinity>  (1) 
-5.88034

>  <filename>  (1) 
[H]c1nc([H])c(Oc2c([H])nn([H])c2-c2nc3c([H])c([H])c([H])c([H])c3s2)c([H])c1[H]

$$$$
