
     RDKit          3D

 46 50  0  0  0  0  0  0  0  0999 V2000
    4.8684    1.3012   18.9945 C   0  0  0  0  0  0  0  0  0  0  0  0
    5.4342    1.2575   17.7166 C   0  0  0  0  0  0  0  0  0  0  0  0
    6.5704    0.6019   17.4330 N   0  0  0  0  0  0  0  0  0  0  0  0
    7.1848   -0.0242   18.4445 C   0  0  0  0  0  0  0  0  0  0  0  0
    6.7217   -0.0364   19.7713 C   0  0  0  0  0  0  0  0  0  0  0  0
    7.5109   -0.6874   20.9063 C   0  0  0  0  0  0  0  0  0  0  0  0
    8.3697    0.2722   21.6848 C   0  0  0  0  0  0  0  0  0  0  0  0
    9.6501    0.4417   21.4400 N   0  0  0  0  0  0  0  0  0  0  0  0
   10.0247    1.4017   22.3425 N   0  0  0  0  0  0  0  0  0  0  0  0
   11.3055    2.0454   22.2259 C   0  0  0  0  0  0  0  0  0  0  0  0
   11.4960    2.8155   21.0632 C   0  0  0  0  0  0  0  0  0  0  0  0
   12.4661    3.8095   20.9194 C   0  0  0  0  0  0  0  0  0  0  0  0
   13.5505    3.9606   21.9408 C   0  0  0  0  0  0  0  0  0  0  0  0
   14.5514    5.1693   21.2884 N   0  0  0  0  0  0  0  0  0  0  0  0
   14.1081    5.1567   22.5255 N   0  0  0  0  0  0  0  0  0  0  0  0
   13.6830    2.7073   22.9849 C   0  0  0  0  0  0  0  0  0  0  0  0
   13.4546    2.4760   22.8001 C   0  0  0  0  0  0  0  0  0  0  0  0
   12.2985    2.0249   23.2760 C   0  0  0  0  0  0  0  0  0  0  0  0
   12.2116    1.2840   24.0477 H   0  0  0  0  0  0  0  0  0  0  0  0
   13.8117    3.2438   24.0032 H   0  0  0  0  0  0  0  0  0  0  0  0
   15.4584    4.6949   21.2617 H   0  0  0  0  0  0  0  0  0  0  0  0
   12.4058    4.4795   20.0664 H   0  0  0  0  0  0  0  0  0  0  0  0
   10.7379    2.7407   20.2970 H   0  0  0  0  0  0  0  0  0  0  0  0
    8.8964    1.8106   23.0135 C   0  0  0  0  0  0  0  0  0  0  0  0
    8.8197    2.9781   23.9460 C   0  0  0  0  0  0  0  0  0  0  0  0
    8.8077    4.3547   23.2136 C   0  0  0  0  0  0  0  0  0  0  0  0
    8.9264    5.5418   24.1096 C   0  0  0  0  0  0  0  0  0  0  0  0
   10.0321    6.1931   24.3727 N   0  0  0  0  0  0  0  0  0  0  0  0
    9.6933    7.1662   25.2777 C   0  0  0  0  0  0  0  0  0  0  0  0
    8.3607    7.1080   25.5680 C   0  0  0  0  0  0  0  0  0  0  0  0
    7.8794    6.0576   24.8134 N   0  0  0  0  0  0  0  0  0  0  0  0
    6.9277    5.7388   24.7351 H   0  0  0  0  0  0  0  0  0  0  0  0
    7.7401    7.6960   26.2291 H   0  0  0  0  0  0  0  0  0  0  0  0
   10.4368    7.8512   25.6661 H   0  0  0  0  0  0  0  0  0  0  0  0
    7.8993    4.4435   22.6066 H   0  0  0  0  0  0  0  0  0  0  0  0
    9.6551    4.4031   22.5220 H   0  0  0  0  0  0  0  0  0  0  0  0
    7.9124    2.8487   24.5399 H   0  0  0  0  0  0  0  0  0  0  0  0
    9.6709    2.9113   24.6329 H   0  0  0  0  0  0  0  0  0  0  0  0
    7.8612    1.0827   22.6488 N   0  0  0  0  0  0  0  0  0  0  0  0
    6.8142   -1.1401   21.6207 H   0  0  0  0  0  0  0  0  0  0  0  0
    8.1587   -1.4834   20.5260 H   0  0  0  0  0  0  0  0  0  0  0  0
    5.5275    0.6481   20.0403 C   0  0  0  0  0  0  0  0  0  0  0  0
    5.1407    0.6803   21.0616 H   0  0  0  0  0  0  0  0  0  0  0  0
    8.1108   -0.5422   18.1928 H   0  0  0  0  0  0  0  0  0  0  0  0
    4.9581    1.7684   16.8804 H   0  0  0  0  0  0  0  0  0  0  0  0
    3.9482    1.8549   19.1544 H   0  0  0  0  0  0  0  0  0  0  0  0
  1  2  2  0
  2  3  1  0
  3  4  2  0
  4  5  1  0
  5  6  1  0
  6  7  1  0
  7  8  2  0
  8  9  1  0
  9 10  1  0
 10 11  2  0
 11 12  1  0
 12 13  2  0
 13 14  1  0
 14 15  1  0
 15 16  2  0
 16 17  1  0
 17 18  2  0
 18 19  1  0
 16 20  1  0
 14 21  1  0
 12 22  1  0
 11 23  1  0
  9 24  1  0
 24 25  1  0
 25 26  1  0
 26 27  1  0
 27 28  2  0
 28 29  1  0
 29 30  2  0
 30 31  1  0
 31 32  1  0
 30 33  1  0
 29 34  1  0
 26 35  1  0
 26 36  1  0
 25 37  1  0
 25 38  1  0
 24 39  2  0
  6 40  1  0
  6 41  1  0
  5 42  2  0
 42 43  1  0
  4 44  1  0
  2 45  1  0
  1 46  1  0
 42  1  1  0
 39  7  1  0
 18 10  1  0
 31 27  1  0
 17 13  1  0
M  END
>  <cnnaffinity>  (1) 
-6.46415

>  <filename>  (1) 
[H]c1nc([H])c(C([H])([H])c2nc(C([H])([H])C([H])([H])c3nc([H])c([H])n3[H])n(-c3c([H])c([H])c4c(c([H])nn4[H])c3[H])n2)c([H])c1[H]

$$$$
