
     RDKit          3D

 30 33  0  0  0  0  0  0  0  0999 V2000
    4.9301    1.7798   16.9977 H   0  0  0  0  0  0  0  0  0  0  0  0
    5.4038    1.2885   17.8457 C   0  0  0  0  0  0  0  0  0  0  0  0
    6.5654    0.6706   17.5878 N   0  0  0  0  0  0  0  0  0  0  0  0
    7.1704    0.0577   18.6103 C   0  0  0  0  0  0  0  0  0  0  0  0
    8.1174   -0.4269   18.3852 H   0  0  0  0  0  0  0  0  0  0  0  0
    6.6497    0.0124   19.9146 C   0  0  0  0  0  0  0  0  0  0  0  0
    7.4166   -0.7055   20.9367 C   0  0  0  0  0  0  0  0  0  0  0  0
    8.5390   -1.3334   20.8030 N   0  0  0  0  0  0  0  0  0  0  0  0
    8.8647   -1.8374   22.0540 N   0  0  0  0  0  0  0  0  0  0  0  0
    7.9217   -1.4740   22.8588 C   0  0  0  0  0  0  0  0  0  0  0  0
    7.7863   -1.8157   24.2991 C   0  0  0  0  0  0  0  0  0  0  0  0
    8.4380   -0.8706   25.1830 N   0  0  0  0  0  0  0  0  0  0  0  0
    9.7110   -1.0401   25.5749 N   0  0  0  0  0  0  0  0  0  0  0  0
    9.9703   -0.0097   26.3694 C   0  0  0  0  0  0  0  0  0  0  0  0
   10.9491    0.0767   26.8288 H   0  0  0  0  0  0  0  0  0  0  0  0
    8.8535    0.8527   26.4780 C   0  0  0  0  0  0  0  0  0  0  0  0
    8.7788    1.7701   27.0455 H   0  0  0  0  0  0  0  0  0  0  0  0
    7.8944    0.2597   25.6979 C   0  0  0  0  0  0  0  0  0  0  0  0
    6.8724    0.5282   25.4730 H   0  0  0  0  0  0  0  0  0  0  0  0
    6.5245   -2.5000   24.7978 C   0  0  0  0  0  0  0  0  0  0  0  0
    6.1866   -2.2463   25.7983 H   0  0  0  0  0  0  0  0  0  0  0  0
    5.7184   -2.6816   24.0925 H   0  0  0  0  0  0  0  0  0  0  0  0
    7.7886   -3.2876   24.6730 C   0  0  0  0  0  0  0  0  0  0  0  0
    7.8814   -4.0111   23.8660 H   0  0  0  0  0  0  0  0  0  0  0  0
    8.3297   -3.5646   25.5729 H   0  0  0  0  0  0  0  0  0  0  0  0
    6.9545   -0.7606   22.2136 O   0  0  0  0  0  0  0  0  0  0  0  0
    5.4270    0.6559   20.1734 C   0  0  0  0  0  0  0  0  0  0  0  0
    4.9881    0.6447   21.1747 H   0  0  0  0  0  0  0  0  0  0  0  0
    4.8024    1.3098   19.1099 C   0  0  0  0  0  0  0  0  0  0  0  0
    3.8718    1.8449   19.2509 H   0  0  0  0  0  0  0  0  0  0  0  0
  1  2  1  0
  2  3  2  0
  3  4  1  0
  4  5  1  0
  4  6  2  0
  6  7  1  0
  7  8  2  0
  8  9  1  0
  9 10  2  0
 10 11  1  0
 11 12  1  0
 12 13  1  0
 13 14  2  0
 14 15  1  0
 14 16  1  0
 16 17  1  0
 16 18  2  0
 18 19  1  0
 11 20  1  0
 20 21  1  0
 20 22  1  0
 20 23  1  0
 23 24  1  0
 23 25  1  0
 10 26  1  0
  6 27  1  0
 27 28  1  0
 27 29  2  0
 29 30  1  0
 29  2  1  0
 26  7  1  0
 23 11  1  0
 18 12  1  0
M  END
>  <cnnaffinity>  (1) 
-5.00994

>  <filename>  (1) 
[H]c1nc([H])c(-c2nnc(C3(n4nc([H])c([H])c4[H])C([H])([H])C3([H])[H])o2)c([H])c1[H]

$$$$
