
     RDKit          3D

 30 32  0  0  0  0  0  0  0  0999 V2000
   11.0563   -2.1771   21.5014 F   0  0  0  0  0  0  0  0  0  0  0  0
   10.0312   -2.5061   22.3057 C   0  0  0  0  0  0  0  0  0  0  0  0
   10.2088   -3.3586   23.3225 C   0  0  0  0  0  0  0  0  0  0  0  0
    9.1669   -3.8288   24.2765 C   0  0  0  0  0  0  0  0  0  0  0  0
    9.4320   -3.7538   25.6544 C   0  0  0  0  0  0  0  0  0  0  0  0
    8.4632   -4.0803   26.6073 C   0  0  0  0  0  0  0  0  0  0  0  0
    7.2189   -4.5764   26.1885 C   0  0  0  0  0  0  0  0  0  0  0  0
    6.9611   -4.7148   24.8178 C   0  0  0  0  0  0  0  0  0  0  0  0
    7.9230   -4.3357   23.8673 C   0  0  0  0  0  0  0  0  0  0  0  0
    7.6978   -4.3624   22.8047 H   0  0  0  0  0  0  0  0  0  0  0  0
    5.9987   -5.0968   24.4819 H   0  0  0  0  0  0  0  0  0  0  0  0
    6.4680   -4.8707   26.9246 H   0  0  0  0  0  0  0  0  0  0  0  0
    8.6876   -3.9659   27.6674 H   0  0  0  0  0  0  0  0  0  0  0  0
   10.4213   -3.4500   25.9669 H   0  0  0  0  0  0  0  0  0  0  0  0
   11.2343   -3.6828   23.5110 H   0  0  0  0  0  0  0  0  0  0  0  0
    8.7907   -1.7861   22.0196 C   0  0  0  0  0  0  0  0  0  0  0  0
    7.8687   -1.4878   22.8820 N   0  0  0  0  0  0  0  0  0  0  0  0
    6.9221   -0.7647   22.2034 N   0  0  0  0  0  0  0  0  0  0  0  0
    7.3313   -0.6749   20.9793 C   0  0  0  0  0  0  0  0  0  0  0  0
    6.6429    0.0105   19.8973 C   0  0  0  0  0  0  0  0  0  0  0  0
    5.4248    0.6625   20.1486 C   0  0  0  0  0  0  0  0  0  0  0  0
    4.7997    1.3128   19.0895 C   0  0  0  0  0  0  0  0  0  0  0  0
    5.4131    1.2860   17.8301 C   0  0  0  0  0  0  0  0  0  0  0  0
    6.5733    0.6600   17.5846 N   0  0  0  0  0  0  0  0  0  0  0  0
    7.1774    0.0447   18.6046 C   0  0  0  0  0  0  0  0  0  0  0  0
    8.1257   -0.4310   18.3678 H   0  0  0  0  0  0  0  0  0  0  0  0
    4.9599    1.7921   16.9785 H   0  0  0  0  0  0  0  0  0  0  0  0
    3.8664    1.8513   19.2175 H   0  0  0  0  0  0  0  0  0  0  0  0
    4.9980    0.6529   21.1541 H   0  0  0  0  0  0  0  0  0  0  0  0
    8.5156   -1.3044   20.7801 O   0  0  0  0  0  0  0  0  0  0  0  0
  1  2  1  0
  2  3  2  3
  3  4  1  0
  4  5  2  0
  5  6  1  0
  6  7  2  0
  7  8  1  0
  8  9  2  0
  9 10  1  0
  8 11  1  0
  7 12  1  0
  6 13  1  0
  5 14  1  0
  3 15  1  0
  2 16  1  0
 16 17  2  0
 17 18  1  0
 18 19  2  0
 19 20  1  0
 20 21  2  0
 21 22  1  0
 22 23  2  0
 23 24  1  0
 24 25  2  0
 25 26  1  0
 23 27  1  0
 22 28  1  0
 21 29  1  0
 19 30  1  0
  9  4  1  0
 30 16  1  0
 25 20  1  0
M  END
>  <cnnaffinity>  (1) 
-5.09488

>  <filename>  (1) 
[H]C(=C(F)c1nnc(-c2c([H])nc([H])c([H])c2[H])o1)c1c([H])c([H])c([H])c([H])c1[H]

$$$$
