
     RDKit          3D

 35 38  0  0  0  0  0  0  0  0999 V2000
    5.0395    1.8054   16.9567 H   0  0  0  0  0  0  0  0  0  0  0  0
    5.4609    1.3102   17.8273 C   0  0  0  0  0  0  0  0  0  0  0  0
    6.6178    0.6603   17.6293 N   0  0  0  0  0  0  0  0  0  0  0  0
    7.1529    0.0258   18.6760 C   0  0  0  0  0  0  0  0  0  0  0  0
    8.0922   -0.4968   18.4981 H   0  0  0  0  0  0  0  0  0  0  0  0
    6.5752    0.0221   19.9505 C   0  0  0  0  0  0  0  0  0  0  0  0
    7.2498   -0.8141   20.9700 C   0  0  0  0  0  0  0  0  0  0  0  0
    7.9477   -1.7618   20.6542 O   0  0  0  0  0  0  0  0  0  0  0  0
    6.9997   -0.4627   22.2668 N   0  0  0  0  0  0  0  0  0  0  0  0
    6.7481    0.5029   22.3856 H   0  0  0  0  0  0  0  0  0  0  0  0
    7.6930   -1.0891   23.3658 C   0  0  0  0  0  0  0  0  0  0  0  0
    9.1624   -0.7777   23.4702 C   0  0  0  0  0  0  0  0  0  0  0  0
   10.0562   -1.5128   22.6709 C   0  0  0  0  0  0  0  0  0  0  0  0
    9.6748   -2.2940   22.0235 H   0  0  0  0  0  0  0  0  0  0  0  0
   11.4282   -1.2254   22.6294 C   0  0  0  0  0  0  0  0  0  0  0  0
   12.0952   -1.7922   21.9896 H   0  0  0  0  0  0  0  0  0  0  0  0
   11.8680   -0.1753   23.4080 C   0  0  0  0  0  0  0  0  0  0  0  0
   10.9958    0.5427   24.2339 C   0  0  0  0  0  0  0  0  0  0  0  0
    9.6456    0.2741   24.2836 C   0  0  0  0  0  0  0  0  0  0  0  0
    8.9816    0.8770   24.8999 H   0  0  0  0  0  0  0  0  0  0  0  0
   11.6918    1.5467   24.8502 O   0  0  0  0  0  0  0  0  0  0  0  0
   13.0522    1.1991   24.6436 C   0  0  0  0  0  0  0  0  0  0  0  0
   13.4061    0.6532   25.5289 H   0  0  0  0  0  0  0  0  0  0  0  0
   13.6343    2.1007   24.4579 H   0  0  0  0  0  0  0  0  0  0  0  0
   13.1261    0.3468   23.5115 O   0  0  0  0  0  0  0  0  0  0  0  0
    7.2265   -2.4824   23.6989 C   0  0  0  0  0  0  0  0  0  0  0  0
    7.9811   -3.1895   24.0342 H   0  0  0  0  0  0  0  0  0  0  0  0
    6.4497   -2.8891   23.0595 H   0  0  0  0  0  0  0  0  0  0  0  0
    6.8575   -1.3311   24.5890 C   0  0  0  0  0  0  0  0  0  0  0  0
    5.8218   -1.0056   24.5541 H   0  0  0  0  0  0  0  0  0  0  0  0
    7.3366   -1.2445   25.5596 H   0  0  0  0  0  0  0  0  0  0  0  0
    5.3740    0.7174   20.1512 C   0  0  0  0  0  0  0  0  0  0  0  0
    4.8939    0.7377   21.1341 H   0  0  0  0  0  0  0  0  0  0  0  0
    4.7994    1.3639   19.0608 C   0  0  0  0  0  0  0  0  0  0  0  0
    3.8711    1.9174   19.1578 H   0  0  0  0  0  0  0  0  0  0  0  0
  1  2  1  0
  2  3  2  0
  3  4  1  0
  4  5  1  0
  4  6  2  0
  6  7  1  0
  7  8  2  0
  7  9  1  0
  9 10  1  0
  9 11  1  0
 11 12  1  0
 12 13  2  0
 13 14  1  0
 13 15  1  0
 15 16  1  0
 15 17  2  0
 17 18  1  0
 18 19  2  0
 19 20  1  0
 18 21  1  0
 21 22  1  0
 22 23  1  0
 22 24  1  0
 22 25  1  0
 11 26  1  0
 26 27  1  0
 26 28  1  0
 26 29  1  0
 29 30  1  0
 29 31  1  0
  6 32  1  0
 32 33  1  0
 32 34  2  0
 34 35  1  0
 34  2  1  0
 29 11  1  0
 19 12  1  0
 25 17  1  0
M  END
>  <cnnaffinity>  (1) 
-5.2129

>  <filename>  (1) 
[H]c1nc([H])c(C(=O)N([H])C2(c3c([H])c([H])c4c(c3[H])OC([H])([H])O4)C([H])([H])C2([H])[H])c([H])c1[H]

$$$$
