
     RDKit          3D

 47 51  0  0  0  0  0  0  0  0999 V2000
    4.8065    1.3194   19.0046 C   0  0  0  0  0  0  0  0  0  0  0  0
    5.4160    1.2978   17.7468 C   0  0  0  0  0  0  0  0  0  0  0  0
    6.5517    0.6315   17.4914 N   0  0  0  0  0  0  0  0  0  0  0  0
    7.1275   -0.0159   18.5123 C   0  0  0  0  0  0  0  0  0  0  0  0
    6.6230   -0.0418   19.8247 C   0  0  0  0  0  0  0  0  0  0  0  0
    7.3895   -0.6805   20.9808 C   0  0  0  0  0  0  0  0  0  0  0  0
    8.2454    0.3012   21.7279 C   0  0  0  0  0  0  0  0  0  0  0  0
    7.7561    1.0990   22.6598 N   0  0  0  0  0  0  0  0  0  0  0  0
    8.8241    1.8640   22.9998 N   0  0  0  0  0  0  0  0  0  0  0  0
    8.7641    2.8260   24.1068 C   0  0  0  0  0  0  0  0  0  0  0  0
    7.8650    4.0104   23.7098 C   0  0  0  0  0  0  0  0  0  0  0  0
    7.8436    5.0937   24.7876 C   0  0  0  0  0  0  0  0  0  0  0  0
    7.1715    4.4870   26.3577 S   0  0  0  0  0  0  0  0  0  0  0  0
    8.3527    3.1330   26.5924 C   0  0  0  0  0  0  0  0  0  0  0  0
    8.3710    2.1372   25.4304 C   0  0  0  0  0  0  0  0  0  0  0  0
    9.1080    1.3496   25.6495 H   0  0  0  0  0  0  0  0  0  0  0  0
    7.3913    1.6577   25.3086 H   0  0  0  0  0  0  0  0  0  0  0  0
    8.0804    2.6407   27.5304 H   0  0  0  0  0  0  0  0  0  0  0  0
    9.3441    3.5804   26.7259 H   0  0  0  0  0  0  0  0  0  0  0  0
    8.8591    5.4824   24.9511 H   0  0  0  0  0  0  0  0  0  0  0  0
    7.2117    5.9387   24.4990 H   0  0  0  0  0  0  0  0  0  0  0  0
    6.8562    3.6322   23.5038 H   0  0  0  0  0  0  0  0  0  0  0  0
    8.2521    4.4505   22.7780 H   0  0  0  0  0  0  0  0  0  0  0  0
    9.7827    3.2003   24.2515 H   0  0  0  0  0  0  0  0  0  0  0  0
    9.8867    1.5057   22.2437 C   0  0  0  0  0  0  0  0  0  0  0  0
   11.1923    2.1518   22.3589 C   0  0  0  0  0  0  0  0  0  0  0  0
   11.3906    3.5366   22.4253 C   0  0  0  0  0  0  0  0  0  0  0  0
   12.6650    4.1029   22.6492 C   0  0  0  0  0  0  0  0  0  0  0  0
   13.7851    3.3040   22.7562 C   0  0  0  0  0  0  0  0  0  0  0  0
   13.6217    1.8969   22.6313 C   0  0  0  0  0  0  0  0  0  0  0  0
   12.3380    1.3337   22.4577 C   0  0  0  0  0  0  0  0  0  0  0  0
   12.5122   -0.0108   22.3679 N   0  0  0  0  0  0  0  0  0  0  0  0
   13.8191   -0.3585   22.3720 N   0  0  0  0  0  0  0  0  0  0  0  0
   14.4876    0.7671   22.5169 C   0  0  0  0  0  0  0  0  0  0  0  0
   15.5559    0.7947   22.4048 H   0  0  0  0  0  0  0  0  0  0  0  0
   11.7702   -0.6850   22.1912 H   0  0  0  0  0  0  0  0  0  0  0  0
   14.7610    3.7612   22.8605 H   0  0  0  0  0  0  0  0  0  0  0  0
   12.7676    5.1820   22.7407 H   0  0  0  0  0  0  0  0  0  0  0  0
   10.5643    4.2195   22.2552 H   0  0  0  0  0  0  0  0  0  0  0  0
    9.5648    0.4769   21.4677 N   0  0  0  0  0  0  0  0  0  0  0  0
    6.6847   -1.1198   21.6940 H   0  0  0  0  0  0  0  0  0  0  0  0
    8.0426   -1.4879   20.6349 H   0  0  0  0  0  0  0  0  0  0  0  0
    5.4186    0.6366   20.0608 C   0  0  0  0  0  0  0  0  0  0  0  0
    4.9696    0.6264   21.0565 H   0  0  0  0  0  0  0  0  0  0  0  0
    8.0468   -0.5505   18.2706 H   0  0  0  0  0  0  0  0  0  0  0  0
    4.9769    1.8327   16.9041 H   0  0  0  0  0  0  0  0  0  0  0  0
    3.8822    1.8709   19.1393 H   0  0  0  0  0  0  0  0  0  0  0  0
  1  2  2  0
  2  3  1  0
  3  4  2  0
  4  5  1  0
  5  6  1  0
  6  7  1  0
  7  8  2  0
  8  9  1  0
  9 10  1  0
 10 11  1  0
 11 12  1  0
 12 13  1  0
 13 14  1  0
 14 15  1  0
 15 16  1  0
 15 17  1  0
 14 18  1  0
 14 19  1  0
 12 20  1  0
 12 21  1  0
 11 22  1  0
 11 23  1  0
 10 24  1  0
  9 25  1  0
 25 26  1  0
 26 27  2  0
 27 28  1  0
 28 29  2  0
 29 30  1  0
 30 31  2  0
 31 32  1  0
 32 33  1  0
 33 34  2  0
 34 35  1  0
 32 36  1  0
 29 37  1  0
 28 38  1  0
 27 39  1  0
 25 40  2  0
  6 41  1  0
  6 42  1  0
  5 43  2  0
 43 44  1  0
  4 45  1  0
  2 46  1  0
  1 47  1  0
 43  1  1  0
 40  7  1  0
 15 10  1  0
 31 26  1  0
 34 30  1  0
M  END
>  <cnnaffinity>  (1) 
-6.44509

>  <filename>  (1) 
[H]c1nc([H])c(C([H])([H])c2nc(-c3c([H])c([H])c([H])c4c([H])nn([H])c34)n(C3([H])C([H])([H])C([H])([H])SC([H])([H])C3([H])[H])n2)c([H])c1[H]

$$$$
