
     RDKit          3D

 36 39  0  0  0  0  0  0  0  0999 V2000
    4.9421    1.7717   17.0231 H   0  0  0  0  0  0  0  0  0  0  0  0
    5.4199    1.2723   17.8622 C   0  0  0  0  0  0  0  0  0  0  0  0
    6.5842    0.6555   17.6026 N   0  0  0  0  0  0  0  0  0  0  0  0
    7.1969    0.0359   18.6199 C   0  0  0  0  0  0  0  0  0  0  0  0
    8.1450   -0.4397   18.3715 H   0  0  0  0  0  0  0  0  0  0  0  0
    6.6988   -0.0296   19.9582 C   0  0  0  0  0  0  0  0  0  0  0  0
    7.3672   -0.6865   20.9682 N   0  0  0  0  0  0  0  0  0  0  0  0
    7.0539   -0.8804   22.3693 C   0  0  0  0  0  0  0  0  0  0  0  0
    6.1399   -1.4495   22.5695 H   0  0  0  0  0  0  0  0  0  0  0  0
    7.0107    0.0399   22.9658 H   0  0  0  0  0  0  0  0  0  0  0  0
    8.3657   -1.7055   22.4957 C   0  0  0  0  0  0  0  0  0  0  0  0
    9.1155   -1.2589   23.1565 H   0  0  0  0  0  0  0  0  0  0  0  0
    8.2128   -3.1827   22.8542 C   0  0  0  0  0  0  0  0  0  0  0  0
    8.6349   -4.0387   22.1037 O   0  0  0  0  0  0  0  0  0  0  0  0
    7.5333   -3.5503   24.1595 C   0  0  0  0  0  0  0  0  0  0  0  0
    7.3138   -2.5979   25.2030 C   0  0  0  0  0  0  0  0  0  0  0  0
    7.6370   -1.5637   25.0962 H   0  0  0  0  0  0  0  0  0  0  0  0
    6.6796   -2.9533   26.3854 C   0  0  0  0  0  0  0  0  0  0  0  0
    6.5139   -2.2226   27.1703 H   0  0  0  0  0  0  0  0  0  0  0  0
    6.2455   -4.2813   26.5710 C   0  0  0  0  0  0  0  0  0  0  0  0
    5.5822   -4.9862   27.6328 C   0  0  0  0  0  0  0  0  0  0  0  0
    5.2660   -4.5578   28.5756 H   0  0  0  0  0  0  0  0  0  0  0  0
    5.4349   -6.2785   27.2253 C   0  0  0  0  0  0  0  0  0  0  0  0
    4.9898   -7.1249   27.7364 H   0  0  0  0  0  0  0  0  0  0  0  0
    5.9664   -6.4271   25.9616 N   0  0  0  0  0  0  0  0  0  0  0  0
    6.0073   -7.2801   25.4318 H   0  0  0  0  0  0  0  0  0  0  0  0
    6.4730   -5.2224   25.5360 C   0  0  0  0  0  0  0  0  0  0  0  0
    7.1149   -4.8790   24.3384 C   0  0  0  0  0  0  0  0  0  0  0  0
    7.2883   -5.6171   23.5612 H   0  0  0  0  0  0  0  0  0  0  0  0
    8.6254   -1.4156   20.9969 C   0  0  0  0  0  0  0  0  0  0  0  0
    8.6597   -2.3115   20.3799 H   0  0  0  0  0  0  0  0  0  0  0  0
    9.5156   -0.8182   20.7609 H   0  0  0  0  0  0  0  0  0  0  0  0
    5.4686    0.6249   20.1929 C   0  0  0  0  0  0  0  0  0  0  0  0
    5.0257    0.6203   21.1882 H   0  0  0  0  0  0  0  0  0  0  0  0
    4.8367    1.2823   19.1329 C   0  0  0  0  0  0  0  0  0  0  0  0
    3.9036    1.8146   19.2812 H   0  0  0  0  0  0  0  0  0  0  0  0
  1  2  1  0
  2  3  2  0
  3  4  1  0
  4  5  1  0
  4  6  2  0
  6  7  1  0
  7  8  1  0
  8  9  1  0
  8 10  1  0
  8 11  1  0
 11 12  1  0
 11 13  1  0
 13 14  2  0
 13 15  1  0
 15 16  2  0
 16 17  1  0
 16 18  1  0
 18 19  1  0
 18 20  2  0
 20 21  1  0
 21 22  1  0
 21 23  2  0
 23 24  1  0
 23 25  1  0
 25 26  1  0
 25 27  1  0
 27 28  2  0
 28 29  1  0
 11 30  1  0
 30 31  1  0
 30 32  1  0
  6 33  1  0
 33 34  1  0
 33 35  2  0
 35 36  1  0
 35  2  1  0
 30  7  1  0
 28 15  1  0
 27 20  1  0
M  END
>  <cnnaffinity>  (1) 
-5.17729

>  <filename>  (1) 
[H]c1nc([H])c(N2C([H])([H])C([H])(C(=O)c3c([H])c([H])c4c([H])c([H])n([H])c4c3[H])C2([H])[H])c([H])c1[H]

$$$$
