
     RDKit          3D

 39 42  0  0  0  0  0  0  0  0999 V2000
    6.9714   -4.0367   24.8365 O   0  0  0  0  0  0  0  0  0  0  0  0
    6.4676   -2.9731   24.5205 C   0  0  0  0  0  0  0  0  0  0  0  0
    7.3351   -1.7493   24.4554 C   0  0  0  0  0  0  0  0  0  0  0  0
    7.6675   -1.5454   23.0306 C   0  0  0  0  0  0  0  0  0  0  0  0
    8.8128   -2.0203   22.4601 C   0  0  0  0  0  0  0  0  0  0  0  0
    8.8936   -1.5351   20.7816 S   0  0  0  0  0  0  0  0  0  0  0  0
    7.3412   -0.7192   20.9949 C   0  0  0  0  0  0  0  0  0  0  0  0
    6.6362   -0.0002   19.9405 C   0  0  0  0  0  0  0  0  0  0  0  0
    5.4231    0.6572   20.1765 C   0  0  0  0  0  0  0  0  0  0  0  0
    4.8188    1.2982   19.1034 C   0  0  0  0  0  0  0  0  0  0  0  0
    5.4245    1.2788   17.8469 C   0  0  0  0  0  0  0  0  0  0  0  0
    6.5876    0.6455   17.6213 N   0  0  0  0  0  0  0  0  0  0  0  0
    7.1808    0.0276   18.6543 C   0  0  0  0  0  0  0  0  0  0  0  0
    8.1295   -0.4694   18.4762 H   0  0  0  0  0  0  0  0  0  0  0  0
    4.9379    1.8023   17.0308 H   0  0  0  0  0  0  0  0  0  0  0  0
    3.8850    1.8295   19.2243 H   0  0  0  0  0  0  0  0  0  0  0  0
    4.9577    0.6790   21.1632 H   0  0  0  0  0  0  0  0  0  0  0  0
    6.8334   -0.8269   22.2016 N   0  0  0  0  0  0  0  0  0  0  0  0
    9.5593   -2.6059   22.9902 H   0  0  0  0  0  0  0  0  0  0  0  0
    8.2399   -1.9082   25.0455 H   0  0  0  0  0  0  0  0  0  0  0  0
    6.8142   -0.8723   24.8391 H   0  0  0  0  0  0  0  0  0  0  0  0
    5.1180   -2.8689   24.3126 N   0  0  0  0  0  0  0  0  0  0  0  0
    4.2965   -3.9571   24.2196 C   0  0  0  0  0  0  0  0  0  0  0  0
    4.8893   -5.0925   23.8480 N   0  0  0  0  0  0  0  0  0  0  0  0
    4.1275   -6.1700   23.6402 C   0  0  0  0  0  0  0  0  0  0  0  0
    2.7435   -6.1370   23.7972 C   0  0  0  0  0  0  0  0  0  0  0  0
    2.1111   -4.9683   24.1900 C   0  0  0  0  0  0  0  0  0  0  0  0
    0.7212   -4.9243   24.3486 C   0  0  0  0  0  0  0  0  0  0  0  0
    0.0957   -3.7430   24.7439 C   0  0  0  0  0  0  0  0  0  0  0  0
   -1.8030   -3.6853   24.9809 Br  0  0  0  0  0  0  0  0  0  0  0  0
    0.8757   -2.6061   24.9714 C   0  0  0  0  0  0  0  0  0  0  0  0
    2.2697   -2.6431   24.8072 C   0  0  0  0  0  0  0  0  0  0  0  0
    2.9039   -3.8351   24.4144 C   0  0  0  0  0  0  0  0  0  0  0  0
    2.8598   -1.7477   24.9805 H   0  0  0  0  0  0  0  0  0  0  0  0
    0.3807   -1.6949   25.2834 H   0  0  0  0  0  0  0  0  0  0  0  0
    0.1252   -5.8134   24.1676 H   0  0  0  0  0  0  0  0  0  0  0  0
    2.1670   -7.0318   23.6179 H   0  0  0  0  0  0  0  0  0  0  0  0
    4.5925   -7.1030   23.3324 H   0  0  0  0  0  0  0  0  0  0  0  0
    4.7204   -1.9636   24.1170 H   0  0  0  0  0  0  0  0  0  0  0  0
  1  2  2  0
  2  3  1  0
  3  4  1  0
  4  5  2  0
  5  6  1  0
  6  7  1  0
  7  8  1  0
  8  9  2  0
  9 10  1  0
 10 11  2  0
 11 12  1  0
 12 13  2  0
 13 14  1  0
 11 15  1  0
 10 16  1  0
  9 17  1  0
  7 18  2  0
  5 19  1  0
  3 20  1  0
  3 21  1  0
  2 22  1  0
 22 23  1  0
 23 24  2  0
 24 25  1  0
 25 26  2  0
 26 27  1  0
 27 28  2  0
 28 29  1  0
 29 30  1  0
 29 31  2  0
 31 32  1  0
 32 33  2  0
 32 34  1  0
 31 35  1  0
 28 36  1  0
 26 37  1  0
 25 38  1  0
 22 39  1  0
 18  4  1  0
 33 23  1  0
 13  8  1  0
 33 27  1  0
M  END
>  <cnnaffinity>  (1) 
-5.9741

>  <filename>  (1) 
[H]c1nc([H])c(-c2nc(C([H])([H])C(=O)N([H])c3nc([H])c([H])c4c([H])c(Br)c([H])c([H])c34)c([H])s2)c([H])c1[H]

$$$$
