
     RDKit          3D

 45 48  0  0  0  0  0  0  0  0999 V2000
   14.5522    0.6005   22.6820 C   0  0  0  0  0  0  0  0  0  0  0  0
   13.4158    1.5870   22.7566 C   0  0  0  0  0  0  0  0  0  0  0  0
   13.6415    2.9395   22.8117 C   0  0  0  0  0  0  0  0  0  0  0  0
   12.5817    3.8142   22.9173 N   0  0  0  0  0  0  0  0  0  0  0  0
   12.5793    5.1860   23.0255 C   0  0  0  0  0  0  0  0  0  0  0  0
   11.2534    5.5393   23.0761 C   0  0  0  0  0  0  0  0  0  0  0  0
   10.4446    4.4399   23.0011 N   0  0  0  0  0  0  0  0  0  0  0  0
   11.2585    3.3993   22.9048 C   0  0  0  0  0  0  0  0  0  0  0  0
   11.0003    1.9899   22.7422 C   0  0  0  0  0  0  0  0  0  0  0  0
    9.6516    1.4888   22.5224 C   0  0  0  0  0  0  0  0  0  0  0  0
    9.3436    0.5353   21.6481 N   0  0  0  0  0  0  0  0  0  0  0  0
    8.0158    0.3691   21.8287 C   0  0  0  0  0  0  0  0  0  0  0  0
    7.2194   -0.6014   21.0181 C   0  0  0  0  0  0  0  0  0  0  0  0
    6.5594    0.0350   19.8035 C   0  0  0  0  0  0  0  0  0  0  0  0
    5.3866    0.7832   19.9623 C   0  0  0  0  0  0  0  0  0  0  0  0
    4.8253    1.4003   18.8438 C   0  0  0  0  0  0  0  0  0  0  0  0
    5.4632    1.2593   17.6090 C   0  0  0  0  0  0  0  0  0  0  0  0
    6.5941    0.5574   17.4342 N   0  0  0  0  0  0  0  0  0  0  0  0
    7.1226   -0.0280   18.5164 C   0  0  0  0  0  0  0  0  0  0  0  0
    8.0467   -0.5865   18.3529 H   0  0  0  0  0  0  0  0  0  0  0  0
    5.0473    1.7295   16.7204 H   0  0  0  0  0  0  0  0  0  0  0  0
    3.9207    1.9940   18.9185 H   0  0  0  0  0  0  0  0  0  0  0  0
    4.9319    0.8759   20.9508 H   0  0  0  0  0  0  0  0  0  0  0  0
    7.9078   -1.3966   20.7198 H   0  0  0  0  0  0  0  0  0  0  0  0
    6.4692   -1.0482   21.6811 H   0  0  0  0  0  0  0  0  0  0  0  0
    7.4862    1.1203   22.7751 N   0  0  0  0  0  0  0  0  0  0  0  0
    8.5429    1.8366   23.2214 N   0  0  0  0  0  0  0  0  0  0  0  0
    8.3881    2.6998   24.3837 C   0  0  0  0  0  0  0  0  0  0  0  0
    7.6292    3.9914   24.0428 C   0  0  0  0  0  0  0  0  0  0  0  0
    7.7561    5.0213   25.1342 C   0  0  0  0  0  0  0  0  0  0  0  0
    9.0422    5.3098   25.4120 F   0  0  0  0  0  0  0  0  0  0  0  0
    7.2003    4.5948   26.2857 F   0  0  0  0  0  0  0  0  0  0  0  0
    7.1535    6.1749   24.7950 F   0  0  0  0  0  0  0  0  0  0  0  0
    8.0403    4.4446   23.1393 H   0  0  0  0  0  0  0  0  0  0  0  0
    6.5644    3.7848   23.8956 H   0  0  0  0  0  0  0  0  0  0  0  0
    7.8392    2.1322   25.1426 H   0  0  0  0  0  0  0  0  0  0  0  0
    9.3887    2.9208   24.7637 H   0  0  0  0  0  0  0  0  0  0  0  0
   12.0722    1.1185   22.7032 C   0  0  0  0  0  0  0  0  0  0  0  0
   11.8730    0.0494   22.5976 H   0  0  0  0  0  0  0  0  0  0  0  0
   10.8381    6.5318   23.1931 H   0  0  0  0  0  0  0  0  0  0  0  0
   13.4999    5.7352   23.1147 H   0  0  0  0  0  0  0  0  0  0  0  0
   14.6133    3.4079   22.7328 H   0  0  0  0  0  0  0  0  0  0  0  0
   14.7562    0.1453   23.6597 H   0  0  0  0  0  0  0  0  0  0  0  0
   14.2981   -0.2154   21.9981 H   0  0  0  0  0  0  0  0  0  0  0  0
   15.4671    1.0803   22.3162 H   0  0  0  0  0  0  0  0  0  0  0  0
  1  2  1  0
  2  3  2  0
  3  4  1  0
  4  5  1  0
  5  6  2  0
  6  7  1  0
  7  8  2  0
  8  9  1  0
  9 10  1  0
 10 11  2  0
 11 12  1  0
 12 13  1  0
 13 14  1  0
 14 15  2  0
 15 16  1  0
 16 17  2  0
 17 18  1  0
 18 19  2  0
 19 20  1  0
 17 21  1  0
 16 22  1  0
 15 23  1  0
 13 24  1  0
 13 25  1  0
 12 26  2  0
 26 27  1  0
 27 28  1  0
 28 29  1  0
 29 30  1  0
 30 31  1  0
 30 32  1  0
 30 33  1  0
 29 34  1  0
 29 35  1  0
 28 36  1  0
 28 37  1  0
  9 38  2  0
 38 39  1  0
  6 40  1  0
  5 41  1  0
  3 42  1  0
  1 43  1  0
  1 44  1  0
  1 45  1  0
 38  2  1  0
  8  4  1  0
 27 10  1  0
 19 14  1  0
M  END
>  <cnnaffinity>  (1) 
-6.40317

>  <filename>  (1) 
[H]c1nc([H])c(C([H])([H])c2nc(-c3c([H])c(C([H])([H])[H])c([H])n4c([H])c([H])nc34)n(C([H])([H])C([H])([H])C(F)(F)F)n2)c([H])c1[H]

$$$$
