
     RDKit          3D

 40 43  0  0  0  0  0  0  0  0999 V2000
   11.2296   -0.1249   23.7990 F   0  0  0  0  0  0  0  0  0  0  0  0
   11.5121   -0.1764   22.4761 C   0  0  0  0  0  0  0  0  0  0  0  0
   10.7829    0.7739   21.8787 F   0  0  0  0  0  0  0  0  0  0  0  0
   12.8056    0.1733   22.3439 F   0  0  0  0  0  0  0  0  0  0  0  0
   11.2972   -1.5570   21.9021 C   0  0  0  0  0  0  0  0  0  0  0  0
   10.0327   -2.2913   22.3343 C   0  0  0  0  0  0  0  0  0  0  0  0
    8.7809   -1.6007   22.0820 N   0  0  0  0  0  0  0  0  0  0  0  0
    8.4835   -1.1888   20.8311 N   0  0  0  0  0  0  0  0  0  0  0  0
    7.2856   -0.6507   20.9741 C   0  0  0  0  0  0  0  0  0  0  0  0
    6.5814    0.0308   19.8886 C   0  0  0  0  0  0  0  0  0  0  0  0
    5.3572    0.6953   20.0743 C   0  0  0  0  0  0  0  0  0  0  0  0
    4.7917    1.3438   18.9790 C   0  0  0  0  0  0  0  0  0  0  0  0
    5.4572    1.2956   17.7493 C   0  0  0  0  0  0  0  0  0  0  0  0
    6.6139    0.6421   17.5593 N   0  0  0  0  0  0  0  0  0  0  0  0
    7.1601    0.0303   18.6130 C   0  0  0  0  0  0  0  0  0  0  0  0
    8.1005   -0.4948   18.4339 H   0  0  0  0  0  0  0  0  0  0  0  0
    5.0461    1.8036   16.8792 H   0  0  0  0  0  0  0  0  0  0  0  0
    3.8594    1.8926   19.0642 H   0  0  0  0  0  0  0  0  0  0  0  0
    4.8693    0.6938   21.0512 H   0  0  0  0  0  0  0  0  0  0  0  0
    6.7776   -0.7501   22.2269 N   0  0  0  0  0  0  0  0  0  0  0  0
    7.7292   -1.3544   22.9040 C   0  0  0  0  0  0  0  0  0  0  0  0
    7.7740   -1.7230   24.3673 C   0  0  0  0  0  0  0  0  0  0  0  0
    6.3934   -1.7806   25.0981 C   0  0  0  0  0  0  0  0  0  0  0  0
    6.5420   -0.8038   26.2102 C   0  0  0  0  0  0  0  0  0  0  0  0
    5.7773   -0.3367   27.1655 N   0  0  0  0  0  0  0  0  0  0  0  0
    6.5938    0.5422   27.8469 C   0  0  0  0  0  0  0  0  0  0  0  0
    7.8433    0.5969   27.2867 C   0  0  0  0  0  0  0  0  0  0  0  0
    7.7920   -0.2827   26.2339 N   0  0  0  0  0  0  0  0  0  0  0  0
    8.6912   -0.7579   25.2070 C   0  0  0  0  0  0  0  0  0  0  0  0
    9.1025    0.0835   24.6404 H   0  0  0  0  0  0  0  0  0  0  0  0
    9.5355   -1.3013   25.6481 H   0  0  0  0  0  0  0  0  0  0  0  0
    8.7235    1.1721   27.5208 H   0  0  0  0  0  0  0  0  0  0  0  0
    6.2319    1.0817   28.7107 H   0  0  0  0  0  0  0  0  0  0  0  0
    6.2014   -2.7809   25.4954 H   0  0  0  0  0  0  0  0  0  0  0  0
    5.5545   -1.5258   24.4545 H   0  0  0  0  0  0  0  0  0  0  0  0
    8.2025   -2.7274   24.4190 H   0  0  0  0  0  0  0  0  0  0  0  0
   10.1036   -2.5257   23.3946 H   0  0  0  0  0  0  0  0  0  0  0  0
    9.9629   -3.2230   21.7908 H   0  0  0  0  0  0  0  0  0  0  0  0
   12.1500   -2.1615   22.2288 H   0  0  0  0  0  0  0  0  0  0  0  0
   11.3217   -1.4633   20.8177 H   0  0  0  0  0  0  0  0  0  0  0  0
  1  2  1  0
  2  3  1  0
  2  4  1  0
  2  5  1  0
  5  6  1  0
  6  7  1  0
  7  8  1  0
  8  9  2  0
  9 10  1  0
 10 11  2  0
 11 12  1  0
 12 13  2  0
 13 14  1  0
 14 15  2  0
 15 16  1  0
 13 17  1  0
 12 18  1  0
 11 19  1  0
  9 20  1  0
 20 21  2  0
 21 22  1  0
 22 23  1  0
 23 24  1  0
 24 25  2  0
 25 26  1  0
 26 27  2  0
 27 28  1  0
 28 29  1  0
 29 30  1  0
 29 31  1  0
 27 32  1  0
 26 33  1  0
 23 34  1  0
 23 35  1  0
 22 36  1  0
  6 37  1  0
  6 38  1  0
  5 39  1  0
  5 40  1  0
 21  7  1  0
 29 22  1  0
 15 10  1  0
 28 24  1  0
M  END
>  <cnnaffinity>  (1) 
-6.31685

>  <filename>  (1) 
[H]c1nc([H])c(-c2nc(C3([H])C([H])([H])c4nc([H])c([H])n4C3([H])[H])n(C([H])([H])C([H])([H])C(F)(F)F)n2)c([H])c1[H]

$$$$
