
     RDKit          3D

 37 39  0  0  0  0  0  0  0  0999 V2000
    4.9132    1.8142   16.9849 H   0  0  0  0  0  0  0  0  0  0  0  0
    5.3820    1.3008   17.8200 C   0  0  0  0  0  0  0  0  0  0  0  0
    6.5390    0.6774   17.5476 N   0  0  0  0  0  0  0  0  0  0  0  0
    7.1516    0.0635   18.5677 C   0  0  0  0  0  0  0  0  0  0  0  0
    8.1079   -0.4106   18.3531 H   0  0  0  0  0  0  0  0  0  0  0  0
    6.6442   -0.0033   19.8863 C   0  0  0  0  0  0  0  0  0  0  0  0
    7.3498   -0.7269   20.9771 C   0  0  0  0  0  0  0  0  0  0  0  0
    6.6835   -1.6564   21.7541 C   0  0  0  0  0  0  0  0  0  0  0  0
    5.6338   -1.8651   21.5662 H   0  0  0  0  0  0  0  0  0  0  0  0
    7.3381   -2.3849   22.7844 C   0  0  0  0  0  0  0  0  0  0  0  0
    6.6638   -3.4058   23.5271 N   0  0  0  0  0  0  0  0  0  0  0  0
    6.6449   -3.3369   24.5335 H   0  0  0  0  0  0  0  0  0  0  0  0
    5.7878   -4.3208   23.0571 C   0  0  0  0  0  0  0  0  0  0  0  0
    5.5199   -4.7256   21.4745 S   0  0  0  0  0  0  0  0  0  0  0  0
    5.0458   -4.9455   24.0303 N   0  0  0  0  0  0  0  0  0  0  0  0
    4.3269   -5.4769   23.5634 H   0  0  0  0  0  0  0  0  0  0  0  0
    5.4560   -5.4309   25.3023 C   0  0  0  0  0  0  0  0  0  0  0  0
    6.7981   -5.6997   25.6084 C   0  0  0  0  0  0  0  0  0  0  0  0
    7.5458   -5.6226   24.8273 H   0  0  0  0  0  0  0  0  0  0  0  0
    7.1524   -6.1185   26.8979 C   0  0  0  0  0  0  0  0  0  0  0  0
    8.1989   -6.2989   27.1411 H   0  0  0  0  0  0  0  0  0  0  0  0
    6.1715   -6.2881   27.8816 C   0  0  0  0  0  0  0  0  0  0  0  0
    6.4510   -6.5829   28.8917 H   0  0  0  0  0  0  0  0  0  0  0  0
    4.8251   -6.0745   27.5571 C   0  0  0  0  0  0  0  0  0  0  0  0
    4.0542   -6.2150   28.3142 H   0  0  0  0  0  0  0  0  0  0  0  0
    4.4682   -5.6669   26.2673 C   0  0  0  0  0  0  0  0  0  0  0  0
    3.4284   -5.5188   25.9958 H   0  0  0  0  0  0  0  0  0  0  0  0
    8.6528   -2.1183   23.0560 C   0  0  0  0  0  0  0  0  0  0  0  0
    9.1863   -2.6414   23.8408 H   0  0  0  0  0  0  0  0  0  0  0  0
    9.3108   -1.1817   22.3027 N   0  0  0  0  0  0  0  0  0  0  0  0
   10.2771   -0.8910   22.3920 H   0  0  0  0  0  0  0  0  0  0  0  0
    8.7759   -0.4400   21.2542 C   0  0  0  0  0  0  0  0  0  0  0  0
    9.5375    0.3453   20.7039 O   0  0  0  0  0  0  0  0  0  0  0  0
    5.4203    0.6425   20.1307 C   0  0  0  0  0  0  0  0  0  0  0  0
    5.0013    0.6294   21.1390 H   0  0  0  0  0  0  0  0  0  0  0  0
    4.7834    1.3164   19.0853 C   0  0  0  0  0  0  0  0  0  0  0  0
    3.8551    1.8608   19.2401 H   0  0  0  0  0  0  0  0  0  0  0  0
  1  2  1  0
  2  3  2  0
  3  4  1  0
  4  5  1  0
  4  6  2  0
  6  7  1  0
  7  8  2  0
  8  9  1  0
  8 10  1  0
 10 11  1  0
 11 12  1  0
 11 13  1  0
 13 14  2  0
 13 15  1  0
 15 16  1  0
 15 17  1  0
 17 18  2  0
 18 19  1  0
 18 20  1  0
 20 21  1  0
 20 22  2  0
 22 23  1  0
 22 24  1  0
 24 25  1  0
 24 26  2  0
 26 27  1  0
 10 28  2  0
 28 29  1  0
 28 30  1  0
 30 31  1  0
 30 32  1  0
 32 33  2  0
  6 34  1  0
 34 35  1  0
 34 36  2  0
 36 37  1  0
 36  2  1  0
 32  7  1  0
 26 17  1  0
M  END
>  <cnnaffinity>  (1) 
-5.61084

>  <filename>  (1) 
[H]c1nc([H])c(-c2c([H])c(N([H])C(=S)N([H])c3c([H])c([H])c([H])c([H])c3[H])c([H])n([H])c2=O)c([H])c1[H]

$$$$
