
     RDKit          3D

 30 31  0  0  0  0  0  0  0  0999 V2000
    4.8877    1.7943   17.0129 H   0  0  0  0  0  0  0  0  0  0  0  0
    5.4003    1.2954   17.8282 C   0  0  0  0  0  0  0  0  0  0  0  0
    6.5671    0.6769   17.5663 N   0  0  0  0  0  0  0  0  0  0  0  0
    7.1805    0.0571   18.5868 C   0  0  0  0  0  0  0  0  0  0  0  0
    8.1286   -0.4371   18.3960 H   0  0  0  0  0  0  0  0  0  0  0  0
    6.6613    0.0104   19.8909 C   0  0  0  0  0  0  0  0  0  0  0  0
    7.4148   -0.7117   20.9769 C   0  0  2  0  0  0  0  0  0  0  0  0
    8.2892   -1.2153   20.5500 H   0  0  0  0  0  0  0  0  0  0  0  0
    6.2387   -2.0838   21.8096 Br  0  0  0  0  0  0  0  0  0  0  0  0
    7.9053    0.2923   22.0147 C   0  0  0  0  0  0  0  0  0  0  0  0
    8.4837    1.0822   21.5212 H   0  0  0  0  0  0  0  0  0  0  0  0
    7.0557    0.7669   22.5146 H   0  0  0  0  0  0  0  0  0  0  0  0
    8.7138   -0.3886   22.9753 O   0  0  0  0  0  0  0  0  0  0  0  0
    9.3268    0.5070   23.9049 C   0  0  0  0  0  0  0  0  0  0  0  0
    9.5463   -0.0323   24.8313 H   0  0  0  0  0  0  0  0  0  0  0  0
    8.6536    1.3359   24.1452 H   0  0  0  0  0  0  0  0  0  0  0  0
   10.6062    1.0390   23.3234 C   0  0  0  0  0  0  0  0  0  0  0  0
   11.7136    0.2129   23.1691 C   0  0  0  0  0  0  0  0  0  0  0  0
   11.6473   -0.8259   23.4497 H   0  0  0  0  0  0  0  0  0  0  0  0
   12.8999    0.7141   22.6393 C   0  0  0  0  0  0  0  0  0  0  0  0
   13.7484    0.0479   22.5268 H   0  0  0  0  0  0  0  0  0  0  0  0
   13.0200    1.9935   22.2637 N   0  0  0  0  0  0  0  0  0  0  0  0
   11.9562    2.8008   22.3779 C   0  0  0  0  0  0  0  0  0  0  0  0
   12.0470    3.8316   22.0571 H   0  0  0  0  0  0  0  0  0  0  0  0
   10.7411    2.3611   22.9050 C   0  0  0  0  0  0  0  0  0  0  0  0
    9.9149    3.0556   22.9822 H   0  0  0  0  0  0  0  0  0  0  0  0
    5.4468    0.6487   20.1612 C   0  0  0  0  0  0  0  0  0  0  0  0
    5.0107    0.6331   21.1627 H   0  0  0  0  0  0  0  0  0  0  0  0
    4.8179    1.3062   19.1040 C   0  0  0  0  0  0  0  0  0  0  0  0
    3.8809    1.8330   19.2606 H   0  0  0  0  0  0  0  0  0  0  0  0
  1  2  1  0
  2  3  2  0
  3  4  1  0
  4  5  1  0
  4  6  2  0
  6  7  1  0
  7  8  1  6
  7  9  1  0
  7 10  1  0
 10 11  1  0
 10 12  1  0
 10 13  1  0
 13 14  1  0
 14 15  1  0
 14 16  1  0
 14 17  1  0
 17 18  2  0
 18 19  1  0
 18 20  1  0
 20 21  1  0
 20 22  2  0
 22 23  1  0
 23 24  1  0
 23 25  2  0
 25 26  1  0
  6 27  1  0
 27 28  1  0
 27 29  2  0
 29 30  1  0
 29  2  1  0
 25 17  1  0
M  END
>  <cnnaffinity>  (1) 
-4.59439

>  <filename>  (1) 
[H]c1nc([H])c([C@]([H])(Br)C([H])([H])OC([H])([H])c2c([H])c([H])nc([H])c2[H])c([H])c1[H]

$$$$
