
     RDKit          3D

 48 50  0  0  0  0  0  0  0  0999 V2000
    8.3143    0.6968   26.3700 C   0  0  0  0  0  0  0  0  0  0  0  0
    7.9435    2.0585   25.9826 N   0  0  0  0  0  0  0  0  0  0  0  0
    6.5111    2.3226   25.7872 C   0  0  0  0  0  0  0  0  0  0  0  0
    6.0807    2.3325   24.3049 C   0  0  0  0  0  0  0  0  0  0  0  0
    6.6648    1.0897   23.6385 C   0  0  0  0  0  0  0  0  0  0  0  0
    6.3541   -0.0221   24.0474 O   0  0  0  0  0  0  0  0  0  0  0  0
    7.5696    1.2720   22.6461 N   0  0  0  0  0  0  0  0  0  0  0  0
    7.8739    2.5590   22.0154 C   0  0  0  0  0  0  0  0  0  0  0  0
    8.7964    2.1819   20.8693 C   0  0  0  0  0  0  0  0  0  0  0  0
    9.3846    0.8218   21.2486 C   0  0  0  0  0  0  0  0  0  0  0  0
    8.2402    0.1359   21.9925 C   0  0  0  0  0  0  0  0  0  0  0  0
    7.3139   -0.7078   21.0789 C   0  0  0  0  0  0  0  0  0  0  0  0
    6.6230   -0.0114   19.9171 C   0  0  0  0  0  0  0  0  0  0  0  0
    5.4082    0.6617   20.1236 C   0  0  0  0  0  0  0  0  0  0  0  0
    4.8031    1.3293   19.0537 C   0  0  0  0  0  0  0  0  0  0  0  0
    5.4332    1.3101   17.8069 C   0  0  0  0  0  0  0  0  0  0  0  0
    6.5786    0.6521   17.5706 N   0  0  0  0  0  0  0  0  0  0  0  0
    7.1379    0.0044   18.6060 C   0  0  0  0  0  0  0  0  0  0  0  0
    8.0605   -0.5328   18.3750 H   0  0  0  0  0  0  0  0  0  0  0  0
    4.9926    1.8391   16.9598 H   0  0  0  0  0  0  0  0  0  0  0  0
    3.8623    1.8579   19.1751 H   0  0  0  0  0  0  0  0  0  0  0  0
    4.9440    0.6464   21.1128 H   0  0  0  0  0  0  0  0  0  0  0  0
    7.9301   -1.5269   20.6881 H   0  0  0  0  0  0  0  0  0  0  0  0
    6.5476   -1.1496   21.7241 H   0  0  0  0  0  0  0  0  0  0  0  0
    8.6145   -0.5505   22.7659 H   0  0  0  0  0  0  0  0  0  0  0  0
    9.7257    0.2462   20.3823 H   0  0  0  0  0  0  0  0  0  0  0  0
   10.2392    0.9429   21.9292 H   0  0  0  0  0  0  0  0  0  0  0  0
    9.5896    2.9096   20.7335 H   0  0  0  0  0  0  0  0  0  0  0  0
    8.1981    2.1128   19.9568 H   0  0  0  0  0  0  0  0  0  0  0  0
    6.9539    3.0384   21.6573 H   0  0  0  0  0  0  0  0  0  0  0  0
    8.3643    3.2465   22.7115 H   0  0  0  0  0  0  0  0  0  0  0  0
    6.4134    3.2558   23.8252 H   0  0  0  0  0  0  0  0  0  0  0  0
    4.9917    2.2895   24.2158 H   0  0  0  0  0  0  0  0  0  0  0  0
    6.2186    3.2650   26.2792 H   0  0  0  0  0  0  0  0  0  0  0  0
    5.9525    1.5287   26.2978 H   0  0  0  0  0  0  0  0  0  0  0  0
    8.8911    2.8781   25.3799 C   0  0  0  0  0  0  0  0  0  0  0  0
    8.7298    4.2730   25.3759 C   0  0  0  0  0  0  0  0  0  0  0  0
    9.7070    5.0694   24.7936 C   0  0  0  0  0  0  0  0  0  0  0  0
   10.8092    4.5936   24.1998 N   0  0  0  0  0  0  0  0  0  0  0  0
   10.9483    3.2600   24.1738 C   0  0  0  0  0  0  0  0  0  0  0  0
   10.0490    2.3716   24.7549 C   0  0  0  0  0  0  0  0  0  0  0  0
   10.2263    1.3060   24.7053 H   0  0  0  0  0  0  0  0  0  0  0  0
   11.8424    2.8932   23.6648 H   0  0  0  0  0  0  0  0  0  0  0  0
    9.6058    6.1544   24.8053 H   0  0  0  0  0  0  0  0  0  0  0  0
    7.8580    4.7268   25.8301 H   0  0  0  0  0  0  0  0  0  0  0  0
    7.6091    0.3472   27.1342 H   0  0  0  0  0  0  0  0  0  0  0  0
    8.2996   -0.0097   25.5278 H   0  0  0  0  0  0  0  0  0  0  0  0
    9.3167    0.6921   26.8167 H   0  0  0  0  0  0  0  0  0  0  0  0
  1  2  1  0
  2  3  1  0
  3  4  1  0
  4  5  1  0
  5  6  2  0
  5  7  1  0
  7  8  1  0
  8  9  1  0
  9 10  1  0
 10 11  1  0
 11 12  1  0
 12 13  1  0
 13 14  2  0
 14 15  1  0
 15 16  2  0
 16 17  1  0
 17 18  2  0
 18 19  1  0
 16 20  1  0
 15 21  1  0
 14 22  1  0
 12 23  1  0
 12 24  1  0
 11 25  1  0
 10 26  1  0
 10 27  1  0
  9 28  1  0
  9 29  1  0
  8 30  1  0
  8 31  1  0
  4 32  1  0
  4 33  1  0
  3 34  1  0
  3 35  1  0
  2 36  1  0
 36 37  2  0
 37 38  1  0
 38 39  2  0
 39 40  1  0
 40 41  2  0
 41 42  1  0
 40 43  1  0
 38 44  1  0
 37 45  1  0
  1 46  1  0
  1 47  1  0
  1 48  1  0
 11  7  1  0
 18 13  1  0
 41 36  1  0
M  END
>  <cnnaffinity>  (1) 
-5.19993

>  <filename>  (1) 
[H]c1nc([H])c(C([H])([H])C2([H])N(C(=O)C([H])([H])C([H])([H])N(c3c([H])c([H])nc([H])c3[H])C([H])([H])[H])C([H])([H])C([H])([H])C2([H])[H])c([H])c1[H]

$$$$
