
     RDKit          3D

 27 29  0  0  0  0  0  0  0  0999 V2000
    5.4501    1.8817   16.9434 H   0  0  0  0  0  0  0  0  0  0  0  0
    5.8059    1.2899   17.7858 C   0  0  0  0  0  0  0  0  0  0  0  0
    6.9432    0.6047   17.5880 N   0  0  0  0  0  0  0  0  0  0  0  0
    7.4177   -0.1162   18.6093 C   0  0  0  0  0  0  0  0  0  0  0  0
    8.3481   -0.6545   18.4330 H   0  0  0  0  0  0  0  0  0  0  0  0
    6.7832   -0.2250   19.8644 C   0  0  0  0  0  0  0  0  0  0  0  0
    7.2981   -1.1488   20.9021 C   0  0  0  0  0  0  0  0  0  0  0  0
    6.5811   -2.0357   21.6175 C   0  0  0  0  0  0  0  0  0  0  0  0
    5.5033   -2.0740   21.6740 H   0  0  0  0  0  0  0  0  0  0  0  0
    7.5615   -3.1759   22.5051 S   0  0  0  0  0  0  0  0  0  0  0  0
    8.9899   -2.3061   22.0257 C   0  0  0  0  0  0  0  0  0  0  0  0
   10.2703   -2.2424   22.3542 N   0  0  0  0  0  0  0  0  0  0  0  0
   10.6564   -1.1338   21.6719 C   0  0  0  0  0  0  0  0  0  0  0  0
   12.0021   -0.5797   21.8123 C   0  0  0  0  0  0  0  0  0  0  0  0
   12.2623   -0.5264   22.8682 H   0  0  0  0  0  0  0  0  0  0  0  0
   12.0075    0.4056   21.3616 H   0  0  0  0  0  0  0  0  0  0  0  0
   12.9236   -1.5254   21.1019 C   0  0  0  0  0  0  0  0  0  0  0  0
   13.0834   -1.5803   19.9070 O   0  0  0  0  0  0  0  0  0  0  0  0
   13.6044   -2.3609   21.9332 N   0  0  0  0  0  0  0  0  0  0  0  0
   13.0271   -2.7080   22.6859 H   0  0  0  0  0  0  0  0  0  0  0  0
   13.9795   -3.1081   21.3613 H   0  0  0  0  0  0  0  0  0  0  0  0
    9.7454   -0.5399   20.9328 N   0  0  0  0  0  0  0  0  0  0  0  0
    8.6588   -1.3234   21.1600 N   0  0  0  0  0  0  0  0  0  0  0  0
    5.5910    0.4992   20.0485 C   0  0  0  0  0  0  0  0  0  0  0  0
    5.0689    0.4726   21.0067 H   0  0  0  0  0  0  0  0  0  0  0  0
    5.1013    1.2691   18.9930 C   0  0  0  0  0  0  0  0  0  0  0  0
    4.1976    1.8607   19.0914 H   0  0  0  0  0  0  0  0  0  0  0  0
  1  2  1  0
  2  3  2  0
  3  4  1  0
  4  5  1  0
  4  6  2  0
  6  7  1  0
  7  8  2  0
  8  9  1  0
  8 10  1  0
 10 11  1  0
 11 12  2  0
 12 13  1  0
 13 14  1  0
 14 15  1  0
 14 16  1  0
 14 17  1  0
 17 18  2  0
 17 19  1  0
 19 20  1  0
 19 21  1  0
 13 22  2  0
 22 23  1  0
  6 24  1  0
 24 25  1  0
 24 26  2  0
 26 27  1  0
 26  2  1  0
 23  7  1  0
 23 11  1  0
M  END
>  <cnnaffinity>  (1) 
-5.67264

>  <filename>  (1) 
[H]c1nc([H])c(-c2c([H])sc3nc(C([H])([H])C(=O)N([H])[H])nn23)c([H])c1[H]

$$$$
