
     RDKit          3D

 41 43  0  0  0  0  0  0  0  0999 V2000
    5.2981   -0.0587   27.0313 C   0  0  0  0  0  0  0  0  0  0  0  0
    5.8006   -1.3666   26.4229 C   0  0  0  0  0  0  0  0  0  0  0  0
    6.2612   -1.1052   25.0628 N   0  0  0  0  0  0  0  0  0  0  0  0
    7.3882   -1.6753   24.5368 C   0  0  0  0  0  0  0  0  0  0  0  0
    8.1693   -2.3112   25.2321 O   0  0  0  0  0  0  0  0  0  0  0  0
    7.6972   -1.4600   23.0520 C   0  0  0  0  0  0  0  0  0  0  0  0
    8.8277   -1.9583   22.4536 C   0  0  0  0  0  0  0  0  0  0  0  0
    8.8792   -1.5329   20.8011 S   0  0  0  0  0  0  0  0  0  0  0  0
    7.3569   -0.6934   20.9926 C   0  0  0  0  0  0  0  0  0  0  0  0
    6.6577    0.0081   19.9116 C   0  0  0  0  0  0  0  0  0  0  0  0
    5.4339    0.6552   20.1618 C   0  0  0  0  0  0  0  0  0  0  0  0
    4.8041    1.3109   19.1092 C   0  0  0  0  0  0  0  0  0  0  0  0
    5.4061    1.2879   17.8458 C   0  0  0  0  0  0  0  0  0  0  0  0
    6.5713    0.6716   17.5930 N   0  0  0  0  0  0  0  0  0  0  0  0
    7.1791    0.0559   18.6114 C   0  0  0  0  0  0  0  0  0  0  0  0
    8.1244   -0.4286   18.3725 H   0  0  0  0  0  0  0  0  0  0  0  0
    4.9205    1.7736   17.0019 H   0  0  0  0  0  0  0  0  0  0  0  0
    3.8721    1.8447   19.2609 H   0  0  0  0  0  0  0  0  0  0  0  0
    5.0074    0.6303   21.1674 H   0  0  0  0  0  0  0  0  0  0  0  0
    6.8793   -0.7451   22.1990 N   0  0  0  0  0  0  0  0  0  0  0  0
    9.6181   -2.5434   22.9057 H   0  0  0  0  0  0  0  0  0  0  0  0
    5.6138   -0.6934   24.4069 H   0  0  0  0  0  0  0  0  0  0  0  0
    4.7353   -2.4856   26.4881 C   0  0  0  0  0  0  0  0  0  0  0  0
    4.3579   -2.8936   27.9228 C   0  0  0  0  0  0  0  0  0  0  0  0
    3.3621   -4.0594   27.9184 C   0  0  0  0  0  0  0  0  0  0  0  0
    3.8438   -5.1906   27.0052 C   0  0  0  0  0  0  0  0  0  0  0  0
    4.2408   -4.6377   25.6395 C   0  0  0  0  0  0  0  0  0  0  0  0
    5.2218   -3.6280   25.7823 O   0  0  0  0  0  0  0  0  0  0  0  0
    4.6753   -5.4159   25.0030 H   0  0  0  0  0  0  0  0  0  0  0  0
    3.3579   -4.2314   25.1121 H   0  0  0  0  0  0  0  0  0  0  0  0
    4.7244   -5.6726   27.4474 H   0  0  0  0  0  0  0  0  0  0  0  0
    3.0692   -5.9547   26.8853 H   0  0  0  0  0  0  0  0  0  0  0  0
    2.3873   -3.6966   27.5644 H   0  0  0  0  0  0  0  0  0  0  0  0
    3.2127   -4.4305   28.9383 H   0  0  0  0  0  0  0  0  0  0  0  0
    5.2743   -3.1924   28.4495 H   0  0  0  0  0  0  0  0  0  0  0  0
    3.9289   -2.0416   28.4616 H   0  0  0  0  0  0  0  0  0  0  0  0
    3.8312   -2.1151   25.9693 H   0  0  0  0  0  0  0  0  0  0  0  0
    6.6758   -1.7084   26.9866 H   0  0  0  0  0  0  0  0  0  0  0  0
    5.1502   -0.1460   28.1121 H   0  0  0  0  0  0  0  0  0  0  0  0
    6.0251    0.7405   26.8661 H   0  0  0  0  0  0  0  0  0  0  0  0
    4.3414    0.2491   26.5905 H   0  0  0  0  0  0  0  0  0  0  0  0
  1  2  1  0
  2  3  1  0
  3  4  1  0
  4  5  2  0
  4  6  1  0
  6  7  2  0
  7  8  1  0
  8  9  1  0
  9 10  1  0
 10 11  2  0
 11 12  1  0
 12 13  2  0
 13 14  1  0
 14 15  2  0
 15 16  1  0
 13 17  1  0
 12 18  1  0
 11 19  1  0
  9 20  2  0
  7 21  1  0
  3 22  1  0
  2 23  1  0
 23 24  1  0
 24 25  1  0
 25 26  1  0
 26 27  1  0
 27 28  1  0
 27 29  1  0
 27 30  1  0
 26 31  1  0
 26 32  1  0
 25 33  1  0
 25 34  1  0
 24 35  1  0
 24 36  1  0
 23 37  1  0
  2 38  1  0
  1 39  1  0
  1 40  1  0
  1 41  1  0
 20  6  1  0
 28 23  1  0
 15 10  1  0
M  END
>  <cnnaffinity>  (1) 
-5.10882

>  <filename>  (1) 
[H]c1nc([H])c(-c2nc(C(=O)N([H])C([H])(C([H])([H])[H])C3([H])OC([H])([H])C([H])([H])C([H])([H])C3([H])[H])c([H])s2)c([H])c1[H]

$$$$
