
     RDKit          3D

 50 55  0  0  0  0  0  0  0  0999 V2000
    4.8216    1.2558   18.8421 C   0  0  0  0  0  0  0  0  0  0  0  0
    5.3914    1.2563   17.5657 C   0  0  0  0  0  0  0  0  0  0  0  0
    6.4812    0.5457   17.2375 N   0  0  0  0  0  0  0  0  0  0  0  0
    7.0639   -0.1612   18.2128 C   0  0  0  0  0  0  0  0  0  0  0  0
    6.6153   -0.1900   19.5420 C   0  0  0  0  0  0  0  0  0  0  0  0
    7.4629   -0.7763   20.6579 C   0  0  0  0  0  0  0  0  0  0  0  0
    8.3137    0.2820   21.3000 C   0  0  0  0  0  0  0  0  0  0  0  0
    9.5585    0.5453   20.9405 N   0  0  0  0  0  0  0  0  0  0  0  0
    9.8869    1.5888   21.7531 N   0  0  0  0  0  0  0  0  0  0  0  0
   11.2216    2.0523   21.8808 C   0  0  0  0  0  0  0  0  0  0  0  0
   11.5003    3.4030   22.0936 C   0  0  0  0  0  0  0  0  0  0  0  0
   12.7876    3.8450   22.4270 C   0  0  0  0  0  0  0  0  0  0  0  0
   13.8158    2.9381   22.6397 C   0  0  0  0  0  0  0  0  0  0  0  0
   13.5542    1.5567   22.4902 C   0  0  0  0  0  0  0  0  0  0  0  0
   12.2901    1.1454   22.0345 C   0  0  0  0  0  0  0  0  0  0  0  0
   12.3865   -0.2218   21.9037 N   0  0  0  0  0  0  0  0  0  0  0  0
   13.6675   -0.5571   22.2312 C   0  0  0  0  0  0  0  0  0  0  0  0
   14.3959    0.4582   22.6051 N   0  0  0  0  0  0  0  0  0  0  0  0
   14.0412   -1.5701   22.1436 H   0  0  0  0  0  0  0  0  0  0  0  0
   11.6694   -0.7966   21.4863 H   0  0  0  0  0  0  0  0  0  0  0  0
   14.8205    3.3009   22.7617 H   0  0  0  0  0  0  0  0  0  0  0  0
   12.9874    4.9116   22.5082 H   0  0  0  0  0  0  0  0  0  0  0  0
   10.7135    4.1284   22.0650 H   0  0  0  0  0  0  0  0  0  0  0  0
    8.8339    1.8673   22.5903 C   0  0  0  0  0  0  0  0  0  0  0  0
    9.0157    2.7403   23.8196 C   0  0  0  0  0  0  0  0  0  0  0  0
   10.2363    2.2722   24.6428 C   0  0  0  0  0  0  0  0  0  0  0  0
   10.0672    1.4149   25.8567 C   0  0  0  0  0  0  0  0  0  0  0  0
   10.6794    0.8256   24.6431 C   0  0  0  0  0  0  0  0  0  0  0  0
   11.7467    0.6169   24.6822 H   0  0  0  0  0  0  0  0  0  0  0  0
   10.0885    0.1350   24.0510 H   0  0  0  0  0  0  0  0  0  0  0  0
    9.0770    1.1086   26.1861 H   0  0  0  0  0  0  0  0  0  0  0  0
   10.7835    1.5747   26.6364 H   0  0  0  0  0  0  0  0  0  0  0  0
   11.0552    2.9941   24.6348 H   0  0  0  0  0  0  0  0  0  0  0  0
    7.6907    2.9512   24.6412 C   0  0  0  0  0  0  0  0  0  0  0  0
    7.6090    4.4339   24.2132 C   0  0  0  0  0  0  0  0  0  0  0  0
    8.9850    4.2899   23.5514 C   0  0  0  0  0  0  0  0  0  0  0  0
    8.9825    4.5706   22.4951 H   0  0  0  0  0  0  0  0  0  0  0  0
    9.7898    4.8153   24.0781 H   0  0  0  0  0  0  0  0  0  0  0  0
    6.8052    4.6523   23.4997 H   0  0  0  0  0  0  0  0  0  0  0  0
    7.5505    5.1644   25.0291 H   0  0  0  0  0  0  0  0  0  0  0  0
    7.8539    2.8573   25.7168 H   0  0  0  0  0  0  0  0  0  0  0  0
    6.8566    2.3083   24.3532 H   0  0  0  0  0  0  0  0  0  0  0  0
    7.8281    1.0597   22.2976 N   0  0  0  0  0  0  0  0  0  0  0  0
    6.8259   -1.1843   21.4480 H   0  0  0  0  0  0  0  0  0  0  0  0
    8.0991   -1.5884   20.2936 H   0  0  0  0  0  0  0  0  0  0  0  0
    5.4415    0.5120   19.8484 C   0  0  0  0  0  0  0  0  0  0  0  0
    5.0512    0.4961   20.8687 H   0  0  0  0  0  0  0  0  0  0  0  0
    7.9552   -0.7269   17.9349 H   0  0  0  0  0  0  0  0  0  0  0  0
    4.9641    1.8579   16.7667 H   0  0  0  0  0  0  0  0  0  0  0  0
    3.9450    1.8627   19.0418 H   0  0  0  0  0  0  0  0  0  0  0  0
  1  2  2  0
  2  3  1  0
  3  4  2  0
  4  5  1  0
  5  6  1  0
  6  7  1  0
  7  8  2  0
  8  9  1  0
  9 10  1  0
 10 11  2  0
 11 12  1  0
 12 13  2  0
 13 14  1  0
 14 15  2  0
 15 16  1  0
 16 17  1  0
 17 18  2  0
 17 19  1  0
 16 20  1  0
 13 21  1  0
 12 22  1  0
 11 23  1  0
  9 24  1  0
 24 25  1  0
 25 26  1  0
 26 27  1  0
 27 28  1  0
 28 29  1  0
 28 30  1  0
 27 31  1  0
 27 32  1  0
 26 33  1  0
 25 34  1  0
 34 35  1  0
 35 36  1  0
 36 37  1  0
 36 38  1  0
 35 39  1  0
 35 40  1  0
 34 41  1  0
 34 42  1  0
 24 43  2  0
  6 44  1  0
  6 45  1  0
  5 46  2  0
 46 47  1  0
  4 48  1  0
  2 49  1  0
  1 50  1  0
 46  1  1  0
 43  7  1  0
 15 10  1  0
 36 25  1  0
 18 14  1  0
 28 26  1  0
M  END
>  <cnnaffinity>  (1) 
-6.76018

>  <filename>  (1) 
[H]c1nc([H])c(C([H])([H])c2nc(C3(C4([H])C([H])([H])C4([H])[H])C([H])([H])C([H])([H])C3([H])[H])n(-c3c([H])c([H])c([H])c4nc([H])n([H])c34)n2)c([H])c1[H]

$$$$
