
     RDKit          3D

 32 34  0  0  0  0  0  0  0  0999 V2000
    8.7203   -3.6692   21.3910 H   0  0  0  0  0  0  0  0  0  0  0  0
    8.4031   -2.6558   21.6257 C   0  0  0  0  0  0  0  0  0  0  0  0
    8.6716   -2.2204   22.8542 N   0  0  0  0  0  0  0  0  0  0  0  0
    8.2864   -0.9733   23.1248 C   0  0  0  0  0  0  0  0  0  0  0  0
    8.5000   -0.5930   24.1233 H   0  0  0  0  0  0  0  0  0  0  0  0
    7.6328   -0.1386   22.2094 C   0  0  0  0  0  0  0  0  0  0  0  0
    7.2713    1.2044   22.5547 N   0  0  0  0  0  0  0  0  0  0  0  0
    7.3774    1.9394   21.8635 H   0  0  0  0  0  0  0  0  0  0  0  0
    6.7102    1.6042   23.7535 C   0  0  0  0  0  0  0  0  0  0  0  0
    6.3538    0.7907   24.5900 O   0  0  0  0  0  0  0  0  0  0  0  0
    6.5619    3.1259   24.0229 C   0  0  0  0  0  0  0  0  0  0  0  0
    7.0024    4.0207   23.1147 N   0  0  0  0  0  0  0  0  0  0  0  0
    6.8686    5.3241   23.3890 C   0  0  0  0  0  0  0  0  0  0  0  0
    7.2376    6.0055   22.6233 H   0  0  0  0  0  0  0  0  0  0  0  0
    6.2951    5.8076   24.5697 C   0  0  0  0  0  0  0  0  0  0  0  0
    6.2095    6.8771   24.7255 H   0  0  0  0  0  0  0  0  0  0  0  0
    5.8396    4.8908   25.5207 C   0  0  0  0  0  0  0  0  0  0  0  0
    5.3832    5.2319   26.4538 H   0  0  0  0  0  0  0  0  0  0  0  0
    5.9794    3.5303   25.2439 C   0  0  0  0  0  0  0  0  0  0  0  0
    5.6452    2.7806   25.9517 H   0  0  0  0  0  0  0  0  0  0  0  0
    7.3879   -0.7360   20.9465 C   0  0  0  0  0  0  0  0  0  0  0  0
    6.6460   -0.0124   19.8996 C   0  0  0  0  0  0  0  0  0  0  0  0
    7.1702    0.0354   18.6021 C   0  0  0  0  0  0  0  0  0  0  0  0
    8.1207   -0.4398   18.3683 H   0  0  0  0  0  0  0  0  0  0  0  0
    6.5743    0.6751   17.5923 N   0  0  0  0  0  0  0  0  0  0  0  0
    5.4081    1.2881   17.8471 C   0  0  0  0  0  0  0  0  0  0  0  0
    4.9283    1.7783   17.0023 H   0  0  0  0  0  0  0  0  0  0  0  0
    4.8073    1.3031   19.1090 C   0  0  0  0  0  0  0  0  0  0  0  0
    3.8803    1.8378   19.2580 H   0  0  0  0  0  0  0  0  0  0  0  0
    5.4365    0.6465   20.1626 C   0  0  0  0  0  0  0  0  0  0  0  0
    5.0040    0.6373   21.1677 H   0  0  0  0  0  0  0  0  0  0  0  0
    7.8028   -1.9691   20.6587 N   0  0  0  0  0  0  0  0  0  0  0  0
  1  2  1  0
  2  3  2  0
  3  4  1  0
  4  5  1  0
  4  6  2  0
  6  7  1  0
  7  8  1  0
  7  9  1  0
  9 10  2  0
  9 11  1  0
 11 12  2  0
 12 13  1  0
 13 14  1  0
 13 15  2  0
 15 16  1  0
 15 17  1  0
 17 18  1  0
 17 19  2  0
 19 20  1  0
  6 21  1  0
 21 22  1  0
 22 23  2  0
 23 24  1  0
 23 25  1  0
 25 26  2  0
 26 27  1  0
 26 28  1  0
 28 29  1  0
 28 30  2  0
 30 31  1  0
 21 32  2  0
 32  2  1  0
 19 11  1  0
 30 22  1  0
M  END
>  <cnnaffinity>  (1) 
-5.11404

>  <filename>  (1) 
[H]c1nc([H])c(N([H])C(=O)c2nc([H])c([H])c([H])c2[H])c(-c2c([H])nc([H])c([H])c2[H])n1

$$$$
