
     RDKit          3D

 34 36  0  0  0  0  0  0  0  0999 V2000
    5.0190    1.7708   16.7677 H   0  0  0  0  0  0  0  0  0  0  0  0
    5.4593    1.3052   17.6471 C   0  0  0  0  0  0  0  0  0  0  0  0
    6.6199    0.6557   17.4600 N   0  0  0  0  0  0  0  0  0  0  0  0
    7.1504    0.0253   18.5168 C   0  0  0  0  0  0  0  0  0  0  0  0
    8.0966   -0.4876   18.3476 H   0  0  0  0  0  0  0  0  0  0  0  0
    6.5640    0.0009   19.8049 C   0  0  0  0  0  0  0  0  0  0  0  0
    7.1384   -0.7797   20.8549 N   0  0  0  0  0  0  0  0  0  0  0  0
    7.6155   -1.6306   20.5887 H   0  0  0  0  0  0  0  0  0  0  0  0
    7.0618   -0.4743   22.1996 C   0  0  0  0  0  0  0  0  0  0  0  0
    6.5642    0.5458   22.6271 O   0  0  0  0  0  0  0  0  0  0  0  0
    7.6768   -1.5010   23.2513 C   0  0  0  0  0  0  0  0  0  0  0  0
    6.6274   -2.0069   23.9681 F   0  0  0  0  0  0  0  0  0  0  0  0
    8.2474   -2.5895   22.6277 F   0  0  0  0  0  0  0  0  0  0  0  0
    8.6733   -0.7918   24.1525 C   0  0  0  0  0  0  0  0  0  0  0  0
    8.2720   -0.3848   25.4137 C   0  0  0  0  0  0  0  0  0  0  0  0
    7.3434   -0.7519   25.8311 H   0  0  0  0  0  0  0  0  0  0  0  0
    9.0464    0.5176   26.1811 C   0  0  0  0  0  0  0  0  0  0  0  0
    8.6847    0.8604   27.1447 H   0  0  0  0  0  0  0  0  0  0  0  0
   10.2368    0.9829   25.6871 C   0  0  0  0  0  0  0  0  0  0  0  0
   10.8576    1.6643   26.2554 H   0  0  0  0  0  0  0  0  0  0  0  0
   10.7119    0.5701   24.4119 C   0  0  0  0  0  0  0  0  0  0  0  0
   11.9568    1.0556   23.9096 C   0  0  0  0  0  0  0  0  0  0  0  0
   12.5211    1.7737   24.5052 H   0  0  0  0  0  0  0  0  0  0  0  0
   12.4305    0.6358   22.6926 C   0  0  0  0  0  0  0  0  0  0  0  0
   13.3948    0.9885   22.3332 H   0  0  0  0  0  0  0  0  0  0  0  0
   11.6642   -0.2591   21.8968 C   0  0  0  0  0  0  0  0  0  0  0  0
   12.0517   -0.6078   20.9421 H   0  0  0  0  0  0  0  0  0  0  0  0
   10.4331   -0.7024   22.3222 C   0  0  0  0  0  0  0  0  0  0  0  0
    9.8384   -1.3282   21.6644 H   0  0  0  0  0  0  0  0  0  0  0  0
    9.9295   -0.3325   23.6168 C   0  0  0  0  0  0  0  0  0  0  0  0
    5.3894    0.7394   19.9997 C   0  0  0  0  0  0  0  0  0  0  0  0
    4.9483    0.8158   20.9909 H   0  0  0  0  0  0  0  0  0  0  0  0
    4.8229    1.3778   18.8895 C   0  0  0  0  0  0  0  0  0  0  0  0
    3.8993    1.9346   18.9858 H   0  0  0  0  0  0  0  0  0  0  0  0
  1  2  1  0
  2  3  2  0
  3  4  1  0
  4  5  1  0
  4  6  2  0
  6  7  1  0
  7  8  1  0
  7  9  1  0
  9 10  2  0
  9 11  1  0
 11 12  1  0
 11 13  1  0
 11 14  1  0
 14 15  2  0
 15 16  1  0
 15 17  1  0
 17 18  1  0
 17 19  2  0
 19 20  1  0
 19 21  1  0
 21 22  2  0
 22 23  1  0
 22 24  1  0
 24 25  1  0
 24 26  2  0
 26 27  1  0
 26 28  1  0
 28 29  1  0
 28 30  2  0
  6 31  1  0
 31 32  1  0
 31 33  2  0
 33 34  1  0
 33  2  1  0
 30 14  1  0
 30 21  1  0
M  END
>  <cnnaffinity>  (1) 
-5.27494

>  <filename>  (1) 
[H]c1nc([H])c(N([H])C(=O)C(F)(F)c2c([H])c([H])c([H])c3c([H])c([H])c([H])c([H])c23)c([H])c1[H]

$$$$
