
     RDKit          3D

 31 33  0  0  0  0  0  0  0  0999 V2000
    5.2166    0.9195   23.7790 F   0  0  0  0  0  0  0  0  0  0  0  0
    6.2763    1.1442   24.5875 C   0  0  0  0  0  0  0  0  0  0  0  0
    6.0959    1.2056   25.9775 C   0  0  0  0  0  0  0  0  0  0  0  0
    4.3626    0.9741   26.7534 Br  0  0  0  0  0  0  0  0  0  0  0  0
    7.1950    1.4412   26.8051 C   0  0  0  0  0  0  0  0  0  0  0  0
    8.4578    1.6061   26.2338 C   0  0  0  0  0  0  0  0  0  0  0  0
    8.6483    1.5386   24.8601 C   0  0  0  0  0  0  0  0  0  0  0  0
    7.5526    1.3167   24.0278 C   0  0  0  0  0  0  0  0  0  0  0  0
    7.7729    1.2066   22.5478 C   0  0  0  0  0  0  0  0  0  0  0  0
    7.8339   -0.2039   22.1655 N   0  0  0  0  0  0  0  0  0  0  0  0
    8.4996   -1.1771   22.8689 N   0  0  0  0  0  0  0  0  0  0  0  0
    8.4399   -2.2537   22.1250 C   0  0  0  0  0  0  0  0  0  0  0  0
    7.6878   -1.9766   20.9285 C   0  0  0  0  0  0  0  0  0  0  0  0
    7.3625   -0.6724   20.9482 C   0  0  0  0  0  0  0  0  0  0  0  0
    6.6396    0.0165   19.8835 C   0  0  0  0  0  0  0  0  0  0  0  0
    5.4384    0.6649   20.1567 C   0  0  0  0  0  0  0  0  0  0  0  0
    4.8186    1.3173   19.0931 C   0  0  0  0  0  0  0  0  0  0  0  0
    5.3999    1.3033   17.8159 C   0  0  0  0  0  0  0  0  0  0  0  0
    6.5605    0.6755   17.5482 N   0  0  0  0  0  0  0  0  0  0  0  0
    7.1614    0.0396   18.5747 C   0  0  0  0  0  0  0  0  0  0  0  0
    8.1177   -0.4459   18.3983 H   0  0  0  0  0  0  0  0  0  0  0  0
    4.8832    1.8081   17.0092 H   0  0  0  0  0  0  0  0  0  0  0  0
    3.8823    1.8341   19.2554 H   0  0  0  0  0  0  0  0  0  0  0  0
    5.0152    0.6427   21.1642 H   0  0  0  0  0  0  0  0  0  0  0  0
    7.3573   -2.6742   20.1882 H   0  0  0  0  0  0  0  0  0  0  0  0
    8.8692   -3.2233   22.3609 H   0  0  0  0  0  0  0  0  0  0  0  0
    6.9701    1.7201   22.0120 H   0  0  0  0  0  0  0  0  0  0  0  0
    8.7166    1.6700   22.2592 H   0  0  0  0  0  0  0  0  0  0  0  0
    9.6515    1.6510   24.4532 H   0  0  0  0  0  0  0  0  0  0  0  0
    9.3161    1.7853   26.8509 H   0  0  0  0  0  0  0  0  0  0  0  0
    7.0692    1.4942   27.8843 H   0  0  0  0  0  0  0  0  0  0  0  0
  1  2  1  0
  2  3  2  0
  3  4  1  0
  3  5  1  0
  5  6  2  0
  6  7  1  0
  7  8  2  0
  8  9  1  0
  9 10  1  0
 10 11  1  0
 11 12  2  0
 12 13  1  0
 13 14  2  0
 14 15  1  0
 15 16  2  0
 16 17  1  0
 17 18  2  0
 18 19  1  0
 19 20  2  0
 20 21  1  0
 18 22  1  0
 17 23  1  0
 16 24  1  0
 13 25  1  0
 12 26  1  0
  9 27  1  0
  9 28  1  0
  7 29  1  0
  6 30  1  0
  5 31  1  0
  8  2  1  0
 14 10  1  0
 20 15  1  0
M  END
>  <cnnaffinity>  (1) 
-5.06008

>  <filename>  (1) 
[H]c1nc([H])c(-c2c([H])c([H])nn2C([H])([H])c2c([H])c([H])c([H])c(Br)c2F)c([H])c1[H]

$$$$
