
     RDKit          3D

 35 37  0  0  0  0  0  0  0  0999 V2000
    4.9142    1.8341   16.9537 H   0  0  0  0  0  0  0  0  0  0  0  0
    5.3710    1.3194   17.7981 C   0  0  0  0  0  0  0  0  0  0  0  0
    6.5273    0.6837   17.5470 N   0  0  0  0  0  0  0  0  0  0  0  0
    7.1419    0.0740   18.5682 C   0  0  0  0  0  0  0  0  0  0  0  0
    8.0923   -0.3911   18.3123 H   0  0  0  0  0  0  0  0  0  0  0  0
    6.6483    0.0430   19.8927 C   0  0  0  0  0  0  0  0  0  0  0  0
    7.3648   -0.6204   20.9963 C   0  0  0  0  0  0  0  0  0  0  0  0
    7.5378   -0.3152   22.3418 C   0  0  0  0  0  0  0  0  0  0  0  0
    7.1771    0.8580   22.9725 N   0  0  0  0  0  0  0  0  0  0  0  0
    6.8440    1.5734   22.3580 H   0  0  0  0  0  0  0  0  0  0  0  0
    6.8319    0.9520   24.2945 C   0  0  0  0  0  0  0  0  0  0  0  0
    7.0207    0.0758   25.1039 O   0  0  0  0  0  0  0  0  0  0  0  0
    6.2072    2.2887   24.6747 C   0  0  0  0  0  0  0  0  0  0  0  0
    6.8306    3.0864   24.2621 H   0  0  0  0  0  0  0  0  0  0  0  0
    6.2927    2.3161   25.7637 H   0  0  0  0  0  0  0  0  0  0  0  0
    4.7728    2.4541   24.2078 C   0  0  0  0  0  0  0  0  0  0  0  0
    3.7321    1.8533   24.9286 C   0  0  0  0  0  0  0  0  0  0  0  0
    3.9790    1.2790   25.8182 H   0  0  0  0  0  0  0  0  0  0  0  0
    2.4021    1.9812   24.5127 C   0  0  0  0  0  0  0  0  0  0  0  0
    1.6128    1.4808   25.0677 H   0  0  0  0  0  0  0  0  0  0  0  0
    2.1004    2.6542   23.3207 C   0  0  0  0  0  0  0  0  0  0  0  0
    1.0753    2.6823   22.9568 H   0  0  0  0  0  0  0  0  0  0  0  0
    3.1364    3.2218   22.5693 C   0  0  0  0  0  0  0  0  0  0  0  0
    2.9252    3.6892   21.6077 H   0  0  0  0  0  0  0  0  0  0  0  0
    4.4593    3.1409   23.0246 C   0  0  0  0  0  0  0  0  0  0  0  0
    5.2500    3.6157   22.4472 H   0  0  0  0  0  0  0  0  0  0  0  0
    8.2067   -1.2812   22.9951 N   0  0  0  0  0  0  0  0  0  0  0  0
    8.4829   -2.1857   22.0900 C   0  0  0  0  0  0  0  0  0  0  0  0
    9.0119   -3.1156   22.2714 H   0  0  0  0  0  0  0  0  0  0  0  0
    8.0212   -1.8301   20.8632 N   0  0  0  0  0  0  0  0  0  0  0  0
    8.0103   -2.4114   20.0451 H   0  0  0  0  0  0  0  0  0  0  0  0
    5.4195    0.6932   20.1163 C   0  0  0  0  0  0  0  0  0  0  0  0
    4.9666    0.6628   21.1067 H   0  0  0  0  0  0  0  0  0  0  0  0
    4.7733    1.3400   19.0616 C   0  0  0  0  0  0  0  0  0  0  0  0
    3.8418    1.8800   19.2126 H   0  0  0  0  0  0  0  0  0  0  0  0
  1  2  1  0
  2  3  2  0
  3  4  1  0
  4  5  1  0
  4  6  2  0
  6  7  1  0
  7  8  2  0
  8  9  1  0
  9 10  1  0
  9 11  1  0
 11 12  2  0
 11 13  1  0
 13 14  1  0
 13 15  1  0
 13 16  1  0
 16 17  2  0
 17 18  1  0
 17 19  1  0
 19 20  1  0
 19 21  2  0
 21 22  1  0
 21 23  1  0
 23 24  1  0
 23 25  2  0
 25 26  1  0
  8 27  1  0
 27 28  2  0
 28 29  1  0
 28 30  1  0
 30 31  1  0
  6 32  1  0
 32 33  1  0
 32 34  2  0
 34 35  1  0
 34  2  1  0
 30  7  1  0
 25 16  1  0
M  END
>  <cnnaffinity>  (1) 
-4.90591

>  <filename>  (1) 
[H]c1nc([H])c(-c2c(N([H])C(=O)C([H])([H])c3c([H])c([H])c([H])c([H])c3[H])nc([H])n2[H])c([H])c1[H]

$$$$
