
     RDKit          3D

 36 38  0  0  0  0  0  0  0  0999 V2000
    8.7664   -3.0736   22.9257 N   0  0  0  0  0  4  0  0  0  0  0  0
    7.6714   -1.8516   23.0670 C   0  0  2  0  0  0  0  0  0  0  0  0
    6.8358   -1.4365   21.7948 C   0  0  0  0  0  0  0  0  0  0  0  0
    5.7602   -1.9669   21.6153 O   0  0  0  0  0  0  0  0  0  0  0  0
    7.3701   -0.5117   20.9249 N   0  0  0  0  0  0  0  0  0  0  0  0
    6.6592    0.1017   19.8369 C   0  0  0  0  0  0  0  0  0  0  0  0
    5.4199    0.7094   20.0618 C   0  0  0  0  0  0  0  0  0  0  0  0
    4.7873    1.3584   18.9917 C   0  0  0  0  0  0  0  0  0  0  0  0
    5.3953    1.3476   17.7306 C   0  0  0  0  0  0  0  0  0  0  0  0
    6.5636    0.7320   17.4858 N   0  0  0  0  0  0  0  0  0  0  0  0
    7.1718    0.1319   18.5178 C   0  0  0  0  0  0  0  0  0  0  0  0
    8.1131   -0.3648   18.2923 H   0  0  0  0  0  0  0  0  0  0  0  0
    4.9279    1.8428   16.8800 H   0  0  0  0  0  0  0  0  0  0  0  0
    3.8411    1.8728   19.1198 H   0  0  0  0  0  0  0  0  0  0  0  0
    4.9795    0.6790   21.0619 H   0  0  0  0  0  0  0  0  0  0  0  0
    8.3204   -0.2303   21.0863 H   0  0  0  0  0  0  0  0  0  0  0  0
    8.2632   -0.6500   23.8347 C   0  0  2  0  0  0  0  0  0  0  0  0
    8.8724   -0.9806   25.2224 C   0  0  0  0  0  0  0  0  0  0  0  0
    8.2454    0.0607   26.1191 C   0  0  0  0  0  0  0  0  0  0  0  0
    8.3862    0.3492   27.4779 C   0  0  0  0  0  0  0  0  0  0  0  0
    7.6189    1.3799   28.0425 C   0  0  0  0  0  0  0  0  0  0  0  0
    6.7356    2.1195   27.2424 C   0  0  0  0  0  0  0  0  0  0  0  0
    6.5723    1.8286   25.8769 C   0  0  0  0  0  0  0  0  0  0  0  0
    7.3137    0.7671   25.3565 C   0  0  0  0  0  0  0  0  0  0  0  0
    7.1846    0.2841   24.0829 O   0  0  0  0  0  0  0  0  0  0  0  0
    5.9013    2.3929   25.2362 H   0  0  0  0  0  0  0  0  0  0  0  0
    6.1505    2.9203   27.6870 H   0  0  0  0  0  0  0  0  0  0  0  0
    7.7082    1.5988   29.1065 H   0  0  0  0  0  0  0  0  0  0  0  0
    9.0812   -0.2088   28.1075 H   0  0  0  0  0  0  0  0  0  0  0  0
    8.5989   -1.9805   25.5770 H   0  0  0  0  0  0  0  0  0  0  0  0
    9.9655   -0.9334   25.1890 H   0  0  0  0  0  0  0  0  0  0  0  0
    9.0090   -0.1117   23.2420 H   0  0  0  0  0  0  0  0  0  0  0  0
    6.8782   -2.2443   23.7017 H   0  0  0  0  0  0  0  0  0  0  0  0
    8.3355   -3.9298   22.5344 H   0  0  0  0  0  0  0  0  0  0  0  0
    9.5950   -2.8385   22.3465 H   0  0  0  0  0  0  0  0  0  0  0  0
    9.1100   -3.3274   23.8689 H   0  0  0  0  0  0  0  0  0  0  0  0
  1  2  1  0
  2  3  1  0
  3  4  2  0
  3  5  1  0
  5  6  1  0
  6  7  2  0
  7  8  1  0
  8  9  2  0
  9 10  1  0
 10 11  2  0
 11 12  1  0
  9 13  1  0
  8 14  1  0
  7 15  1  0
  5 16  1  0
  2 17  1  0
 17 18  1  0
 18 19  1  0
 19 20  2  0
 20 21  1  0
 21 22  2  0
 22 23  1  0
 23 24  2  0
 24 25  1  0
 23 26  1  0
 22 27  1  0
 21 28  1  0
 20 29  1  0
 18 30  1  0
 18 31  1  0
 17 32  1  6
  2 33  1  1
  1 34  1  0
  1 35  1  0
  1 36  1  0
 11  6  1  0
 25 17  1  0
 24 19  1  0
M  CHG  1   1   1
M  END
>  <cnnaffinity>  (1) 
-4.71699

>  <filename>  (1) 
[H]c1nc([H])c(N([H])C(=O)[C@]([H])([C@@]2([H])Oc3c([H])c([H])c([H])c([H])c3C2([H])[H])[N+]([H])([H])[H])c([H])c1[H]

$$$$
