
     RDKit          3D

 39 41  0  0  0  0  0  0  0  0999 V2000
   10.6625   -4.1965   24.9341 C   0  0  0  0  0  0  0  0  0  0  0  0
    9.6170   -4.6020   23.9365 C   0  0  0  0  0  0  0  0  0  0  0  0
    9.0433   -5.8757   24.0405 C   0  0  0  0  0  0  0  0  0  0  0  0
    8.0387   -6.2645   23.1432 C   0  0  0  0  0  0  0  0  0  0  0  0
    7.5688   -5.3924   22.1692 C   0  0  0  0  0  0  0  0  0  0  0  0
    6.0527   -5.8864   21.1029 Br  0  0  0  0  0  0  0  0  0  0  0  0
    8.2063   -4.1701   22.0034 C   0  0  0  0  0  0  0  0  0  0  0  0
    9.2289   -3.7523   22.8819 C   0  0  0  0  0  0  0  0  0  0  0  0
    9.8539   -2.3930   22.6585 C   0  0  0  0  0  0  0  0  0  0  0  0
    8.7558   -1.4878   22.1982 C   0  0  0  0  0  0  0  0  0  0  0  0
    8.5663   -1.0507   20.9881 N   0  0  0  0  0  0  0  0  0  0  0  0
    7.3075   -0.4740   21.0807 C   0  0  0  0  0  0  0  0  0  0  0  0
    6.6394    0.1179   19.9460 C   0  0  0  0  0  0  0  0  0  0  0  0
    5.4041    0.7590   20.0749 C   0  0  0  0  0  0  0  0  0  0  0  0
    4.8590    1.3295   18.9321 C   0  0  0  0  0  0  0  0  0  0  0  0
    5.5432    1.2326   17.7152 C   0  0  0  0  0  0  0  0  0  0  0  0
    6.7186    0.5902   17.5916 N   0  0  0  0  0  0  0  0  0  0  0  0
    7.2560    0.0453   18.6962 C   0  0  0  0  0  0  0  0  0  0  0  0
    8.2060   -0.4705   18.6012 H   0  0  0  0  0  0  0  0  0  0  0  0
    5.0997    1.6943   16.8394 H   0  0  0  0  0  0  0  0  0  0  0  0
    3.9162    1.8618   18.9792 H   0  0  0  0  0  0  0  0  0  0  0  0
    4.8915    0.8245   21.0375 H   0  0  0  0  0  0  0  0  0  0  0  0
    6.7529   -0.5331   22.2680 N   0  0  0  0  0  0  0  0  0  0  0  0
    7.6767   -1.1790   23.0018 N   0  0  0  0  0  0  0  0  0  0  0  0
    7.5313   -1.5519   24.4171 C   0  0  0  0  0  0  0  0  0  0  0  0
    8.3861   -0.6401   25.2960 C   0  0  0  0  0  0  0  0  0  0  0  0
    7.9071    0.6304   25.2405 F   0  0  0  0  0  0  0  0  0  0  0  0
    8.3588   -0.9927   26.3309 H   0  0  0  0  0  0  0  0  0  0  0  0
    9.4291   -0.6562   24.9605 H   0  0  0  0  0  0  0  0  0  0  0  0
    6.4809   -1.4689   24.7105 H   0  0  0  0  0  0  0  0  0  0  0  0
    7.8297   -2.5960   24.5642 H   0  0  0  0  0  0  0  0  0  0  0  0
   10.6357   -2.4608   21.9003 H   0  0  0  0  0  0  0  0  0  0  0  0
   10.2943   -1.9970   23.5774 H   0  0  0  0  0  0  0  0  0  0  0  0
    7.8966   -3.5192   21.1885 H   0  0  0  0  0  0  0  0  0  0  0  0
    7.5889   -7.2399   23.1632 H   0  0  0  0  0  0  0  0  0  0  0  0
    9.3979   -6.5573   24.8122 H   0  0  0  0  0  0  0  0  0  0  0  0
   10.2835   -3.3864   25.5645 H   0  0  0  0  0  0  0  0  0  0  0  0
   11.5588   -3.8627   24.4063 H   0  0  0  0  0  0  0  0  0  0  0  0
   10.9290   -5.0419   25.5770 H   0  0  0  0  0  0  0  0  0  0  0  0
  1  2  1  0
  2  3  2  0
  3  4  1  0
  4  5  2  0
  5  6  1  0
  5  7  1  0
  7  8  2  0
  8  9  1  0
  9 10  1  0
 10 11  2  0
 11 12  1  0
 12 13  1  0
 13 14  2  0
 14 15  1  0
 15 16  2  0
 16 17  1  0
 17 18  2  0
 18 19  1  0
 16 20  1  0
 15 21  1  0
 14 22  1  0
 12 23  2  0
 23 24  1  0
 24 25  1  0
 25 26  1  0
 26 27  1  0
 26 28  1  0
 26 29  1  0
 25 30  1  0
 25 31  1  0
  9 32  1  0
  9 33  1  0
  7 34  1  0
  4 35  1  0
  3 36  1  0
  1 37  1  0
  1 38  1  0
  1 39  1  0
  8  2  1  0
 24 10  1  0
 18 13  1  0
M  END
>  <cnnaffinity>  (1) 
-6.29791

>  <filename>  (1) 
[H]c1nc([H])c(-c2nc(C([H])([H])c3c([H])c(Br)c([H])c([H])c3C([H])([H])[H])n(C([H])([H])C([H])([H])F)n2)c([H])c1[H]

$$$$
