
     RDKit          3D

 33 34  0  0  0  0  0  0  0  0999 V2000
    7.9900    1.8757   21.5414 O   0  0  0  0  0  0  0  0  0  0  0  0
    7.7246    1.2894   22.5683 C   0  0  0  0  0  0  0  0  0  0  0  0
    7.9040    1.8669   23.9044 C   0  0  0  0  0  0  0  0  0  0  0  0
    8.1043    1.2569   25.0871 C   0  0  0  0  0  0  0  0  0  0  0  0
    8.5140   -0.4451   25.3461 S   0  0  0  0  0  0  0  0  0  0  0  0
    7.1763   -0.9456   26.4327 C   0  0  0  0  0  0  0  0  0  0  0  0
    6.2056   -1.8294   25.9450 C   0  0  0  0  0  0  0  0  0  0  0  0
    5.1321   -2.2138   26.7559 C   0  0  0  0  0  0  0  0  0  0  0  0
    5.0365   -1.7271   28.0649 C   0  0  0  0  0  0  0  0  0  0  0  0
    6.0231   -0.8692   28.5659 C   0  0  0  0  0  0  0  0  0  0  0  0
    7.0948   -0.4790   27.7526 C   0  0  0  0  0  0  0  0  0  0  0  0
    7.8687    0.1797   28.1418 H   0  0  0  0  0  0  0  0  0  0  0  0
    5.9649   -0.5117   29.5928 H   0  0  0  0  0  0  0  0  0  0  0  0
    4.2049   -2.0262   28.6984 H   0  0  0  0  0  0  0  0  0  0  0  0
    4.3801   -2.8916   26.3565 H   0  0  0  0  0  0  0  0  0  0  0  0
    6.2946   -2.2161   24.9322 H   0  0  0  0  0  0  0  0  0  0  0  0
    8.0394    1.8448   26.0031 H   0  0  0  0  0  0  0  0  0  0  0  0
    7.9203    2.9462   23.8397 H   0  0  0  0  0  0  0  0  0  0  0  0
    7.1393    0.0459   22.5447 N   0  0  0  0  0  0  0  0  0  0  0  0
    7.4806   -0.8122   21.1896 S   0  0  0  0  0  0  0  0  0  0  0  0
    8.8921   -0.7195   20.8837 O   0  0  0  0  0  0  0  0  0  0  0  0
    6.8460   -2.0836   21.4503 O   0  0  0  0  0  0  0  0  0  0  0  0
    6.6193    0.1131   20.0247 C   0  0  0  0  0  0  0  0  0  0  0  0
    5.3945    0.7588   20.2202 C   0  0  0  0  0  0  0  0  0  0  0  0
    4.8220    1.3292   19.0875 C   0  0  0  0  0  0  0  0  0  0  0  0
    5.4924    1.2439   17.8634 C   0  0  0  0  0  0  0  0  0  0  0  0
    6.6849    0.6524   17.7132 N   0  0  0  0  0  0  0  0  0  0  0  0
    7.2518    0.1238   18.7936 C   0  0  0  0  0  0  0  0  0  0  0  0
    8.2461   -0.2967   18.6643 H   0  0  0  0  0  0  0  0  0  0  0  0
    5.0632    1.6855   16.9655 H   0  0  0  0  0  0  0  0  0  0  0  0
    3.8846    1.8708   19.1370 H   0  0  0  0  0  0  0  0  0  0  0  0
    4.9182    0.8722   21.1992 H   0  0  0  0  0  0  0  0  0  0  0  0
    7.2771   -0.5638   23.3306 H   0  0  0  0  0  0  0  0  0  0  0  0
  1  2  2  0
  2  3  1  0
  3  4  2  3
  4  5  1  0
  5  6  1  0
  6  7  2  0
  7  8  1  0
  8  9  2  0
  9 10  1  0
 10 11  2  0
 11 12  1  0
 10 13  1  0
  9 14  1  0
  8 15  1  0
  7 16  1  0
  4 17  1  0
  3 18  1  0
  2 19  1  0
 19 20  1  0
 20 21  2  0
 20 22  2  0
 20 23  1  0
 23 24  2  0
 24 25  1  0
 25 26  2  0
 26 27  1  0
 27 28  2  0
 28 29  1  0
 26 30  1  0
 25 31  1  0
 24 32  1  0
 19 33  1  0
 11  6  1  0
 28 23  1  0
M  END
>  <cnnaffinity>  (1) 
-5.20265

>  <filename>  (1) 
[H]C(Sc1c([H])c([H])c([H])c([H])c1[H])=C([H])C(=O)N([H])S(=O)(=O)c1c([H])nc([H])c([H])c1[H]

$$$$
