
     RDKit          3D

 29 31  0  0  0  0  0  0  0  0999 V2000
    4.9477    1.8169   16.9737 H   0  0  0  0  0  0  0  0  0  0  0  0
    5.3993    1.2933   17.8144 C   0  0  0  0  0  0  0  0  0  0  0  0
    6.5595    0.6645   17.5628 N   0  0  0  0  0  0  0  0  0  0  0  0
    7.1659    0.0551   18.5876 C   0  0  0  0  0  0  0  0  0  0  0  0
    8.1053   -0.4483   18.3656 H   0  0  0  0  0  0  0  0  0  0  0  0
    6.6524    0.0322   19.8930 C   0  0  0  0  0  0  0  0  0  0  0  0
    7.6346   -0.7301   21.1719 S   0  0  0  0  0  0  0  0  0  0  0  0
    8.5203    0.5784   21.7591 N   0  0  0  0  0  0  0  0  0  0  0  0
    9.3359    0.8587   21.2259 H   0  0  0  0  0  0  0  0  0  0  0  0
    8.0726    1.5105   22.7167 C   0  0  0  0  0  0  0  0  0  0  0  0
    6.9331    1.2629   23.4631 C   0  0  0  0  0  0  0  0  0  0  0  0
    6.4241    0.3130   23.3200 H   0  0  0  0  0  0  0  0  0  0  0  0
    6.4255    2.2201   24.3841 C   0  0  0  0  0  0  0  0  0  0  0  0
    5.5523    1.9560   24.9786 H   0  0  0  0  0  0  0  0  0  0  0  0
    7.0127    3.4622   24.5103 C   0  0  0  0  0  0  0  0  0  0  0  0
    6.5976    4.2123   25.1857 H   0  0  0  0  0  0  0  0  0  0  0  0
    8.2007    3.7626   23.7735 C   0  0  0  0  0  0  0  0  0  0  0  0
    8.8379    5.0423   23.8122 C   0  0  0  0  0  0  0  0  0  0  0  0
    8.3246    5.8704   24.3038 H   0  0  0  0  0  0  0  0  0  0  0  0
   10.0534    5.2079   23.1898 C   0  0  0  0  0  0  0  0  0  0  0  0
   10.5712    6.1623   23.1787 H   0  0  0  0  0  0  0  0  0  0  0  0
   10.6389    4.0952   22.5254 C   0  0  0  0  0  0  0  0  0  0  0  0
   11.5889    4.2151   22.0080 H   0  0  0  0  0  0  0  0  0  0  0  0
   10.0556    2.9219   22.3927 N   0  0  0  0  0  0  0  0  0  0  0  0
    8.8144    2.7491   22.9582 C   0  0  0  0  0  0  0  0  0  0  0  0
    5.4166    0.6444   20.1333 C   0  0  0  0  0  0  0  0  0  0  0  0
    4.9661    0.6218   21.1262 H   0  0  0  0  0  0  0  0  0  0  0  0
    4.7860    1.3013   19.0723 C   0  0  0  0  0  0  0  0  0  0  0  0
    3.8516    1.8347   19.2119 H   0  0  0  0  0  0  0  0  0  0  0  0
  1  2  1  0
  2  3  2  0
  3  4  1  0
  4  5  1  0
  4  6  2  0
  6  7  1  0
  7  8  1  0
  8  9  1  0
  8 10  1  0
 10 11  2  0
 11 12  1  0
 11 13  1  0
 13 14  1  0
 13 15  2  0
 15 16  1  0
 15 17  1  0
 17 18  2  0
 18 19  1  0
 18 20  1  0
 20 21  1  0
 20 22  2  0
 22 23  1  0
 22 24  1  0
 24 25  2  0
  6 26  1  0
 26 27  1  0
 26 28  2  0
 28 29  1  0
 28  2  1  0
 25 10  1  0
 25 17  1  0
M  END
>  <cnnaffinity>  (1) 
-4.74691

>  <filename>  (1) 
[H]c1nc([H])c(SN([H])c2c([H])c([H])c([H])c3c([H])c([H])c([H])nc23)c([H])c1[H]

$$$$
