
     RDKit          3D

 39 40  0  0  0  0  0  0  0  0999 V2000
    4.9785    1.8049   16.9108 H   0  0  0  0  0  0  0  0  0  0  0  0
    5.4430    1.3098   17.7623 C   0  0  0  0  0  0  0  0  0  0  0  0
    6.6030    0.6855   17.5280 N   0  0  0  0  0  0  0  0  0  0  0  0
    7.1940    0.0774   18.5719 C   0  0  0  0  0  0  0  0  0  0  0  0
    8.1237   -0.4318   18.3323 H   0  0  0  0  0  0  0  0  0  0  0  0
    6.6942    0.0555   19.8875 C   0  0  0  0  0  0  0  0  0  0  0  0
    7.3880   -0.6898   21.0719 C   0  0  0  0  0  0  0  0  0  0  0  0
    7.5127    0.3022   22.2641 C   0  0  0  0  0  0  0  0  0  0  0  0
    6.9833    0.0245   23.3956 N   0  0  0  0  0  0  0  0  0  0  0  0
    7.1866    0.8504   24.4818 N   0  0  0  0  0  0  0  0  0  0  0  0
    7.6127    1.7681   24.4440 H   0  0  0  0  0  0  0  0  0  0  0  0
    6.6783    0.6194   25.7245 C   0  0  0  0  0  0  0  0  0  0  0  0
    6.8456    1.7553   26.9199 S   0  0  0  0  0  0  0  0  0  0  0  0
    6.0713   -0.5545   25.8997 N   0  0  0  0  0  0  0  0  0  0  0  0
    5.5647   -0.6647   26.7583 H   0  0  0  0  0  0  0  0  0  0  0  0
    5.8427   -1.0270   25.0389 H   0  0  0  0  0  0  0  0  0  0  0  0
    8.3146    1.5791   22.0378 C   0  0  0  0  0  0  0  0  0  0  0  0
    7.7112    2.4578   22.2947 H   0  0  0  0  0  0  0  0  0  0  0  0
    9.1993    1.5709   22.6851 H   0  0  0  0  0  0  0  0  0  0  0  0
    8.6395    1.6932   21.0027 H   0  0  0  0  0  0  0  0  0  0  0  0
    8.8422   -1.1711   20.7603 C   0  0  0  0  0  0  0  0  0  0  0  0
    9.4847   -0.3161   20.5121 H   0  0  0  0  0  0  0  0  0  0  0  0
    8.8227   -1.7969   19.8643 H   0  0  0  0  0  0  0  0  0  0  0  0
    9.4955   -1.9810   21.9128 C   0  0  0  0  0  0  0  0  0  0  0  0
   10.2189   -2.6653   21.4580 H   0  0  0  0  0  0  0  0  0  0  0  0
   10.0723   -1.3151   22.5688 H   0  0  0  0  0  0  0  0  0  0  0  0
    8.5055   -2.7854   22.7842 C   0  0  0  0  0  0  0  0  0  0  0  0
    8.2232   -2.1874   23.6563 H   0  0  0  0  0  0  0  0  0  0  0  0
    8.9959   -3.6918   23.1655 H   0  0  0  0  0  0  0  0  0  0  0  0
    7.2387   -3.1688   22.0182 C   0  0  0  0  0  0  0  0  0  0  0  0
    6.5452   -3.7007   22.6838 H   0  0  0  0  0  0  0  0  0  0  0  0
    7.5007   -3.8774   21.2202 H   0  0  0  0  0  0  0  0  0  0  0  0
    6.5108   -1.9627   21.3823 C   0  0  0  0  0  0  0  0  0  0  0  0
    6.0463   -2.2972   20.4443 H   0  0  0  0  0  0  0  0  0  0  0  0
    5.6939   -1.6431   22.0264 H   0  0  0  0  0  0  0  0  0  0  0  0
    5.4601    0.7042   20.0935 C   0  0  0  0  0  0  0  0  0  0  0  0
    4.9976    0.7220   21.0851 H   0  0  0  0  0  0  0  0  0  0  0  0
    4.8257    1.3360   19.0180 C   0  0  0  0  0  0  0  0  0  0  0  0
    3.8768    1.8480   19.1366 H   0  0  0  0  0  0  0  0  0  0  0  0
  1  2  1  0
  2  3  2  0
  3  4  1  0
  4  5  1  0
  4  6  2  0
  6  7  1  0
  7  8  1  0
  8  9  2  3
  9 10  1  0
 10 11  1  0
 10 12  1  0
 12 13  2  0
 12 14  1  0
 14 15  1  0
 14 16  1  0
  8 17  1  0
 17 18  1  0
 17 19  1  0
 17 20  1  0
  7 21  1  0
 21 22  1  0
 21 23  1  0
 21 24  1  0
 24 25  1  0
 24 26  1  0
 24 27  1  0
 27 28  1  0
 27 29  1  0
 27 30  1  0
 30 31  1  0
 30 32  1  0
 30 33  1  0
 33 34  1  0
 33 35  1  0
  6 36  1  0
 36 37  1  0
 36 38  2  0
 38 39  1  0
 38  2  1  0
 33  7  1  0
M  END
>  <cnnaffinity>  (1) 
-4.85304

>  <filename>  (1) 
[H]c1nc([H])c(C2(C(=NN([H])C(=S)N([H])[H])C([H])([H])[H])C([H])([H])C([H])([H])C([H])([H])C([H])([H])C2([H])[H])c([H])c1[H]

$$$$
