
     RDKit          3D

 35 38  0  0  0  0  0  0  0  0999 V2000
    4.5064   -7.2699   20.8225 H   0  0  0  0  0  0  0  0  0  0  0  0
    4.5744   -6.6227   21.6894 C   0  0  0  0  0  0  0  0  0  0  0  0
    5.5332   -5.6976   21.6340 N   0  0  0  0  0  0  0  0  0  0  0  0
    5.6942   -4.8653   22.6657 C   0  0  0  0  0  0  0  0  0  0  0  0
    6.6044   -3.6988   22.3573 C   0  0  0  0  0  0  0  0  0  0  0  0
    7.8784   -3.6364   22.5873 N   0  0  0  0  0  0  0  0  0  0  0  0
    8.4358   -2.4641   22.1548 N   0  0  0  0  0  0  0  0  0  0  0  0
    7.5704   -1.6729   21.5832 C   0  0  0  0  0  0  0  0  0  0  0  0
    7.8117   -0.2713   21.0895 C   0  0  0  0  0  0  0  0  0  0  0  0
    6.9682    0.1723   19.9212 C   0  0  0  0  0  0  0  0  0  0  0  0
    7.4037    0.0943   18.5837 C   0  0  0  0  0  0  0  0  0  0  0  0
    8.3546   -0.3828   18.3431 H   0  0  0  0  0  0  0  0  0  0  0  0
    6.7153    0.5654   17.5335 N   0  0  0  0  0  0  0  0  0  0  0  0
    5.5373    1.1547   17.7902 C   0  0  0  0  0  0  0  0  0  0  0  0
    5.0122    1.5740   16.9347 H   0  0  0  0  0  0  0  0  0  0  0  0
    4.9815    1.2423   19.0711 C   0  0  0  0  0  0  0  0  0  0  0  0
    4.0386    1.7574   19.2183 H   0  0  0  0  0  0  0  0  0  0  0  0
    5.7008    0.7252   20.1494 C   0  0  0  0  0  0  0  0  0  0  0  0
    5.3096    0.7622   21.1677 H   0  0  0  0  0  0  0  0  0  0  0  0
    8.0659    0.7779   22.1743 C   0  0  0  0  0  0  0  0  0  0  0  0
    8.1104    0.4296   23.2013 H   0  0  0  0  0  0  0  0  0  0  0  0
    7.5639    1.7356   22.0459 H   0  0  0  0  0  0  0  0  0  0  0  0
    9.1578    0.3977   21.2349 C   0  0  0  0  0  0  0  0  0  0  0  0
    9.9889   -0.1955   21.5969 H   0  0  0  0  0  0  0  0  0  0  0  0
    9.3970    1.1157   20.4567 H   0  0  0  0  0  0  0  0  0  0  0  0
    5.9736   -2.3403   21.4937 S   0  0  0  0  0  0  0  0  0  0  0  0
    4.9338   -5.0075   23.8472 C   0  0  0  0  0  0  0  0  0  0  0  0
    5.2651   -4.1411   25.0250 C   0  0  0  0  0  0  0  0  0  0  0  0
    4.7668   -4.6316   26.1716 F   0  0  0  0  0  0  0  0  0  0  0  0
    6.5903   -4.0047   25.1794 F   0  0  0  0  0  0  0  0  0  0  0  0
    4.7690   -2.9056   24.8493 F   0  0  0  0  0  0  0  0  0  0  0  0
    3.8704   -5.9183   23.8661 C   0  0  0  0  0  0  0  0  0  0  0  0
    3.2205   -6.0091   24.7375 H   0  0  0  0  0  0  0  0  0  0  0  0
    3.6830   -6.7307   22.7586 C   0  0  0  0  0  0  0  0  0  0  0  0
    2.8735   -7.4471   22.6929 H   0  0  0  0  0  0  0  0  0  0  0  0
  1  2  1  0
  2  3  2  0
  3  4  1  0
  4  5  1  0
  5  6  2  0
  6  7  1  0
  7  8  2  0
  8  9  1  0
  9 10  1  0
 10 11  2  0
 11 12  1  0
 11 13  1  0
 13 14  2  0
 14 15  1  0
 14 16  1  0
 16 17  1  0
 16 18  2  0
 18 19  1  0
  9 20  1  0
 20 21  1  0
 20 22  1  0
 20 23  1  0
 23 24  1  0
 23 25  1  0
  8 26  1  0
  4 27  2  0
 27 28  1  0
 28 29  1  0
 28 30  1  0
 28 31  1  0
 27 32  1  0
 32 33  1  0
 32 34  2  0
 34 35  1  0
 34  2  1  0
 26  5  1  0
 23  9  1  0
 18 10  1  0
M  END
>  <cnnaffinity>  (1) 
-5.40468

>  <filename>  (1) 
[H]c1nc(-c2nnc(C3(c4c([H])nc([H])c([H])c4[H])C([H])([H])C3([H])[H])s2)c(C(F)(F)F)c([H])c1[H]

$$$$
