
     RDKit          3D

 39 41  0  0  0  0  0  0  0  0999 V2000
    2.5289    6.4005   22.9950 C   0  0  0  0  0  0  0  0  0  0  0  0
    3.9230    6.4963   23.2176 O   0  0  0  0  0  0  0  0  0  0  0  0
    4.6149    5.4141   23.6494 C   0  0  0  0  0  0  0  0  0  0  0  0
    4.0602    4.1578   23.9307 C   0  0  0  0  0  0  0  0  0  0  0  0
    4.8942    3.1288   24.3934 C   0  0  0  0  0  0  0  0  0  0  0  0
    6.2654    3.3252   24.5952 C   0  0  0  0  0  0  0  0  0  0  0  0
    7.1829    2.1824   25.0114 C   0  0  0  0  0  0  0  0  0  0  0  0
    7.7103    1.4389   23.8218 C   0  0  0  0  0  0  0  0  0  0  0  0
    8.8661    1.6751   23.2694 N   0  0  0  0  0  0  0  0  0  0  0  0
    8.8680    0.8427   22.1602 O   0  0  0  0  0  0  0  0  0  0  0  0
    7.7062    0.1838   22.1600 C   0  0  0  0  0  0  0  0  0  0  0  0
    7.4119   -0.7361   20.9962 C   0  0  0  0  0  0  0  0  0  0  0  0
    6.6177   -1.9723   21.4597 C   0  0  0  0  0  0  0  0  0  0  0  0
    5.6578   -1.6647   21.8788 H   0  0  0  0  0  0  0  0  0  0  0  0
    7.1588   -2.5208   22.2370 H   0  0  0  0  0  0  0  0  0  0  0  0
    6.4142   -2.6471   20.6239 H   0  0  0  0  0  0  0  0  0  0  0  0
    6.6700    0.0065   19.8766 C   0  0  0  0  0  0  0  0  0  0  0  0
    5.4510    0.6533   20.1306 C   0  0  0  0  0  0  0  0  0  0  0  0
    4.8018    1.3065   19.0826 C   0  0  0  0  0  0  0  0  0  0  0  0
    5.3871    1.2944   17.8125 C   0  0  0  0  0  0  0  0  0  0  0  0
    6.5472    0.6748   17.5458 N   0  0  0  0  0  0  0  0  0  0  0  0
    7.1610    0.0552   18.5621 C   0  0  0  0  0  0  0  0  0  0  0  0
    8.1145   -0.4193   18.3252 H   0  0  0  0  0  0  0  0  0  0  0  0
    4.9142    1.8076   16.9759 H   0  0  0  0  0  0  0  0  0  0  0  0
    3.8717    1.8405   19.2383 H   0  0  0  0  0  0  0  0  0  0  0  0
    5.0509    0.6605   21.1481 H   0  0  0  0  0  0  0  0  0  0  0  0
    8.3890   -1.0529   20.6171 H   0  0  0  0  0  0  0  0  0  0  0  0
    6.9563    0.4891   23.1793 N   0  0  0  0  0  0  0  0  0  0  0  0
    6.6346    1.4493   25.6115 H   0  0  0  0  0  0  0  0  0  0  0  0
    8.0343    2.5351   25.6025 H   0  0  0  0  0  0  0  0  0  0  0  0
    6.7809    4.5925   24.2774 C   0  0  0  0  0  0  0  0  0  0  0  0
    8.0986    4.8205   24.4198 F   0  0  0  0  0  0  0  0  0  0  0  0
    5.9921    5.6316   23.8168 C   0  0  0  0  0  0  0  0  0  0  0  0
    6.4304    6.5934   23.5884 H   0  0  0  0  0  0  0  0  0  0  0  0
    4.4785    2.1398   24.5865 H   0  0  0  0  0  0  0  0  0  0  0  0
    2.9991    3.9911   23.7837 H   0  0  0  0  0  0  0  0  0  0  0  0
    2.2933    5.6482   22.2274 H   0  0  0  0  0  0  0  0  0  0  0  0
    2.2385    7.3950   22.6490 H   0  0  0  0  0  0  0  0  0  0  0  0
    1.9903    6.1487   23.9211 H   0  0  0  0  0  0  0  0  0  0  0  0
  1  2  1  0
  2  3  1  0
  3  4  2  0
  4  5  1  0
  5  6  2  0
  6  7  1  0
  7  8  1  0
  8  9  2  0
  9 10  1  0
 10 11  1  0
 11 12  1  0
 12 13  1  0
 13 14  1  0
 13 15  1  0
 13 16  1  0
 12 17  1  0
 17 18  2  0
 18 19  1  0
 19 20  2  0
 20 21  1  0
 21 22  2  0
 22 23  1  0
 20 24  1  0
 19 25  1  0
 18 26  1  0
 12 27  1  0
 11 28  2  0
  7 29  1  0
  7 30  1  0
  6 31  1  0
 31 32  1  0
 31 33  2  0
 33 34  1  0
  5 35  1  0
  4 36  1  0
  1 37  1  0
  1 38  1  0
  1 39  1  0
 33  3  1  0
 28  8  1  0
 22 17  1  0
M  END
>  <cnnaffinity>  (1) 
-5.38755

>  <filename>  (1) 
[H]c1nc([H])c(C([H])(c2nc(C([H])([H])c3c([H])c([H])c(OC([H])([H])[H])c([H])c3F)no2)C([H])([H])[H])c([H])c1[H]

$$$$
