
     RDKit          3D

 26 28  0  0  0  0  0  0  0  0999 V2000
    4.9167    1.7792   16.9963 H   0  0  0  0  0  0  0  0  0  0  0  0
    5.4015    1.2928   17.8400 C   0  0  0  0  0  0  0  0  0  0  0  0
    6.5648    0.6746   17.5839 N   0  0  0  0  0  0  0  0  0  0  0  0
    7.1713    0.0599   18.5983 C   0  0  0  0  0  0  0  0  0  0  0  0
    8.1116   -0.4302   18.3616 H   0  0  0  0  0  0  0  0  0  0  0  0
    6.6574    0.0094   19.9030 C   0  0  0  0  0  0  0  0  0  0  0  0
    7.3613   -0.6751   20.9306 N   0  0  0  0  0  0  0  0  0  0  0  0
    6.7471   -1.0448   22.0757 N   0  0  0  0  0  0  0  0  0  0  0  0
    7.7193   -1.6281   22.7686 C   0  0  0  0  0  0  0  0  0  0  0  0
    7.5084   -2.2094   24.1476 C   0  0  0  0  0  0  0  0  0  0  0  0
    8.4448   -2.7722   24.8124 N   0  0  0  0  0  0  0  0  0  0  0  0
    7.8954   -3.2142   26.0866 C   0  0  0  0  0  0  0  0  0  0  0  0
    8.0415   -4.2921   26.1780 H   0  0  0  0  0  0  0  0  0  0  0  0
    8.4590   -2.7457   26.8956 H   0  0  0  0  0  0  0  0  0  0  0  0
    6.4007   -2.8176   26.1011 C   0  0  0  0  0  0  0  0  0  0  0  0
    5.7469   -3.6950   26.1859 H   0  0  0  0  0  0  0  0  0  0  0  0
    6.1722   -2.1191   26.9164 H   0  0  0  0  0  0  0  0  0  0  0  0
    6.2854   -2.1876   24.8017 N   0  0  0  0  0  0  0  0  0  0  0  0
    5.4526   -1.7781   24.4153 H   0  0  0  0  0  0  0  0  0  0  0  0
    8.9269   -1.6458   22.1153 N   0  0  0  0  0  0  0  0  0  0  0  0
    8.6681   -1.0438   20.9910 C   0  0  0  0  0  0  0  0  0  0  0  0
    9.3804   -0.8411   20.1966 H   0  0  0  0  0  0  0  0  0  0  0  0
    5.4405    0.6512   20.1686 C   0  0  0  0  0  0  0  0  0  0  0  0
    5.0133    0.6232   21.1733 H   0  0  0  0  0  0  0  0  0  0  0  0
    4.8114    1.3085   19.1103 C   0  0  0  0  0  0  0  0  0  0  0  0
    3.8787    1.8400   19.2640 H   0  0  0  0  0  0  0  0  0  0  0  0
  1  2  1  0
  2  3  2  0
  3  4  1  0
  4  5  1  0
  4  6  2  0
  6  7  1  0
  7  8  1  0
  8  9  2  0
  9 10  1  0
 10 11  2  0
 11 12  1  0
 12 13  1  0
 12 14  1  0
 12 15  1  0
 15 16  1  0
 15 17  1  0
 15 18  1  0
 18 19  1  0
  9 20  1  0
 20 21  2  0
 21 22  1  0
  6 23  1  0
 23 24  1  0
 23 25  2  0
 25 26  1  0
 25  2  1  0
 21  7  1  0
 18 10  1  0
M  END
>  <cnnaffinity>  (1) 
-4.4833

>  <filename>  (1) 
[H]c1nc([H])c(-n2nc(C3=NC([H])([H])C([H])([H])N3[H])nc2[H])c([H])c1[H]

$$$$
