
     RDKit          3D

 28 30  0  0  0  0  0  0  0  0999 V2000
    4.9974    1.9091   16.6969 H   0  0  0  0  0  0  0  0  0  0  0  0
    5.4297    1.4476   17.5824 C   0  0  0  0  0  0  0  0  0  0  0  0
    6.6152    0.8402   17.4151 N   0  0  0  0  0  0  0  0  0  0  0  0
    7.1744    0.2718   18.4905 C   0  0  0  0  0  0  0  0  0  0  0  0
    8.1506   -0.1855   18.3262 H   0  0  0  0  0  0  0  0  0  0  0  0
    6.5867    0.2470   19.7672 C   0  0  0  0  0  0  0  0  0  0  0  0
    7.2177   -0.4932   20.8507 C   0  0  0  0  0  0  0  0  0  0  0  0
    8.1364   -1.4828   20.8271 C   0  0  0  0  0  0  0  0  0  0  0  0
    8.7664   -1.8685   20.0435 H   0  0  0  0  0  0  0  0  0  0  0  0
    8.2047   -2.0577   22.0844 N   0  0  0  0  0  0  0  0  0  0  0  0
    9.1611   -3.0665   22.3026 N   0  0  0  0  0  0  0  0  0  0  0  0
    9.9963   -2.8451   21.7606 H   0  0  0  0  0  0  0  0  0  0  0  0
    9.5391   -3.2931   23.6703 C   0  0  0  0  0  0  0  0  0  0  0  0
    8.9317   -4.0229   24.2060 H   0  0  0  0  0  0  0  0  0  0  0  0
   11.0008   -3.2840   23.9518 C   0  0  0  0  0  0  0  0  0  0  0  0
   11.6587   -3.0541   23.1091 H   0  0  0  0  0  0  0  0  0  0  0  0
   11.4123   -4.0214   24.6369 H   0  0  0  0  0  0  0  0  0  0  0  0
   10.1217   -2.1724   24.4763 C   0  0  0  0  0  0  0  0  0  0  0  0
    9.8409   -2.1713   25.5240 H   0  0  0  0  0  0  0  0  0  0  0  0
   10.2124   -1.1840   24.0256 H   0  0  0  0  0  0  0  0  0  0  0  0
    7.3233   -1.3750   22.9630 C   0  0  0  0  0  0  0  0  0  0  0  0
    7.0824   -1.5128   24.1498 O   0  0  0  0  0  0  0  0  0  0  0  0
    6.7479   -0.4231   22.1599 N   0  0  0  0  0  0  0  0  0  0  0  0
    6.3276    0.3500   22.6444 H   0  0  0  0  0  0  0  0  0  0  0  0
    5.3457    0.8928   19.9181 C   0  0  0  0  0  0  0  0  0  0  0  0
    4.8430    0.8996   20.8861 H   0  0  0  0  0  0  0  0  0  0  0  0
    4.7618    1.4986   18.8110 C   0  0  0  0  0  0  0  0  0  0  0  0
    3.8097    2.0099   18.8874 H   0  0  0  0  0  0  0  0  0  0  0  0
  1  2  1  0
  2  3  2  0
  3  4  1  0
  4  5  1  0
  4  6  2  0
  6  7  1  0
  7  8  2  0
  8  9  1  0
  8 10  1  0
 10 11  1  0
 11 12  1  0
 11 13  1  0
 13 14  1  0
 13 15  1  0
 15 16  1  0
 15 17  1  0
 15 18  1  0
 18 19  1  0
 18 20  1  0
 10 21  1  0
 21 22  2  0
 21 23  1  0
 23 24  1  0
  6 25  1  0
 25 26  1  0
 25 27  2  0
 27 28  1  0
 27  2  1  0
 23  7  1  0
 18 13  1  0
M  END
>  <cnnaffinity>  (1) 
-4.87212

>  <filename>  (1) 
[H]c1nc([H])c(-c2c([H])n(N([H])C3([H])C([H])([H])C3([H])[H])c(=O)n2[H])c([H])c1[H]

$$$$
