
     RDKit          3D

 44 44  0  0  0  0  0  0  0  0999 V2000
    4.9672    1.8128   16.9449 H   0  0  0  0  0  0  0  0  0  0  0  0
    5.4280    1.2968   17.7884 C   0  0  0  0  0  0  0  0  0  0  0  0
    6.5899    0.6691   17.5390 N   0  0  0  0  0  0  0  0  0  0  0  0
    7.1835    0.0446   18.5647 C   0  0  0  0  0  0  0  0  0  0  0  0
    8.1262   -0.4570   18.3562 H   0  0  0  0  0  0  0  0  0  0  0  0
    6.6573   -0.0091   19.8807 C   0  0  0  0  0  0  0  0  0  0  0  0
    7.3274   -0.6626   20.9169 N   0  0  0  0  0  0  0  0  0  0  0  0
    8.7067   -0.7042   20.8557 N   0  0  0  0  0  0  0  0  0  0  0  0
    9.1945    0.1546   21.0829 H   0  0  0  0  0  0  0  0  0  0  0  0
    9.4675   -1.8321   21.0607 C   0  0  0  0  0  0  0  0  0  0  0  0
    9.0381   -2.9685   21.1358 O   0  0  0  0  0  0  0  0  0  0  0  0
   10.9272   -1.4741   21.2825 C   0  0  0  0  0  0  0  0  0  0  0  0
   11.5700   -2.1663   20.7433 H   0  0  0  0  0  0  0  0  0  0  0  0
   11.1481   -0.4653   20.9066 H   0  0  0  0  0  0  0  0  0  0  0  0
   11.3250   -1.6224   22.7559 C   0  0  0  0  0  0  0  0  0  0  0  0
   11.1837   -2.6715   23.0518 H   0  0  0  0  0  0  0  0  0  0  0  0
   12.4036   -1.4335   22.7808 H   0  0  0  0  0  0  0  0  0  0  0  0
   10.6141   -0.7047   23.7561 C   0  0  0  0  0  0  0  0  0  0  0  0
    9.5242   -0.8506   23.6898 H   0  0  0  0  0  0  0  0  0  0  0  0
   10.8885   -1.0225   24.7722 H   0  0  0  0  0  0  0  0  0  0  0  0
   10.9734    0.7736   23.5777 C   0  0  0  0  0  0  0  0  0  0  0  0
   10.7535    1.0748   22.5420 H   0  0  0  0  0  0  0  0  0  0  0  0
   12.0613    0.8898   23.7083 H   0  0  0  0  0  0  0  0  0  0  0  0
   10.2502    1.7240   24.5329 C   0  0  0  0  0  0  0  0  0  0  0  0
   10.5103    1.4699   25.5722 H   0  0  0  0  0  0  0  0  0  0  0  0
    9.1605    1.5837   24.4420 H   0  0  0  0  0  0  0  0  0  0  0  0
   10.5816    3.2032   24.3118 C   0  0  0  0  0  0  0  0  0  0  0  0
   11.6690    3.3571   24.4160 H   0  0  0  0  0  0  0  0  0  0  0  0
   10.1029    3.7758   25.1165 H   0  0  0  0  0  0  0  0  0  0  0  0
   10.1289    3.8246   22.9867 C   0  0  0  0  0  0  0  0  0  0  0  0
   10.6134    3.3188   22.1399 H   0  0  0  0  0  0  0  0  0  0  0  0
    9.0437    3.6936   22.8576 H   0  0  0  0  0  0  0  0  0  0  0  0
   10.4671    5.3158   22.9458 C   0  0  0  0  0  0  0  0  0  0  0  0
   10.0434    5.8067   22.0656 H   0  0  0  0  0  0  0  0  0  0  0  0
   10.0632    5.8240   23.8311 H   0  0  0  0  0  0  0  0  0  0  0  0
   11.5546    5.4638   22.9273 H   0  0  0  0  0  0  0  0  0  0  0  0
    6.6722   -1.1987   22.0979 C   0  0  0  0  0  0  0  0  0  0  0  0
    6.4747   -0.4245   22.8573 H   0  0  0  0  0  0  0  0  0  0  0  0
    5.7246   -1.6566   21.8023 H   0  0  0  0  0  0  0  0  0  0  0  0
    7.2984   -1.9911   22.5238 H   0  0  0  0  0  0  0  0  0  0  0  0
    5.4335    0.6439   20.1111 C   0  0  0  0  0  0  0  0  0  0  0  0
    5.0121    0.6500   21.1169 H   0  0  0  0  0  0  0  0  0  0  0  0
    4.8191    1.3074   19.0438 C   0  0  0  0  0  0  0  0  0  0  0  0
    3.8866    1.8418   19.1903 H   0  0  0  0  0  0  0  0  0  0  0  0
  1  2  1  0
  2  3  2  0
  3  4  1  0
  4  5  1  0
  4  6  2  0
  6  7  1  0
  7  8  1  0
  8  9  1  0
  8 10  1  0
 10 11  2  0
 10 12  1  0
 12 13  1  0
 12 14  1  0
 12 15  1  0
 15 16  1  0
 15 17  1  0
 15 18  1  0
 18 19  1  0
 18 20  1  0
 18 21  1  0
 21 22  1  0
 21 23  1  0
 21 24  1  0
 24 25  1  0
 24 26  1  0
 24 27  1  0
 27 28  1  0
 27 29  1  0
 27 30  1  0
 30 31  1  0
 30 32  1  0
 30 33  1  0
 33 34  1  0
 33 35  1  0
 33 36  1  0
  7 37  1  0
 37 38  1  0
 37 39  1  0
 37 40  1  0
  6 41  1  0
 41 42  1  0
 41 43  2  0
 43 44  1  0
 43  2  1  0
M  END
>  <cnnaffinity>  (1) 
-5.4444

>  <filename>  (1) 
[H]c1nc([H])c(N(N([H])C(=O)C([H])([H])C([H])([H])C([H])([H])C([H])([H])C([H])([H])C([H])([H])C([H])([H])C([H])([H])[H])C([H])([H])[H])c([H])c1[H]

$$$$
