
     RDKit          3D

 35 38  0  0  0  0  0  0  0  0999 V2000
    4.9326    1.8177   16.9733 H   0  0  0  0  0  0  0  0  0  0  0  0
    5.4128    1.3239   17.8152 C   0  0  0  0  0  0  0  0  0  0  0  0
    6.5771    0.7084   17.5505 N   0  0  0  0  0  0  0  0  0  0  0  0
    7.1879    0.0732   18.5597 C   0  0  0  0  0  0  0  0  0  0  0  0
    8.1326   -0.4185   18.3251 H   0  0  0  0  0  0  0  0  0  0  0  0
    6.6625   -0.0020   19.8656 C   0  0  0  0  0  0  0  0  0  0  0  0
    7.3501   -0.7069   20.9227 N   0  0  0  0  0  0  0  0  0  0  0  0
    8.6219   -0.2971   21.2729 C   0  0  0  0  0  0  0  0  0  0  0  0
    9.0128    0.5399   20.6976 H   0  0  0  0  0  0  0  0  0  0  0  0
    9.3564   -0.8826   22.2650 C   0  0  0  0  0  0  0  0  0  0  0  0
   10.7299   -0.3921   22.5520 C   0  0  0  0  0  0  0  0  0  0  0  0
   11.8260   -1.2614   22.4743 C   0  0  0  0  0  0  0  0  0  0  0  0
   11.6807   -2.3171   22.2608 H   0  0  0  0  0  0  0  0  0  0  0  0
   13.1443   -0.8055   22.6817 C   0  0  0  0  0  0  0  0  0  0  0  0
   13.9502   -1.5250   22.5520 H   0  0  0  0  0  0  0  0  0  0  0  0
   13.4060    0.5011   23.0789 C   0  0  0  0  0  0  0  0  0  0  0  0
   14.4013    0.8432   23.3538 H   0  0  0  0  0  0  0  0  0  0  0  0
   12.3147    1.3817   23.1403 C   0  0  0  0  0  0  0  0  0  0  0  0
   10.9872    0.9793   22.8372 C   0  0  0  0  0  0  0  0  0  0  0  0
   10.1839    2.1717   22.9221 C   0  0  0  0  0  0  0  0  0  0  0  0
    9.1227    2.2463   22.7268 H   0  0  0  0  0  0  0  0  0  0  0  0
   11.0094    3.2000   23.2624 C   0  0  0  0  0  0  0  0  0  0  0  0
   10.7959    4.2568   23.3250 H   0  0  0  0  0  0  0  0  0  0  0  0
   12.2888    2.7253   23.4275 N   0  0  0  0  0  0  0  0  0  0  0  0
   13.1013    3.2959   23.5877 H   0  0  0  0  0  0  0  0  0  0  0  0
    8.7695   -1.9890   22.9687 C   0  0  0  0  0  0  0  0  0  0  0  0
    9.3260   -2.4864   23.7678 H   0  0  0  0  0  0  0  0  0  0  0  0
    7.5071   -2.4024   22.6630 C   0  0  0  0  0  0  0  0  0  0  0  0
    6.9966   -3.2155   23.1614 H   0  0  0  0  0  0  0  0  0  0  0  0
    6.7055   -1.8014   21.6040 C   0  0  0  0  0  0  0  0  0  0  0  0
    5.6012   -2.2124   21.2906 O   0  0  0  0  0  0  0  0  0  0  0  0
    5.4479    0.6456   20.1257 C   0  0  0  0  0  0  0  0  0  0  0  0
    5.0250    0.6135   21.1280 H   0  0  0  0  0  0  0  0  0  0  0  0
    4.8145    1.3255   19.0794 C   0  0  0  0  0  0  0  0  0  0  0  0
    3.8718    1.8461   19.2264 H   0  0  0  0  0  0  0  0  0  0  0  0
  1  2  1  0
  2  3  2  0
  3  4  1  0
  4  5  1  0
  4  6  2  0
  6  7  1  0
  7  8  1  0
  8  9  1  0
  8 10  2  0
 10 11  1  0
 11 12  2  0
 12 13  1  0
 12 14  1  0
 14 15  1  0
 14 16  2  0
 16 17  1  0
 16 18  1  0
 18 19  2  0
 19 20  1  0
 20 21  1  0
 20 22  2  0
 22 23  1  0
 22 24  1  0
 24 25  1  0
 10 26  1  0
 26 27  1  0
 26 28  2  0
 28 29  1  0
 28 30  1  0
 30 31  2  0
  6 32  1  0
 32 33  1  0
 32 34  2  0
 34 35  1  0
 34  2  1  0
 30  7  1  0
 19 11  1  0
 24 18  1  0
M  END
>  <cnnaffinity>  (1) 
-5.87501

>  <filename>  (1) 
[H]c1nc([H])c(-n2c([H])c(-c3c([H])c([H])c([H])c4c3c([H])c([H])n4[H])c([H])c([H])c2=O)c([H])c1[H]

$$$$
