
     RDKit          3D

 28 30  0  0  0  0  0  0  0  0999 V2000
    9.2462   -1.5598   24.6824 H   0  0  0  0  0  0  0  0  0  0  0  0
    8.5372   -0.8949   24.3868 N   0  0  0  0  0  0  0  0  0  0  0  0
    8.1178   -1.2570   23.2504 C   0  0  0  0  0  0  0  0  0  0  0  0
    8.5168   -2.6969   22.3027 S   0  0  0  0  0  0  0  0  0  0  0  0
    7.5972   -2.0999   20.9637 C   0  0  0  0  0  0  0  0  0  0  0  0
    7.3312   -2.7244   20.1347 H   0  0  0  0  0  0  0  0  0  0  0  0
    7.0885   -0.8793   21.1841 C   0  0  0  0  0  0  0  0  0  0  0  0
    6.5031   -0.0180   20.1543 C   0  0  0  0  0  0  0  0  0  0  0  0
    7.1351    0.0072   18.8966 C   0  0  0  0  0  0  0  0  0  0  0  0
    8.1150   -0.4613   18.7759 H   0  0  0  0  0  0  0  0  0  0  0  0
    6.6391    0.6098   17.8127 N   0  0  0  0  0  0  0  0  0  0  0  0
    5.4786    1.2640   17.9633 C   0  0  0  0  0  0  0  0  0  0  0  0
    5.0782    1.7286   17.0642 H   0  0  0  0  0  0  0  0  0  0  0  0
    4.8041    1.3731   19.1870 C   0  0  0  0  0  0  0  0  0  0  0  0
    3.8949    1.9606   19.2424 H   0  0  0  0  0  0  0  0  0  0  0  0
    5.3398    0.7513   20.3153 C   0  0  0  0  0  0  0  0  0  0  0  0
    4.8858    0.8530   21.3020 H   0  0  0  0  0  0  0  0  0  0  0  0
    7.1850   -0.5036   22.5311 N   0  0  0  0  0  0  0  0  0  0  0  0
    6.7305    0.7056   23.0859 C   0  0  0  0  0  0  0  0  0  0  0  0
    6.0228    0.6189   23.9191 H   0  0  0  0  0  0  0  0  0  0  0  0
    7.3220    1.8532   22.7281 C   0  0  0  0  0  0  0  0  0  0  0  0
    6.9193    3.4593   23.3301 S   0  0  0  0  0  0  0  0  0  0  0  0
    8.0703    4.2341   22.2313 C   0  0  0  0  0  0  0  0  0  0  0  0
    8.3346    5.8336   22.0355 S   0  0  0  0  0  0  0  0  0  0  0  0
    8.7297    3.2569   21.5639 N   0  0  0  0  0  0  0  0  0  0  0  0
    9.4667    3.4719   20.9105 H   0  0  0  0  0  0  0  0  0  0  0  0
    8.4507    1.9271   21.7675 C   0  0  0  0  0  0  0  0  0  0  0  0
    9.0783    1.0630   21.1990 O   0  0  0  0  0  0  0  0  0  0  0  0
  1  2  1  0
  2  3  2  3
  3  4  1  0
  4  5  1  0
  5  6  1  0
  5  7  2  0
  7  8  1  0
  8  9  2  0
  9 10  1  0
  9 11  1  0
 11 12  2  0
 12 13  1  0
 12 14  1  0
 14 15  1  0
 14 16  2  0
 16 17  1  0
  7 18  1  0
 18 19  1  0
 19 20  1  0
 19 21  2  3
 21 22  1  0
 22 23  1  0
 23 24  2  0
 23 25  1  0
 25 26  1  0
 25 27  1  0
 27 28  2  0
 18  3  1  0
 27 21  1  0
 16  8  1  0
M  END
>  <cnnaffinity>  (1) 
-5.1523

>  <filename>  (1) 
[H]N=c1sc([H])c(-c2c([H])nc([H])c([H])c2[H])n1C([H])=C1SC(=S)N([H])C1=O

$$$$
