
     RDKit          3D

 38 40  0  0  0  0  0  0  0  0999 V2000
    6.7257   -3.7374   20.5636 H   0  0  0  0  0  0  0  0  0  0  0  0
    6.6403   -2.7549   20.3454 N   0  0  0  0  0  0  0  0  0  0  0  0
    7.3476   -2.0371   21.1099 C   0  0  0  0  0  0  0  0  0  0  0  0
    8.4549   -2.5044   22.4318 S   0  0  0  0  0  0  0  0  0  0  0  0
    8.3690   -0.8803   23.0648 C   0  0  0  0  0  0  0  0  0  0  0  0
    8.7673   -0.5873   24.0215 H   0  0  0  0  0  0  0  0  0  0  0  0
    7.7091   -0.0448   22.2387 C   0  0  0  0  0  0  0  0  0  0  0  0
    7.4173    1.2759   22.4887 N   0  0  0  0  0  0  0  0  0  0  0  0
    6.8284    1.7330   23.7479 C   0  0  0  0  0  0  0  0  0  0  0  0
    5.9501    2.3631   23.5191 H   0  0  0  0  0  0  0  0  0  0  0  0
    6.4577    0.8716   24.3127 H   0  0  0  0  0  0  0  0  0  0  0  0
    7.8131    2.5664   24.5868 C   0  0  0  0  0  0  0  0  0  0  0  0
    8.6411    1.9154   24.9073 H   0  0  0  0  0  0  0  0  0  0  0  0
    7.3209    2.9329   25.4985 H   0  0  0  0  0  0  0  0  0  0  0  0
    8.3817    3.7376   23.7660 C   0  0  0  0  0  0  0  0  0  0  0  0
    7.5649    4.4349   23.5083 H   0  0  0  0  0  0  0  0  0  0  0  0
    9.4143    4.5477   24.5659 C   0  0  0  0  0  0  0  0  0  0  0  0
    8.9616    4.8925   25.5011 H   0  0  0  0  0  0  0  0  0  0  0  0
   10.2599    3.8911   24.8346 H   0  0  0  0  0  0  0  0  0  0  0  0
    9.8673    5.7169   23.9053 O   0  0  0  0  0  0  0  0  0  0  0  0
   10.3741    5.4376   23.1298 H   0  0  0  0  0  0  0  0  0  0  0  0
    8.9719    3.1900   22.4557 C   0  0  0  0  0  0  0  0  0  0  0  0
    9.8707    2.5897   22.6625 H   0  0  0  0  0  0  0  0  0  0  0  0
    9.2806    4.0323   21.8477 H   0  0  0  0  0  0  0  0  0  0  0  0
    7.9713    2.3431   21.6598 C   0  0  0  0  0  0  0  0  0  0  0  0
    8.4511    1.9113   20.7751 H   0  0  0  0  0  0  0  0  0  0  0  0
    7.1490    2.9851   21.3029 H   0  0  0  0  0  0  0  0  0  0  0  0
    7.3201   -0.6394   21.0257 N   0  0  0  0  0  0  0  0  0  0  0  0
    6.6479    0.0330   19.9363 C   0  0  0  0  0  0  0  0  0  0  0  0
    7.1789    0.0627   18.6246 C   0  0  0  0  0  0  0  0  0  0  0  0
    8.1127   -0.4612   18.4230 H   0  0  0  0  0  0  0  0  0  0  0  0
    6.5948    0.6951   17.5975 N   0  0  0  0  0  0  0  0  0  0  0  0
    5.4269    1.3156   17.8319 C   0  0  0  0  0  0  0  0  0  0  0  0
    4.9649    1.8049   16.9779 H   0  0  0  0  0  0  0  0  0  0  0  0
    4.8035    1.3263   19.0860 C   0  0  0  0  0  0  0  0  0  0  0  0
    3.8519    1.8283   19.2058 H   0  0  0  0  0  0  0  0  0  0  0  0
    5.4266    0.6773   20.1581 C   0  0  0  0  0  0  0  0  0  0  0  0
    4.9874    0.6587   21.1529 H   0  0  0  0  0  0  0  0  0  0  0  0
  1  2  1  0
  2  3  2  3
  3  4  1  0
  4  5  1  0
  5  6  1  0
  5  7  2  0
  7  8  1  0
  8  9  1  0
  9 10  1  0
  9 11  1  0
  9 12  1  0
 12 13  1  0
 12 14  1  0
 12 15  1  0
 15 16  1  0
 15 17  1  0
 17 18  1  0
 17 19  1  0
 17 20  1  0
 20 21  1  0
 15 22  1  0
 22 23  1  0
 22 24  1  0
 22 25  1  0
 25 26  1  0
 25 27  1  0
  7 28  1  0
 28 29  1  0
 29 30  2  0
 30 31  1  0
 30 32  1  0
 32 33  2  0
 33 34  1  0
 33 35  1  0
 35 36  1  0
 35 37  2  0
 37 38  1  0
 28  3  1  0
 37 29  1  0
 25  8  1  0
M  END
>  <cnnaffinity>  (1) 
-4.62878

>  <filename>  (1) 
[H]N=c1sc([H])c(N2C([H])([H])C([H])([H])C([H])(C([H])([H])O[H])C([H])([H])C2([H])[H])n1-c1c([H])nc([H])c([H])c1[H]

$$$$
