
     RDKit          3D

 36 39  0  0  0  0  0  0  0  0999 V2000
    9.4299   -1.1912   24.6522 H   0  0  0  0  0  0  0  0  0  0  0  0
    9.0005   -0.4458   24.1209 N   0  0  0  0  0  0  0  0  0  0  0  0
    8.4709   -0.8867   23.0583 C   0  0  0  0  0  0  0  0  0  0  0  0
    8.4083   -2.5403   22.4030 S   0  0  0  0  0  0  0  0  0  0  0  0
    7.5067   -1.9875   21.0262 C   0  0  0  0  0  0  0  0  0  0  0  0
    7.1367   -2.6803   20.2873 H   0  0  0  0  0  0  0  0  0  0  0  0
    7.2956   -0.6612   21.0441 C   0  0  0  0  0  0  0  0  0  0  0  0
    6.6374    0.1025   19.9659 C   0  0  0  0  0  0  0  0  0  0  0  0
    7.2241    0.1449   18.6895 C   0  0  0  0  0  0  0  0  0  0  0  0
    8.2046   -0.3023   18.5159 H   0  0  0  0  0  0  0  0  0  0  0  0
    6.6537    0.7266   17.6247 N   0  0  0  0  0  0  0  0  0  0  0  0
    5.4629    1.3160   17.8071 C   0  0  0  0  0  0  0  0  0  0  0  0
    5.0105    1.7648   16.9245 H   0  0  0  0  0  0  0  0  0  0  0  0
    4.7971    1.3481   19.0376 C   0  0  0  0  0  0  0  0  0  0  0  0
    3.8434    1.8548   19.1257 H   0  0  0  0  0  0  0  0  0  0  0  0
    5.4014    0.7462   20.1415 C   0  0  0  0  0  0  0  0  0  0  0  0
    4.9439    0.7703   21.1332 H   0  0  0  0  0  0  0  0  0  0  0  0
    7.7667   -0.0501   22.2121 N   0  0  0  0  0  0  0  0  0  0  0  0
    7.6631    1.3292   22.6059 C   0  0  0  0  0  0  0  0  0  0  0  0
    7.0046    1.8510   21.9095 H   0  0  0  0  0  0  0  0  0  0  0  0
    7.2505    1.3792   23.6146 H   0  0  0  0  0  0  0  0  0  0  0  0
    8.9671    1.9477   22.6275 N   0  0  0  0  0  0  0  0  0  0  0  0
    9.4069    2.8341   23.5951 C   0  0  0  0  0  0  0  0  0  0  0  0
    8.7994    3.1116   24.6062 O   0  0  0  0  0  0  0  0  0  0  0  0
   10.7148    3.3654   23.1030 C   0  0  0  0  0  0  0  0  0  0  0  0
   11.5085    4.4292   23.5519 C   0  0  0  0  0  0  0  0  0  0  0  0
   11.2610    4.9719   24.4609 H   0  0  0  0  0  0  0  0  0  0  0  0
   12.6055    4.8105   22.7686 C   0  0  0  0  0  0  0  0  0  0  0  0
   13.2102    5.6669   23.0577 H   0  0  0  0  0  0  0  0  0  0  0  0
   12.9156    4.1239   21.5753 C   0  0  0  0  0  0  0  0  0  0  0  0
   13.7706    4.4357   20.9757 H   0  0  0  0  0  0  0  0  0  0  0  0
   12.1152    3.0647   21.1423 C   0  0  0  0  0  0  0  0  0  0  0  0
   12.3077    2.5532   20.2103 H   0  0  0  0  0  0  0  0  0  0  0  0
   11.0120    2.7023   21.9159 C   0  0  0  0  0  0  0  0  0  0  0  0
    9.8930    1.7799   21.6121 C   0  0  0  0  0  0  0  0  0  0  0  0
    9.7436    1.0433   20.6636 O   0  0  0  0  0  0  0  0  0  0  0  0
  1  2  1  0
  2  3  2  3
  3  4  1  0
  4  5  1  0
  5  6  1  0
  5  7  2  0
  7  8  1  0
  8  9  2  0
  9 10  1  0
  9 11  1  0
 11 12  2  0
 12 13  1  0
 12 14  1  0
 14 15  1  0
 14 16  2  0
 16 17  1  0
  7 18  1  0
 18 19  1  0
 19 20  1  0
 19 21  1  0
 19 22  1  0
 22 23  1  0
 23 24  2  0
 23 25  1  0
 25 26  2  0
 26 27  1  0
 26 28  1  0
 28 29  1  0
 28 30  2  0
 30 31  1  0
 30 32  1  0
 32 33  1  0
 32 34  2  0
 34 35  1  0
 35 36  2  0
 18  3  1  0
 35 22  1  0
 16  8  1  0
 34 25  1  0
M  END
>  <cnnaffinity>  (1) 
-5.82658

>  <filename>  (1) 
[H]N=c1sc([H])c(-c2c([H])nc([H])c([H])c2[H])n1C([H])([H])N1C(=O)c2c([H])c([H])c([H])c([H])c2C1=O

$$$$
