
     RDKit          3D

 19 20  0  0  0  0  0  0  0  0999 V2000
    9.7380   -3.2443   25.2315 H   0  0  0  0  0  0  0  0  0  0  0  0
   10.4174   -3.4366   24.4754 N   0  0  0  0  0  0  0  0  0  0  0  0
   10.1023   -2.9619   23.4128 N   0  0  0  0  0  4  0  0  0  0  0  0
    9.9709   -2.5707   22.2636 N   0  0  0  0  0  0  0  0  0  0  0  0
    8.7997   -1.8205   22.0317 C   0  0  0  0  0  0  0  0  0  0  0  0
    7.8552   -1.5003   22.8787 N   0  0  0  0  0  0  0  0  0  0  0  0
    6.9382   -0.7760   22.1908 N   0  0  0  0  0  0  0  0  0  0  0  0
    7.3609   -0.6895   20.9708 C   0  0  0  0  0  0  0  0  0  0  0  0
    6.6597    0.0095   19.9006 C   0  0  0  0  0  0  0  0  0  0  0  0
    7.1881    0.0539   18.6064 C   0  0  0  0  0  0  0  0  0  0  0  0
    8.1348   -0.4362   18.3756 H   0  0  0  0  0  0  0  0  0  0  0  0
    6.5736    0.6729   17.5942 N   0  0  0  0  0  0  0  0  0  0  0  0
    5.4080    1.2883   17.8487 C   0  0  0  0  0  0  0  0  0  0  0  0
    4.9145    1.7727   17.0052 H   0  0  0  0  0  0  0  0  0  0  0  0
    4.8073    1.3087   19.1135 C   0  0  0  0  0  0  0  0  0  0  0  0
    3.8747    1.8453   19.2637 H   0  0  0  0  0  0  0  0  0  0  0  0
    5.4392    0.6535   20.1634 C   0  0  0  0  0  0  0  0  0  0  0  0
    5.0044    0.6310   21.1681 H   0  0  0  0  0  0  0  0  0  0  0  0
    8.5361   -1.3300   20.7878 O   0  0  0  0  0  0  0  0  0  0  0  0
  1  2  1  0
  2  3  2  0
  3  4  2  0
  4  5  1  0
  5  6  2  0
  6  7  1  0
  7  8  2  0
  8  9  1  0
  9 10  2  0
 10 11  1  0
 10 12  1  0
 12 13  2  0
 13 14  1  0
 13 15  1  0
 15 16  1  0
 15 17  2  0
 17 18  1  0
  8 19  1  0
 19  5  1  0
 17  9  1  0
M  CHG  1   3   1
M  END
>  <cnnaffinity>  (1) 
-4.40289

>  <filename>  (1) 
[H]N=[N+]=Nc1nnc(-c2c([H])nc([H])c([H])c2[H])o1

$$$$
