
     RDKit          3D

 38 39  0  0  0  0  0  0  0  0999 V2000
    6.7531   -3.6618   20.7408 H   0  0  0  0  0  0  0  0  0  0  0  0
    6.5026   -2.8853   20.2141 O   0  0  0  0  0  0  0  0  0  0  0  0
    6.5834   -2.0065   21.3090 C   0  0  1  0  0  0  0  0  0  0  0  0
    5.5630   -1.7276   21.6299 H   0  0  0  0  0  0  0  0  0  0  0  0
    7.2092   -2.8472   22.3327 N   0  0  0  0  0  0  0  0  0  0  0  0
    8.6797   -3.0343   22.2288 C   0  0  0  0  0  0  0  0  0  0  0  0
    8.9813   -2.8285   21.1936 H   0  0  0  0  0  0  0  0  0  0  0  0
    8.9125   -4.0976   22.4027 H   0  0  0  0  0  0  0  0  0  0  0  0
    9.5704   -2.1854   23.1736 C   0  0  0  0  0  0  0  0  0  0  0  0
    9.1601   -1.1666   23.2072 H   0  0  0  0  0  0  0  0  0  0  0  0
   10.5631   -2.0979   22.7108 H   0  0  0  0  0  0  0  0  0  0  0  0
    9.7617   -2.6733   24.5457 N   0  0  0  0  0  0  0  0  0  0  0  0
   10.5313   -3.9042   24.6658 C   0  0  0  0  0  0  0  0  0  0  0  0
   10.8518   -4.0302   25.7095 H   0  0  0  0  0  0  0  0  0  0  0  0
    9.9859   -4.8203   24.3715 H   0  0  0  0  0  0  0  0  0  0  0  0
   11.4314   -3.8409   24.0404 H   0  0  0  0  0  0  0  0  0  0  0  0
    8.5545   -2.6489   25.3718 C   0  0  0  0  0  0  0  0  0  0  0  0
    8.2718   -1.5961   25.5522 H   0  0  0  0  0  0  0  0  0  0  0  0
    8.8142   -3.0642   26.3556 H   0  0  0  0  0  0  0  0  0  0  0  0
    7.3241   -3.3836   24.8097 C   0  0  0  0  0  0  0  0  0  0  0  0
    6.5907   -3.4800   25.6169 H   0  0  0  0  0  0  0  0  0  0  0  0
    7.5863   -4.4024   24.4957 H   0  0  0  0  0  0  0  0  0  0  0  0
    6.6435   -2.6324   23.6649 C   0  0  0  0  0  0  0  0  0  0  0  0
    6.6193   -1.5532   23.9346 H   0  0  0  0  0  0  0  0  0  0  0  0
    5.5893   -2.9530   23.6110 H   0  0  0  0  0  0  0  0  0  0  0  0
    7.3088   -0.7021   20.9554 C   0  0  0  0  0  0  0  0  0  0  0  0
    7.3534   -0.0944   21.8669 H   0  0  0  0  0  0  0  0  0  0  0  0
    8.3397   -0.9142   20.6620 H   0  0  0  0  0  0  0  0  0  0  0  0
    6.6301    0.0840   19.8622 C   0  0  0  0  0  0  0  0  0  0  0  0
    7.1568    0.1399   18.5613 C   0  0  0  0  0  0  0  0  0  0  0  0
    8.1080   -0.3534   18.3544 H   0  0  0  0  0  0  0  0  0  0  0  0
    6.5702    0.7535   17.5252 N   0  0  0  0  0  0  0  0  0  0  0  0
    5.4020    1.3583   17.7681 C   0  0  0  0  0  0  0  0  0  0  0  0
    4.9276    1.8474   16.9174 H   0  0  0  0  0  0  0  0  0  0  0  0
    4.7885    1.3837   19.0281 C   0  0  0  0  0  0  0  0  0  0  0  0
    3.8510    1.9071   19.1626 H   0  0  0  0  0  0  0  0  0  0  0  0
    5.4177    0.7444   20.0954 C   0  0  0  0  0  0  0  0  0  0  0  0
    4.9843    0.7614   21.1003 H   0  0  0  0  0  0  0  0  0  0  0  0
  1  2  1  0
  2  3  1  0
  3  4  1  1
  3  5  1  0
  5  6  1  0
  6  7  1  0
  6  8  1  0
  6  9  1  0
  9 10  1  0
  9 11  1  0
  9 12  1  0
 12 13  1  0
 13 14  1  0
 13 15  1  0
 13 16  1  0
 12 17  1  0
 17 18  1  0
 17 19  1  0
 17 20  1  0
 20 21  1  0
 20 22  1  0
 20 23  1  0
 23 24  1  0
 23 25  1  0
  3 26  1  0
 26 27  1  0
 26 28  1  0
 26 29  1  0
 29 30  2  0
 30 31  1  0
 30 32  1  0
 32 33  2  0
 33 34  1  0
 33 35  1  0
 35 36  1  0
 35 37  2  0
 37 38  1  0
 23  5  1  0
 37 29  1  0
M  END
>  <cnnaffinity>  (1) 
-3.96652

>  <filename>  (1) 
[H]O[C@@]([H])(N1C([H])([H])C([H])([H])N(C([H])([H])[H])C([H])([H])C([H])([H])C1([H])[H])C([H])([H])c1c([H])nc([H])c([H])c1[H]

$$$$
