
     RDKit          3D

 28 29  0  0  0  0  0  0  0  0999 V2000
    9.6726   -3.8434   25.9548 H   0  0  0  0  0  0  0  0  0  0  0  0
    9.6206   -2.9578   25.5720 O   0  0  0  0  0  0  0  0  0  0  0  0
    9.9229   -3.3384   24.0585 P   0  0  0  0  0  0  0  0  0  0  0  0
    8.9135   -4.3761   23.7328 O   0  0  0  0  0  0  0  0  0  0  0  0
   11.2671   -4.1517   24.2738 O   0  0  0  0  0  0  0  0  0  0  0  0
   10.9874   -4.7978   24.9396 H   0  0  0  0  0  0  0  0  0  0  0  0
   10.0156   -1.8276   22.7412 C   0  0  0  0  0  0  0  0  0  0  0  0
   10.7744   -2.1837   21.6641 F   0  0  0  0  0  0  0  0  0  0  0  0
   10.6022   -0.7258   23.2964 F   0  0  0  0  0  0  0  0  0  0  0  0
    8.7275   -1.3552   22.1868 N   0  0  0  0  0  0  0  0  0  0  0  0
    8.5928   -0.5824   21.0347 C   0  0  0  0  0  0  0  0  0  0  0  0
    9.5000    0.0568   20.5275 O   0  0  0  0  0  0  0  0  0  0  0  0
    7.3142   -0.6664   20.5225 N   0  0  0  0  0  0  0  0  0  0  0  0
    6.7175    0.0820   19.4785 C   0  0  0  0  0  0  0  0  0  0  0  0
    7.3021    0.3292   18.2108 C   0  0  0  0  0  0  0  0  0  0  0  0
    8.2882   -0.0779   18.0040 H   0  0  0  0  0  0  0  0  0  0  0  0
    6.6842    1.0240   17.2320 N   0  0  0  0  0  0  0  0  0  0  0  0
    5.4663    1.5419   17.4891 C   0  0  0  0  0  0  0  0  0  0  0  0
    4.9727    2.1441   16.7324 H   0  0  0  0  0  0  0  0  0  0  0  0
    4.8198    1.3426   18.7130 C   0  0  0  0  0  0  0  0  0  0  0  0
    3.8436    1.7796   18.8857 H   0  0  0  0  0  0  0  0  0  0  0  0
    5.4420    0.5937   19.7107 C   0  0  0  0  0  0  0  0  0  0  0  0
    4.9699    0.4148   20.6746 H   0  0  0  0  0  0  0  0  0  0  0  0
    6.6159   -1.5035   21.3616 C   0  0  0  0  0  0  0  0  0  0  0  0
    5.4995   -1.9392   21.1407 O   0  0  0  0  0  0  0  0  0  0  0  0
    7.4512   -1.9726   22.5323 C   0  0  0  0  0  0  0  0  0  0  0  0
    7.4858   -3.0642   22.5690 H   0  0  0  0  0  0  0  0  0  0  0  0
    7.0393   -1.5963   23.4727 H   0  0  0  0  0  0  0  0  0  0  0  0
  1  2  1  0
  2  3  1  0
  3  4  2  0
  3  5  1  0
  5  6  1  0
  3  7  1  0
  7  8  1  0
  7  9  1  0
  7 10  1  0
 10 11  1  0
 11 12  2  0
 11 13  1  0
 13 14  1  0
 14 15  2  0
 15 16  1  0
 15 17  1  0
 17 18  2  0
 18 19  1  0
 18 20  1  0
 20 21  1  0
 20 22  2  0
 22 23  1  0
 13 24  1  0
 24 25  2  0
 24 26  1  0
 26 27  1  0
 26 28  1  0
 26 10  1  0
 22 14  1  0
M  END
>  <cnnaffinity>  (1) 
-4.72131

>  <filename>  (1) 
[H]OP(=O)(O[H])C(F)(F)N1C(=O)N(c2c([H])nc([H])c([H])c2[H])C(=O)C1([H])[H]

$$$$
