
     RDKit          3D

 28 30  0  0  0  0  0  0  0  0999 V2000
   10.9566   -1.0161   21.2053 O   0  0  0  0  0  0  0  0  0  0  0  0
   10.5947   -1.8887   22.1954 C   0  0  0  0  0  0  0  0  0  0  0  0
   11.5413   -2.7381   22.7602 C   0  0  0  0  0  0  0  0  0  0  0  0
   11.1579   -3.6149   23.7741 C   0  0  0  0  0  0  0  0  0  0  0  0
    9.8379   -3.5956   24.2205 C   0  0  0  0  0  0  0  0  0  0  0  0
    8.9129   -2.7962   23.6880 N   0  0  0  0  0  0  0  0  0  0  0  0
    9.2447   -1.9919   22.6577 C   0  0  0  0  0  0  0  0  0  0  0  0
    8.1302   -1.2884   21.9964 C   0  0  0  0  0  0  0  0  0  0  0  0
    8.0487   -0.5568   20.8181 C   0  0  0  0  0  0  0  0  0  0  0  0
    6.7201   -0.3173   20.6013 N   0  0  0  0  0  0  0  0  0  0  0  0
    6.0912    0.3213   19.4951 C   0  0  0  0  0  0  0  0  0  0  0  0
    4.8978    1.0539   19.6307 C   0  0  0  0  0  0  0  0  0  0  0  0
    4.4194    1.7485   18.5182 C   0  0  0  0  0  0  0  0  0  0  0  0
    5.1263    1.6676   17.3123 C   0  0  0  0  0  0  0  0  0  0  0  0
    6.2118    0.8955   17.1556 N   0  0  0  0  0  0  0  0  0  0  0  0
    6.6717    0.2378   18.2233 C   0  0  0  0  0  0  0  0  0  0  0  0
    7.5459   -0.3901   18.0637 H   0  0  0  0  0  0  0  0  0  0  0  0
    4.8111    2.2364   16.4404 H   0  0  0  0  0  0  0  0  0  0  0  0
    3.5237    2.3596   18.5750 H   0  0  0  0  0  0  0  0  0  0  0  0
    4.3692    1.0800   20.5818 H   0  0  0  0  0  0  0  0  0  0  0  0
    5.9601   -0.7974   21.5999 N   0  0  0  0  0  0  0  0  0  0  0  0
    6.7908   -1.3640   22.4474 C   0  0  0  0  0  0  0  0  0  0  0  0
    6.4486   -1.7911   23.3834 H   0  0  0  0  0  0  0  0  0  0  0  0
    8.8120   -0.1364   20.1753 H   0  0  0  0  0  0  0  0  0  0  0  0
    9.5212   -4.2609   25.0224 H   0  0  0  0  0  0  0  0  0  0  0  0
   11.8611   -4.3158   24.2016 H   0  0  0  0  0  0  0  0  0  0  0  0
   12.5719   -2.6916   22.4050 H   0  0  0  0  0  0  0  0  0  0  0  0
   11.9237   -1.0002   21.1528 H   0  0  0  0  0  0  0  0  0  0  0  0
  1  2  1  0
  2  3  2  0
  3  4  1  0
  4  5  2  0
  5  6  1  0
  6  7  2  0
  7  8  1  0
  8  9  2  0
  9 10  1  0
 10 11  1  0
 11 12  2  0
 12 13  1  0
 13 14  2  0
 14 15  1  0
 15 16  2  0
 16 17  1  0
 14 18  1  0
 13 19  1  0
 12 20  1  0
 10 21  1  0
 21 22  2  0
 22 23  1  0
  9 24  1  0
  5 25  1  0
  4 26  1  0
  3 27  1  0
  1 28  1  0
  7  2  1  0
 22  8  1  0
 16 11  1  0
M  END
>  <cnnaffinity>  (1) 
-5.10871

>  <filename>  (1) 
[H]Oc1c(-c2c([H])nn(-c3c([H])nc([H])c([H])c3[H])c2[H])nc([H])c([H])c1[H]

$$$$
