
     RDKit          3D

 38 40  0  0  0  0  0  0  0  0999 V2000
   13.5646   -0.3797   23.6467 H   0  0  0  0  0  0  0  0  0  0  0  0
   12.6692   -0.0367   23.4858 O   0  0  0  0  0  0  0  0  0  0  0  0
   12.4257    0.3988   24.7310 C   0  0  0  0  0  0  0  0  0  0  0  0
   13.3157    0.2976   25.5433 O   0  0  0  0  0  0  0  0  0  0  0  0
   11.0808    0.9818   24.9388 C   0  0  0  0  0  0  0  0  0  0  0  0
   10.0011    1.1877   24.0867 C   0  0  0  0  0  0  0  0  0  0  0  0
    9.8208    0.3531   22.8629 C   0  0  0  0  0  0  0  0  0  0  0  0
    9.0610    0.7660   22.1953 H   0  0  0  0  0  0  0  0  0  0  0  0
   10.7638    0.2746   22.3149 H   0  0  0  0  0  0  0  0  0  0  0  0
    9.4512   -1.0835   23.2502 C   0  0  0  0  0  0  0  0  0  0  0  0
   10.0226   -1.6782   24.1349 O   0  0  0  0  0  0  0  0  0  0  0  0
    8.3661   -1.7329   22.4408 C   0  0  0  0  0  0  0  0  0  0  0  0
    8.2555   -2.7771   22.7382 H   0  0  0  0  0  0  0  0  0  0  0  0
    7.0360   -0.9182   22.3406 C   0  0  0  0  0  0  0  0  0  0  0  0
    6.9726   -0.0103   22.9670 H   0  0  0  0  0  0  0  0  0  0  0  0
    6.1220   -1.5099   22.4802 H   0  0  0  0  0  0  0  0  0  0  0  0
    7.3808   -0.6763   20.9551 N   0  0  0  0  0  0  0  0  0  0  0  0
    6.7138   -0.0358   19.9470 C   0  0  0  0  0  0  0  0  0  0  0  0
    7.2200    0.0175   18.6161 C   0  0  0  0  0  0  0  0  0  0  0  0
    8.1628   -0.4827   18.3901 H   0  0  0  0  0  0  0  0  0  0  0  0
    6.6140    0.6423   17.5995 N   0  0  0  0  0  0  0  0  0  0  0  0
    5.4515    1.2630   17.8652 C   0  0  0  0  0  0  0  0  0  0  0  0
    4.9788    1.7695   17.0300 H   0  0  0  0  0  0  0  0  0  0  0  0
    4.8604    1.2688   19.1343 C   0  0  0  0  0  0  0  0  0  0  0  0
    3.9222    1.7891   19.2880 H   0  0  0  0  0  0  0  0  0  0  0  0
    5.4906    0.6175   20.1946 C   0  0  0  0  0  0  0  0  0  0  0  0
    5.0704    0.6019   21.2007 H   0  0  0  0  0  0  0  0  0  0  0  0
    8.5909   -1.4619   20.9316 C   0  0  0  0  0  0  0  0  0  0  0  0
    9.4962   -0.8881   20.6681 H   0  0  0  0  0  0  0  0  0  0  0  0
    8.5565   -2.3446   20.3059 H   0  0  0  0  0  0  0  0  0  0  0  0
    9.0220    1.8388   24.8811 C   0  0  0  0  0  0  0  0  0  0  0  0
    7.6257    2.2800   24.5503 C   0  0  0  0  0  0  0  0  0  0  0  0
    7.5071    2.5785   23.5039 H   0  0  0  0  0  0  0  0  0  0  0  0
    6.9020    1.4842   24.7659 H   0  0  0  0  0  0  0  0  0  0  0  0
    7.3309    3.1158   25.1883 H   0  0  0  0  0  0  0  0  0  0  0  0
    9.4643    1.9855   26.1229 N   0  0  0  0  0  0  0  0  0  0  0  0
   10.6847    1.4601   26.1361 N   0  0  0  0  0  0  0  0  0  0  0  0
   11.1358    1.3581   27.0381 H   0  0  0  0  0  0  0  0  0  0  0  0
  1  2  1  0
  2  3  1  0
  3  4  2  0
  3  5  1  0
  5  6  2  0
  6  7  1  0
  7  8  1  0
  7  9  1  0
  7 10  1  0
 10 11  2  0
 10 12  1  0
 12 13  1  0
 12 14  1  0
 14 15  1  0
 14 16  1  0
 14 17  1  0
 17 18  1  0
 18 19  2  0
 19 20  1  0
 19 21  1  0
 21 22  2  0
 22 23  1  0
 22 24  1  0
 24 25  1  0
 24 26  2  0
 26 27  1  0
 17 28  1  0
 28 29  1  0
 28 30  1  0
  6 31  1  0
 31 32  1  0
 32 33  1  0
 32 34  1  0
 32 35  1  0
 31 36  2  0
 36 37  1  0
 37 38  1  0
 37  5  1  0
 28 12  1  0
 26 18  1  0
M  END
>  <cnnaffinity>  (1) 
-5.30095

>  <filename>  (1) 
[H]OC(=O)c1c(C([H])([H])C(=O)C2([H])C([H])([H])N(c3c([H])nc([H])c([H])c3[H])C2([H])[H])c(C([H])([H])[H])nn1[H]

$$$$
