
     RDKit          3D

 46 49  0  0  0  0  0  0  0  0999 V2000
   12.4163   -1.3588   21.9069 C   0  0  0  0  0  0  0  0  0  0  0  0
   11.0278   -0.7370   22.0976 C   0  0  0  0  0  0  0  0  0  0  0  0
   10.8880    0.1152   23.3716 C   0  0  0  0  0  0  0  0  0  0  0  0
   11.0003   -0.5973   24.5829 O   0  0  0  0  0  0  0  0  0  0  0  0
   10.1836   -1.0991   24.7030 H   0  0  0  0  0  0  0  0  0  0  0  0
   11.7009    0.8529   23.3827 H   0  0  0  0  0  0  0  0  0  0  0  0
    9.9463    0.6887   23.3239 H   0  0  0  0  0  0  0  0  0  0  0  0
    9.9611   -1.8387   21.9759 C   0  0  0  0  0  0  0  0  0  0  0  0
    8.6213   -1.3018   21.7571 N   0  0  0  0  0  0  0  0  0  0  0  0
    8.3130   -0.8713   20.5155 N   0  0  0  0  0  0  0  0  0  0  0  0
    7.1273   -0.3139   20.6736 C   0  0  0  0  0  0  0  0  0  0  0  0
    6.4251    0.2987   19.5522 C   0  0  0  0  0  0  0  0  0  0  0  0
    5.2134    0.9911   19.6756 C   0  0  0  0  0  0  0  0  0  0  0  0
    4.6787    1.5702   18.5293 C   0  0  0  0  0  0  0  0  0  0  0  0
    5.3675    1.4385   17.3181 C   0  0  0  0  0  0  0  0  0  0  0  0
    6.5151    0.7576   17.1894 N   0  0  0  0  0  0  0  0  0  0  0  0
    7.0244    0.2020   18.2884 C   0  0  0  0  0  0  0  0  0  0  0  0
    7.9526   -0.3531   18.1666 H   0  0  0  0  0  0  0  0  0  0  0  0
    4.9800    1.8887   16.4102 H   0  0  0  0  0  0  0  0  0  0  0  0
    3.7496    2.1278   18.5513 H   0  0  0  0  0  0  0  0  0  0  0  0
    4.7136    1.0736   20.6437 H   0  0  0  0  0  0  0  0  0  0  0  0
    6.6616   -0.3349   21.9436 N   0  0  0  0  0  0  0  0  0  0  0  0
    7.6112   -0.9732   22.6040 C   0  0  0  0  0  0  0  0  0  0  0  0
    7.6827   -1.2461   24.0601 C   0  0  0  0  0  0  0  0  0  0  0  0
    7.8011   -0.1977   24.9623 C   0  0  0  0  0  0  0  0  0  0  0  0
    8.0516   -0.4364   26.3326 C   0  0  0  0  0  0  0  0  0  0  0  0
    8.1503   -1.7297   26.7992 C   0  0  0  0  0  0  0  0  0  0  0  0
    7.9557   -2.8399   25.9323 C   0  0  0  0  0  0  0  0  0  0  0  0
    8.0119   -4.1750   26.4287 C   0  0  0  0  0  0  0  0  0  0  0  0
    7.7648   -5.2189   25.5798 C   0  0  0  0  0  0  0  0  0  0  0  0
    7.7897   -6.4747   26.0562 F   0  0  0  0  0  0  0  0  0  0  0  0
    7.4782   -5.0325   24.2143 C   0  0  0  0  0  0  0  0  0  0  0  0
    7.4551   -3.7498   23.7047 C   0  0  0  0  0  0  0  0  0  0  0  0
    7.6980   -2.6090   24.5381 C   0  0  0  0  0  0  0  0  0  0  0  0
    7.2690   -3.5825   22.6487 H   0  0  0  0  0  0  0  0  0  0  0  0
    7.2903   -5.9123   23.6100 H   0  0  0  0  0  0  0  0  0  0  0  0
    8.2595   -4.3837   27.4636 H   0  0  0  0  0  0  0  0  0  0  0  0
    8.3782   -1.9339   27.8359 H   0  0  0  0  0  0  0  0  0  0  0  0
    8.1898    0.3983   27.0149 H   0  0  0  0  0  0  0  0  0  0  0  0
    7.7299    0.8287   24.6059 H   0  0  0  0  0  0  0  0  0  0  0  0
   10.1743   -2.4440   21.0923 H   0  0  0  0  0  0  0  0  0  0  0  0
    9.9499   -2.5087   22.8424 H   0  0  0  0  0  0  0  0  0  0  0  0
   10.8344   -0.0349   21.2730 H   0  0  0  0  0  0  0  0  0  0  0  0
   12.5802   -2.1818   22.6058 H   0  0  0  0  0  0  0  0  0  0  0  0
   13.2135   -0.6234   22.0500 H   0  0  0  0  0  0  0  0  0  0  0  0
   12.5230   -1.7773   20.8998 H   0  0  0  0  0  0  0  0  0  0  0  0
  1  2  1  0
  2  3  1  0
  3  4  1  0
  4  5  1  0
  3  6  1  0
  3  7  1  0
  2  8  1  0
  8  9  1  0
  9 10  1  0
 10 11  2  0
 11 12  1  0
 12 13  2  0
 13 14  1  0
 14 15  2  0
 15 16  1  0
 16 17  2  0
 17 18  1  0
 15 19  1  0
 14 20  1  0
 13 21  1  0
 11 22  1  0
 22 23  2  0
 23 24  1  0
 24 25  2  0
 25 26  1  0
 26 27  2  0
 27 28  1  0
 28 29  2  0
 29 30  1  0
 30 31  1  0
 30 32  2  0
 32 33  1  0
 33 34  2  0
 33 35  1  0
 32 36  1  0
 29 37  1  0
 27 38  1  0
 26 39  1  0
 25 40  1  0
  8 41  1  0
  8 42  1  0
  2 43  1  0
  1 44  1  0
  1 45  1  0
  1 46  1  0
 23  9  1  0
 34 24  1  0
 17 12  1  0
 34 28  1  0
M  END
>  <cnnaffinity>  (1) 
-5.99553

>  <filename>  (1) 
[H]OC([H])([H])C([H])(C([H])([H])[H])C([H])([H])n1nc(-c2c([H])nc([H])c([H])c2[H])nc1-c1c([H])c([H])c([H])c2c([H])c(F)c([H])c([H])c12

$$$$
