
     RDKit          3D

 47 49  0  0  0  0  0  0  0  0999 V2000
   12.0593    6.5155   21.7016 H   0  0  0  0  0  0  0  0  0  0  0  0
   12.6757    5.7883   21.5060 O   0  0  0  0  0  0  0  0  0  0  0  0
   12.1586    4.6591   22.1391 N   0  0  0  0  0  0  0  0  0  0  0  0
   11.7452    4.0212   21.4655 H   0  0  0  0  0  0  0  0  0  0  0  0
   12.9098    4.0058   23.1128 C   0  0  0  0  0  0  0  0  0  0  0  0
   13.7176    4.5346   23.8437 O   0  0  0  0  0  0  0  0  0  0  0  0
   12.4630    2.5561   23.2461 C   0  0  0  0  0  0  0  0  0  0  0  0
   12.3957    2.0763   22.2590 H   0  0  0  0  0  0  0  0  0  0  0  0
   13.2571    2.0517   23.7989 H   0  0  0  0  0  0  0  0  0  0  0  0
   11.1260    2.4393   23.9998 C   0  0  0  0  0  0  0  0  0  0  0  0
   10.3172    2.8253   23.3653 H   0  0  0  0  0  0  0  0  0  0  0  0
   11.1447    3.1062   24.8558 H   0  0  0  0  0  0  0  0  0  0  0  0
   10.7812    1.0134   24.4432 C   0  0  0  0  0  0  0  0  0  0  0  0
    9.8712    1.0412   25.0584 H   0  0  0  0  0  0  0  0  0  0  0  0
   11.5694    0.6286   25.1057 H   0  0  0  0  0  0  0  0  0  0  0  0
   10.5977    0.0511   23.2617 C   0  0  0  0  0  0  0  0  0  0  0  0
   10.2738   -0.9268   23.6285 H   0  0  0  0  0  0  0  0  0  0  0  0
   11.5881   -0.1241   22.8150 H   0  0  0  0  0  0  0  0  0  0  0  0
    9.6575    0.5869   22.1574 C   0  0  2  0  0  0  0  0  0  0  0  0
   10.0695    1.5614   21.8706 H   0  0  0  0  0  0  0  0  0  0  0  0
    8.1906    0.8318   22.6203 C   0  0  0  0  0  0  0  0  0  0  0  0
    8.1625    1.1029   23.6834 H   0  0  0  0  0  0  0  0  0  0  0  0
    7.7709    1.6829   22.0655 H   0  0  0  0  0  0  0  0  0  0  0  0
    7.2528   -0.3777   22.3863 C   0  0  1  0  0  0  0  0  0  0  0  0
    6.2334   -0.1247   22.7007 H   0  0  0  0  0  0  0  0  0  0  0  0
    7.2932   -0.7827   20.9687 N   0  0  0  0  0  0  0  0  0  0  0  0
    6.6883   -0.0477   19.9386 C   0  0  0  0  0  0  0  0  0  0  0  0
    7.1923   -0.0037   18.6037 C   0  0  0  0  0  0  0  0  0  0  0  0
    8.1187   -0.5190   18.3577 H   0  0  0  0  0  0  0  0  0  0  0  0
    6.6100    0.6489   17.5883 N   0  0  0  0  0  0  0  0  0  0  0  0
    5.4680    1.3038   17.8430 C   0  0  0  0  0  0  0  0  0  0  0  0
    5.0151    1.8231   17.0020 H   0  0  0  0  0  0  0  0  0  0  0  0
    4.8617    1.3117   19.1023 C   0  0  0  0  0  0  0  0  0  0  0  0
    3.9285    1.8485   19.2452 H   0  0  0  0  0  0  0  0  0  0  0  0
    5.4692    0.6299   20.1601 C   0  0  0  0  0  0  0  0  0  0  0  0
    5.0049    0.6012   21.1433 H   0  0  0  0  0  0  0  0  0  0  0  0
    8.6309   -1.3726   20.8363 C   0  0  2  0  0  0  0  0  0  0  0  0
    8.7272   -1.8879   19.8855 H   0  0  0  0  0  0  0  0  0  0  0  0
    8.6436   -2.3502   22.0237 C   0  0  0  0  0  0  0  0  0  0  0  0
    9.6565   -2.5694   22.3719 H   0  0  0  0  0  0  0  0  0  0  0  0
    8.2047   -3.2998   21.7073 H   0  0  0  0  0  0  0  0  0  0  0  0
    7.7358   -1.6679   23.0799 C   0  0  0  0  0  0  0  0  0  0  0  0
    6.8768   -2.3014   23.3149 H   0  0  0  0  0  0  0  0  0  0  0  0
    8.2405   -1.4611   24.0276 H   0  0  0  0  0  0  0  0  0  0  0  0
    9.7070   -0.2744   20.8799 C   0  0  0  0  0  0  0  0  0  0  0  0
    9.5405    0.3726   20.0081 H   0  0  0  0  0  0  0  0  0  0  0  0
   10.6988   -0.7278   20.7594 H   0  0  0  0  0  0  0  0  0  0  0  0
  1  2  1  0
  2  3  1  0
  3  4  1  0
  3  5  1  0
  5  6  2  0
  5  7  1  0
  7  8  1  0
  7  9  1  0
  7 10  1  0
 10 11  1  0
 10 12  1  0
 10 13  1  0
 13 14  1  0
 13 15  1  0
 13 16  1  0
 16 17  1  0
 16 18  1  0
 16 19  1  0
 19 20  1  6
 19 21  1  0
 21 22  1  0
 21 23  1  0
 21 24  1  0
 24 25  1  1
 24 26  1  0
 26 27  1  0
 27 28  2  0
 28 29  1  0
 28 30  1  0
 30 31  2  0
 31 32  1  0
 31 33  1  0
 33 34  1  0
 33 35  2  0
 35 36  1  0
 26 37  1  0
 37 38  1  6
 37 39  1  0
 39 40  1  0
 39 41  1  0
 39 42  1  0
 42 43  1  0
 42 44  1  0
 37 45  1  0
 45 46  1  0
 45 47  1  0
 45 19  1  0
 42 24  1  0
 35 27  1  0
M  END
>  <cnnaffinity>  (1) 
-5.80621

>  <filename>  (1) 
[H]ON([H])C(=O)C([H])([H])C([H])([H])C([H])([H])C([H])([H])[C@]1([H])C([H])([H])[C@@]2([H])N(c3c([H])nc([H])c([H])c3[H])[C@]([H])(C([H])([H])C2([H])[H])C1([H])[H]

$$$$
