
     RDKit          3D

 43 44  0  0  0  0  0  0  0  0999 V2000
   14.6907    2.3065   23.9489 H   0  0  0  0  0  0  0  0  0  0  0  0
   13.7548    2.0514   23.8225 O   0  0  0  0  0  0  0  0  0  0  0  0
   13.2144    3.0179   22.9718 N   0  0  0  0  0  0  0  0  0  0  0  0
   12.9475    2.6013   22.0881 H   0  0  0  0  0  0  0  0  0  0  0  0
   12.2580    3.9182   23.4471 C   0  0  0  0  0  0  0  0  0  0  0  0
   12.2175    4.3849   24.5596 O   0  0  0  0  0  0  0  0  0  0  0  0
   11.2618    4.2842   22.3737 C   0  0  0  0  0  0  0  0  0  0  0  0
   11.7344    4.1512   21.3878 H   0  0  0  0  0  0  0  0  0  0  0  0
   11.0163    5.3423   22.4973 H   0  0  0  0  0  0  0  0  0  0  0  0
    9.9657    3.4508   22.5165 C   0  0  0  0  0  0  0  0  0  0  0  0
    9.6684    3.4109   23.5769 H   0  0  0  0  0  0  0  0  0  0  0  0
    9.1381    3.9619   22.0059 H   0  0  0  0  0  0  0  0  0  0  0  0
   10.0975    2.0212   21.9816 C   0  0  0  0  0  0  0  0  0  0  0  0
   10.7333    1.4452   22.6749 H   0  0  0  0  0  0  0  0  0  0  0  0
   10.6126    2.0226   21.0054 H   0  0  0  0  0  0  0  0  0  0  0  0
    8.7169    1.3718   21.8194 C   0  0  0  0  0  0  0  0  0  0  0  0
    8.1614    1.9371   21.0527 H   0  0  0  0  0  0  0  0  0  0  0  0
    8.1467    1.4915   22.7552 H   0  0  0  0  0  0  0  0  0  0  0  0
    8.7183   -0.1098   21.4250 C   0  0  1  0  0  0  0  0  0  0  0  0
    9.2795   -0.2090   20.4811 H   0  0  0  0  0  0  0  0  0  0  0  0
    9.4898   -1.0038   22.4212 C   0  0  0  0  0  0  0  0  0  0  0  0
   10.5410   -0.6880   22.4512 H   0  0  0  0  0  0  0  0  0  0  0  0
    9.0733   -0.8591   23.4399 H   0  0  0  0  0  0  0  0  0  0  0  0
    9.4675   -2.3976   21.9749 N   0  0  0  0  0  0  0  0  0  0  0  0
   10.0548   -2.9664   22.5758 H   0  0  0  0  0  0  0  0  0  0  0  0
    8.1185   -2.9457   21.9168 C   0  0  0  0  0  0  0  0  0  0  0  0
    7.5975   -2.9602   22.8949 H   0  0  0  0  0  0  0  0  0  0  0  0
    8.1807   -3.9877   21.5808 H   0  0  0  0  0  0  0  0  0  0  0  0
    7.3250   -2.1308   20.9057 C   0  0  0  0  0  0  0  0  0  0  0  0
    6.3391   -2.5612   20.7272 H   0  0  0  0  0  0  0  0  0  0  0  0
    7.8688   -2.1434   19.9740 H   0  0  0  0  0  0  0  0  0  0  0  0
    7.2578   -0.6280   21.1991 C   0  0  2  0  0  0  0  0  0  0  0  0
    6.6746   -0.4718   22.1207 H   0  0  0  0  0  0  0  0  0  0  0  0
    6.5595    0.0904   20.0397 C   0  0  0  0  0  0  0  0  0  0  0  0
    7.1277    0.0942   18.7501 C   0  0  0  0  0  0  0  0  0  0  0  0
    8.0759   -0.4180   18.5699 H   0  0  0  0  0  0  0  0  0  0  0  0
    6.5882    0.6821   17.6708 N   0  0  0  0  0  0  0  0  0  0  0  0
    5.4163    1.3091   17.8390 C   0  0  0  0  0  0  0  0  0  0  0  0
    4.9891    1.7762   16.9521 H   0  0  0  0  0  0  0  0  0  0  0  0
    4.7477    1.3647   19.0640 C   0  0  0  0  0  0  0  0  0  0  0  0
    3.8026    1.8902   19.1333 H   0  0  0  0  0  0  0  0  0  0  0  0
    5.3276    0.7491   20.1807 C   0  0  0  0  0  0  0  0  0  0  0  0
    4.8337    0.7813   21.1528 H   0  0  0  0  0  0  0  0  0  0  0  0
  1  2  1  0
  2  3  1  0
  3  4  1  0
  3  5  1  0
  5  6  2  0
  5  7  1  0
  7  8  1  0
  7  9  1  0
  7 10  1  0
 10 11  1  0
 10 12  1  0
 10 13  1  0
 13 14  1  0
 13 15  1  0
 13 16  1  0
 16 17  1  0
 16 18  1  0
 16 19  1  0
 19 20  1  6
 19 21  1  0
 21 22  1  0
 21 23  1  0
 21 24  1  0
 24 25  1  0
 24 26  1  0
 26 27  1  0
 26 28  1  0
 26 29  1  0
 29 30  1  0
 29 31  1  0
 29 32  1  0
 32 33  1  1
 32 34  1  0
 34 35  2  0
 35 36  1  0
 35 37  1  0
 37 38  2  0
 38 39  1  0
 38 40  1  0
 40 41  1  0
 40 42  2  0
 42 43  1  0
 32 19  1  0
 42 34  1  0
M  END
>  <cnnaffinity>  (1) 
-5.24556

>  <filename>  (1) 
[H]ON([H])C(=O)C([H])([H])C([H])([H])C([H])([H])C([H])([H])[C@@]1([H])C([H])([H])N([H])C([H])([H])C([H])([H])[C@]1([H])c1c([H])nc([H])c([H])c1[H]

$$$$
