
     RDKit          3D

 29 30  0  0  0  0  0  0  0  0999 V2000
    7.7681   -3.1069   20.8834 H   0  0  0  0  0  0  0  0  0  0  0  0
    8.5122   -3.0029   21.5097 O   0  0  0  0  0  0  0  0  0  0  0  0
    8.4348   -1.5989   21.6200 C   0  0  1  0  0  0  0  0  0  0  0  0
    8.4113   -1.2776   22.6682 H   0  0  0  0  0  0  0  0  0  0  0  0
    9.7272   -0.7566   21.2452 C   0  0  0  0  0  0  0  0  0  0  0  0
    9.7195    0.5820   21.2667 N   0  0  0  0  0  0  0  0  0  0  0  0
   10.8796    1.0452   21.9188 C   0  0  0  0  0  0  0  0  0  0  0  0
   11.0764    2.5443   22.1879 C   0  0  0  0  0  0  0  0  0  0  0  0
    9.9190    3.1963   22.3185 F   0  0  0  0  0  0  0  0  0  0  0  0
   11.7687    2.7615   23.3328 F   0  0  0  0  0  0  0  0  0  0  0  0
   11.7837    3.1368   21.2079 F   0  0  0  0  0  0  0  0  0  0  0  0
   11.8284    0.0820   22.3433 C   0  0  0  0  0  0  0  0  0  0  0  0
   12.1003    0.0617   23.3889 H   0  0  0  0  0  0  0  0  0  0  0  0
   11.3110   -1.3590   21.8873 C   0  0  0  0  0  0  0  0  0  0  0  0
   12.0396   -1.6704   20.5594 H   0  0  0  0  0  0  0  0  0  0  0  0
   11.5094   -1.5178   21.6184 C   0  0  0  0  0  0  0  0  0  0  0  0
   11.6366   -2.4927   22.3182 H   0  0  0  0  0  0  0  0  0  0  0  0
    7.1096   -1.4089   20.9428 N   0  0  0  0  0  0  0  0  0  0  0  0
    6.3649   -1.5877   21.6111 H   0  0  0  0  0  0  0  0  0  0  0  0
    6.7457   -0.4335   20.0011 C   0  0  0  0  0  0  0  0  0  0  0  0
    7.5357   -0.1433   18.8524 C   0  0  0  0  0  0  0  0  0  0  0  0
    8.5068   -0.6367   18.7758 H   0  0  0  0  0  0  0  0  0  0  0  0
    7.1777    0.7099   17.8801 N   0  0  0  0  0  0  0  0  0  0  0  0
    6.0065    1.3530   18.0261 C   0  0  0  0  0  0  0  0  0  0  0  0
    5.7410    2.0569   17.2371 H   0  0  0  0  0  0  0  0  0  0  0  0
    5.1582    1.1580   19.1214 C   0  0  0  0  0  0  0  0  0  0  0  0
    4.2387    1.7319   19.1916 H   0  0  0  0  0  0  0  0  0  0  0  0
    5.5184    0.2391   20.1142 C   0  0  0  0  0  0  0  0  0  0  0  0
    4.8779    0.0521   20.9763 H   0  0  0  0  0  0  0  0  0  0  0  0
  1  2  1  0
  2  3  1  0
  3  4  1  1
  3  5  1  0
  5  6  2  0
  6  7  1  0
  7  8  1  0
  8  9  1  0
  8 10  1  0
  8 11  1  0
  7 12  2  0
 12 13  1  0
 12 14  1  0
 14 15  1  0
 14 16  2  0
 16 17  1  0
  3 18  1  0
 18 19  1  0
 18 20  1  0
 20 21  2  0
 21 22  1  0
 21 23  1  0
 23 24  2  0
 24 25  1  0
 24 26  1  0
 26 27  1  0
 26 28  2  0
 28 29  1  0
 16  5  1  0
 28 20  1  0
M  END
>  <cnnaffinity>  (1) 
-5.50145

>  <filename>  (1) 
[H]O[C@@]([H])(c1nc(C(F)(F)F)c([H])c([H])c1[H])N([H])c1c([H])nc([H])c([H])c1[H]

$$$$
