
     RDKit          3D

 30 31  0  0  0  0  0  0  0  0999 V2000
   10.9371    0.6142   20.5879 H   0  0  0  0  0  0  0  0  0  0  0  0
   10.1176    0.6107   21.0982 O   0  0  0  0  0  0  0  0  0  0  0  0
   10.6917   -0.0213   22.4236 P   0  0  0  0  0  0  0  0  0  0  0  0
   12.0296    0.5835   22.5827 O   0  0  0  0  0  0  0  0  0  0  0  0
   11.1256   -1.4867   22.0517 O   0  0  0  0  0  0  0  0  0  0  0  0
   11.9785   -1.2484   21.6509 H   0  0  0  0  0  0  0  0  0  0  0  0
    9.4883    0.1745   23.8492 C   0  0  0  0  0  0  0  0  0  0  0  0
    9.1665    1.4854   24.0834 F   0  0  0  0  0  0  0  0  0  0  0  0
    9.9419   -0.3188   25.0416 F   0  0  0  0  0  0  0  0  0  0  0  0
    8.2631   -0.6100   23.3798 C   0  0  1  0  0  0  0  0  0  0  0  0
    7.5164   -0.6424   24.1851 H   0  0  0  0  0  0  0  0  0  0  0  0
    7.6396    0.0797   22.1918 C   0  0  0  0  0  0  0  0  0  0  0  0
    7.2966    1.1024   22.2979 H   0  0  0  0  0  0  0  0  0  0  0  0
    7.4262   -0.5334   20.9856 C   0  0  0  0  0  0  0  0  0  0  0  0
    6.7477    0.1401   19.9099 C   0  0  0  0  0  0  0  0  0  0  0  0
    7.2319    0.0227   18.6018 C   0  0  0  0  0  0  0  0  0  0  0  0
    8.1527   -0.5292   18.4331 H   0  0  0  0  0  0  0  0  0  0  0  0
    6.6027    0.5580   17.5412 N   0  0  0  0  0  0  0  0  0  0  0  0
    5.4566    1.2307   17.7597 C   0  0  0  0  0  0  0  0  0  0  0  0
    4.9239    1.6538   16.9148 H   0  0  0  0  0  0  0  0  0  0  0  0
    4.9161    1.3925   19.0408 C   0  0  0  0  0  0  0  0  0  0  0  0
    3.9800    1.9238   19.1650 H   0  0  0  0  0  0  0  0  0  0  0  0
    5.5768    0.8595   20.1411 C   0  0  0  0  0  0  0  0  0  0  0  0
    5.1711    0.9583   21.1479 H   0  0  0  0  0  0  0  0  0  0  0  0
    7.8123   -1.8400   20.7846 N   0  0  0  0  0  0  0  0  0  0  0  0
    7.3737   -2.3562   20.0299 H   0  0  0  0  0  0  0  0  0  0  0  0
    8.2498   -2.5802   21.8506 C   0  0  0  0  0  0  0  0  0  0  0  0
    8.2372   -4.2216   21.7223 S   0  0  0  0  0  0  0  0  0  0  0  0
    8.6594   -1.9873   23.0269 N   0  0  0  0  0  0  0  0  0  0  0  0
    8.8009   -2.6469   23.7876 H   0  0  0  0  0  0  0  0  0  0  0  0
  1  2  1  0
  2  3  1  0
  3  4  2  0
  3  5  1  0
  5  6  1  0
  3  7  1  0
  7  8  1  0
  7  9  1  0
  7 10  1  0
 10 11  1  1
 10 12  1  0
 12 13  1  0
 12 14  2  0
 14 15  1  0
 15 16  2  0
 16 17  1  0
 16 18  1  0
 18 19  2  0
 19 20  1  0
 19 21  1  0
 21 22  1  0
 21 23  2  0
 23 24  1  0
 14 25  1  0
 25 26  1  0
 25 27  1  0
 27 28  2  0
 27 29  1  0
 29 30  1  0
 29 10  1  0
 23 15  1  0
M  END
>  <cnnaffinity>  (1) 
-4.68331

>  <filename>  (1) 
[H]OP(=O)(O[H])C(F)(F)[C@@]1([H])C([H])=C(c2c([H])nc([H])c([H])c2[H])N([H])C(=S)N1[H]

$$$$
