
     RDKit          3D

 31 32  0  0  0  0  0  0  0  0999 V2000
    9.1158   -1.5059   21.2531 H   0  0  0  0  0  0  0  0  0  0  0  0
    8.6370   -1.1632   20.4865 O   0  0  0  0  0  0  0  0  0  0  0  0
    7.4012   -0.7087   21.0154 C   0  0  2  0  0  0  0  0  0  0  0  0
    6.6554    0.0120   19.9076 C   0  0  0  0  0  0  0  0  0  0  0  0
    7.1658    0.0499   18.6048 C   0  0  0  0  0  0  0  0  0  0  0  0
    8.1165   -0.4317   18.3887 H   0  0  0  0  0  0  0  0  0  0  0  0
    6.5636    0.6633   17.5770 N   0  0  0  0  0  0  0  0  0  0  0  0
    5.4058    1.2868   17.8290 C   0  0  0  0  0  0  0  0  0  0  0  0
    4.9425    1.7924   16.9845 H   0  0  0  0  0  0  0  0  0  0  0  0
    4.8053    1.3096   19.0911 C   0  0  0  0  0  0  0  0  0  0  0  0
    3.8750    1.8403   19.2380 H   0  0  0  0  0  0  0  0  0  0  0  0
    5.4340    0.6551   20.1462 C   0  0  0  0  0  0  0  0  0  0  0  0
    4.9839    0.6611   21.1453 H   0  0  0  0  0  0  0  0  0  0  0  0
    7.6994    0.2661   22.1663 C   0  0  0  0  0  0  0  0  0  0  0  0
    8.3274   -0.1960   22.9405 H   0  0  0  0  0  0  0  0  0  0  0  0
    6.7818    0.6227   22.6440 H   0  0  0  0  0  0  0  0  0  0  0  0
    8.2253    1.1361   21.7622 H   0  0  0  0  0  0  0  0  0  0  0  0
    6.5320   -1.9023   21.4648 C   0  0  0  0  0  0  0  0  0  0  0  0
    5.6079   -1.4577   21.8373 H   0  0  0  0  0  0  0  0  0  0  0  0
    6.2453   -2.4766   20.5757 H   0  0  0  0  0  0  0  0  0  0  0  0
    7.1404   -2.8516   22.5195 C   0  0  0  0  0  0  0  0  0  0  0  0
    8.0087   -3.3755   22.0941 H   0  0  0  0  0  0  0  0  0  0  0  0
    7.4978   -2.2824   23.3879 H   0  0  0  0  0  0  0  0  0  0  0  0
    6.1501   -3.8703   23.0135 C   0  0  0  0  0  0  0  0  0  0  0  0
    5.9587   -5.0775   22.3797 N   0  0  0  0  0  0  0  0  0  0  0  0
    4.9827   -5.6632   23.0187 C   0  0  0  0  0  0  0  0  0  0  0  0
    4.5730   -6.6431   22.7969 H   0  0  0  0  0  0  0  0  0  0  0  0
    4.5126   -4.8990   24.0387 N   0  0  0  0  0  0  0  0  0  0  0  0
    3.7730   -5.1574   24.6705 H   0  0  0  0  0  0  0  0  0  0  0  0
    5.2627   -3.7407   24.0452 C   0  0  0  0  0  0  0  0  0  0  0  0
    5.0952   -2.9251   24.7373 H   0  0  0  0  0  0  0  0  0  0  0  0
  1  2  1  0
  3  2  1  6
  3  4  1  0
  4  5  2  0
  5  6  1  0
  5  7  1  0
  7  8  2  0
  8  9  1  0
  8 10  1  0
 10 11  1  0
 10 12  2  0
 12 13  1  0
  3 14  1  0
 14 15  1  0
 14 16  1  0
 14 17  1  0
  3 18  1  0
 18 19  1  0
 18 20  1  0
 18 21  1  0
 21 22  1  0
 21 23  1  0
 21 24  1  0
 24 25  1  0
 25 26  2  0
 26 27  1  0
 26 28  1  0
 28 29  1  0
 28 30  1  0
 30 31  1  0
 12  4  1  0
 30 24  2  0
M  END
>  <cnnaffinity>  (1) 
-4.52504

>  <filename>  (1) 
[H]O[C@](c1c([H])nc([H])c([H])c1[H])(C([H])([H])[H])C([H])([H])C([H])([H])c1nc([H])n([H])c1[H]

$$$$
