
     RDKit          3D

 34 34  0  0  0  0  0  0  0  0999 V2000
   13.2507    4.4500   23.5626 H   0  0  0  0  0  0  0  0  0  0  0  0
   12.5453    4.2370   22.9246 O   0  0  0  0  0  0  0  0  0  0  0  0
   11.9500    3.0491   23.3645 N   0  0  0  0  0  0  0  0  0  0  0  0
   10.9459    3.1142   23.2577 H   0  0  0  0  0  0  0  0  0  0  0  0
   12.4489    1.8062   22.9787 C   0  0  0  0  0  0  0  0  0  0  0  0
   13.5920    1.5998   22.6434 O   0  0  0  0  0  0  0  0  0  0  0  0
   11.4426    0.6838   23.1640 C   0  0  0  0  0  0  0  0  0  0  0  0
   11.9885   -0.0627   23.7495 H   0  0  0  0  0  0  0  0  0  0  0  0
   10.5999    1.0245   23.7739 H   0  0  0  0  0  0  0  0  0  0  0  0
   10.9507    0.0446   21.8491 C   0  0  0  0  0  0  0  0  0  0  0  0
   11.8295   -0.2512   21.2622 H   0  0  0  0  0  0  0  0  0  0  0  0
   10.4189   -0.8874   22.0931 H   0  0  0  0  0  0  0  0  0  0  0  0
   10.0445    0.9439   20.9948 C   0  0  0  0  0  0  0  0  0  0  0  0
   10.6148    1.8200   20.6599 H   0  0  0  0  0  0  0  0  0  0  0  0
    9.7663    0.4076   20.0757 H   0  0  0  0  0  0  0  0  0  0  0  0
    8.7391    1.4085   21.6619 C   0  0  0  0  0  0  0  0  0  0  0  0
    8.1742    2.0163   20.9403 H   0  0  0  0  0  0  0  0  0  0  0  0
    8.9454    2.0775   22.5111 H   0  0  0  0  0  0  0  0  0  0  0  0
    7.8368    0.2574   22.1415 C   0  0  0  0  0  0  0  0  0  0  0  0
    8.3404   -0.3369   22.9125 H   0  0  0  0  0  0  0  0  0  0  0  0
    6.9333    0.6622   22.6135 H   0  0  0  0  0  0  0  0  0  0  0  0
    7.4125   -0.6920   21.0085 C   0  0  1  0  0  0  0  0  0  0  0  0
    8.2806   -1.2089   20.5816 H   0  0  0  0  0  0  0  0  0  0  0  0
    6.4278   -2.0375   21.7115 Cl  0  0  0  0  0  0  0  0  0  0  0  0
    6.6457   -0.0092   19.8951 C   0  0  0  0  0  0  0  0  0  0  0  0
    7.1643    0.0486   18.5917 C   0  0  0  0  0  0  0  0  0  0  0  0
    8.1143   -0.4409   18.3559 H   0  0  0  0  0  0  0  0  0  0  0  0
    6.5711    0.6792   17.5683 N   0  0  0  0  0  0  0  0  0  0  0  0
    5.4105    1.3052   17.8206 C   0  0  0  0  0  0  0  0  0  0  0  0
    4.9466    1.8144   16.9779 H   0  0  0  0  0  0  0  0  0  0  0  0
    4.7991    1.3201   19.0786 C   0  0  0  0  0  0  0  0  0  0  0  0
    3.8612    1.8561   19.2199 H   0  0  0  0  0  0  0  0  0  0  0  0
    5.4318    0.6582   20.1318 C   0  0  0  0  0  0  0  0  0  0  0  0
    4.9910    0.6545   21.1277 H   0  0  0  0  0  0  0  0  0  0  0  0
  1  2  1  0
  2  3  1  0
  3  4  1  0
  3  5  1  0
  5  6  2  0
  5  7  1  0
  7  8  1  0
  7  9  1  0
  7 10  1  0
 10 11  1  0
 10 12  1  0
 10 13  1  0
 13 14  1  0
 13 15  1  0
 13 16  1  0
 16 17  1  0
 16 18  1  0
 16 19  1  0
 19 20  1  0
 19 21  1  0
 19 22  1  0
 22 23  1  6
 22 24  1  0
 22 25  1  0
 25 26  2  0
 26 27  1  0
 26 28  1  0
 28 29  2  0
 29 30  1  0
 29 31  1  0
 31 32  1  0
 31 33  2  0
 33 34  1  0
 33 25  1  0
M  END
>  <cnnaffinity>  (1) 
-4.53735

>  <filename>  (1) 
[H]ON([H])C(=O)C([H])([H])C([H])([H])C([H])([H])C([H])([H])C([H])([H])[C@@]([H])(Cl)c1c([H])nc([H])c([H])c1[H]

$$$$
