
     RDKit          3D

 30 31  0  0  0  0  0  0  0  0999 V2000
    7.8313   -6.7397   27.0004 H   0  0  0  0  0  0  0  0  0  0  0  0
    7.2703   -6.0077   26.6770 O   0  0  0  0  0  0  0  0  0  0  0  0
    7.8742   -5.8078   25.5021 C   0  0  0  0  0  0  0  0  0  0  0  0
    8.8244   -6.4953   25.2001 O   0  0  0  0  0  0  0  0  0  0  0  0
    7.3321   -4.7018   24.5932 C   0  0  0  0  0  0  0  0  0  0  0  0
    7.6705   -4.7762   23.2821 O   0  0  0  0  0  0  0  0  0  0  0  0
    8.2062   -5.5649   23.1046 H   0  0  0  0  0  0  0  0  0  0  0  0
    6.5672   -3.6682   25.0013 C   0  0  0  0  0  0  0  0  0  0  0  0
    5.9972   -3.6978   25.9247 H   0  0  0  0  0  0  0  0  0  0  0  0
    6.4230   -2.3554   24.3128 C   0  0  0  0  0  0  0  0  0  0  0  0
    5.6277   -1.5622   24.7803 O   0  0  0  0  0  0  0  0  0  0  0  0
    7.3508   -1.9462   23.1359 C   0  0  0  0  0  0  0  0  0  0  0  0
    6.6836   -1.2301   22.1585 O   0  0  0  0  0  0  0  0  0  0  0  0
    7.3764   -0.7572   21.0753 C   0  0  0  0  0  0  0  0  0  0  0  0
    6.5733   -0.0904   20.0237 C   0  0  0  0  0  0  0  0  0  0  0  0
    7.1172   -0.0551   18.7244 C   0  0  0  0  0  0  0  0  0  0  0  0
    8.0311   -0.5998   18.4922 H   0  0  0  0  0  0  0  0  0  0  0  0
    6.5738    0.5874   17.6912 N   0  0  0  0  0  0  0  0  0  0  0  0
    5.4332    1.2565   17.9117 C   0  0  0  0  0  0  0  0  0  0  0  0
    5.0247    1.7967   17.0571 H   0  0  0  0  0  0  0  0  0  0  0  0
    4.7842    1.2664   19.1510 C   0  0  0  0  0  0  0  0  0  0  0  0
    3.8634    1.8325   19.2509 H   0  0  0  0  0  0  0  0  0  0  0  0
    5.3493    0.5742   20.2282 C   0  0  0  0  0  0  0  0  0  0  0  0
    4.8596    0.5637   21.2025 H   0  0  0  0  0  0  0  0  0  0  0  0
    8.7226   -0.8456   21.0037 C   0  0  0  0  0  0  0  0  0  0  0  0
    9.2869   -0.3815   20.2143 H   0  0  0  0  0  0  0  0  0  0  0  0
    9.5020   -1.4938   22.0373 C   0  0  0  0  0  0  0  0  0  0  0  0
   10.7183   -1.5610   22.0081 O   0  0  0  0  0  0  0  0  0  0  0  0
    8.7040   -2.0680   23.1198 C   0  0  0  0  0  0  0  0  0  0  0  0
    9.2724   -2.5947   23.8746 H   0  0  0  0  0  0  0  0  0  0  0  0
  1  2  1  0
  2  3  1  0
  3  4  2  0
  3  5  1  0
  5  6  1  0
  6  7  1  0
  5  8  2  3
  8  9  1  0
  8 10  1  0
 10 11  2  0
 10 12  1  0
 12 13  1  0
 13 14  1  0
 14 15  1  0
 15 16  2  0
 16 17  1  0
 16 18  1  0
 18 19  2  0
 19 20  1  0
 19 21  1  0
 21 22  1  0
 21 23  2  0
 23 24  1  0
 14 25  2  0
 25 26  1  0
 25 27  1  0
 27 28  2  0
 27 29  1  0
 29 30  1  0
 29 12  2  0
 23 15  1  0
M  END
>  <cnnaffinity>  (1) 
-4.76379

>  <filename>  (1) 
[H]OC(=O)C(O[H])=C([H])C(=O)c1oc(-c2c([H])nc([H])c([H])c2[H])c([H])c(=O)c1[H]

$$$$
