
     RDKit          3D

 46 49  0  0  0  0  0  0  0  0999 V2000
   12.4382   -0.2468   22.7697 C   0  0  0  0  0  0  0  0  0  0  0  0
   12.1574    1.2251   23.1021 C   0  0  0  0  0  0  0  0  0  0  0  0
   13.4531    1.9874   23.3681 C   0  0  0  0  0  0  0  0  0  0  0  0
   13.2286    3.3652   23.6512 O   0  0  0  0  0  0  0  0  0  0  0  0
   13.5266    3.8767   22.8931 H   0  0  0  0  0  0  0  0  0  0  0  0
   14.1510    1.8505   22.5326 H   0  0  0  0  0  0  0  0  0  0  0  0
   13.9236    1.5408   24.2481 H   0  0  0  0  0  0  0  0  0  0  0  0
   11.3119    1.9183   22.0217 C   0  0  0  0  0  0  0  0  0  0  0  0
    9.9182    1.4961   22.0563 N   0  0  0  0  0  0  0  0  0  0  0  0
    9.5176    0.4706   21.2736 N   0  0  0  0  0  0  0  0  0  0  0  0
    8.2659    0.2786   21.6398 C   0  0  0  0  0  0  0  0  0  0  0  0
    7.4002   -0.7173   20.9219 C   0  0  0  0  0  0  0  0  0  0  0  0
    6.6391   -0.0721   19.7728 C   0  0  0  0  0  0  0  0  0  0  0  0
    5.4464    0.6062   20.0467 C   0  0  0  0  0  0  0  0  0  0  0  0
    4.8111    1.3025   19.0194 C   0  0  0  0  0  0  0  0  0  0  0  0
    5.4002    1.2973   17.7514 C   0  0  0  0  0  0  0  0  0  0  0  0
    6.5329    0.6381   17.4591 N   0  0  0  0  0  0  0  0  0  0  0  0
    7.1257   -0.0317   18.4553 C   0  0  0  0  0  0  0  0  0  0  0  0
    8.0405   -0.5704   18.1976 H   0  0  0  0  0  0  0  0  0  0  0  0
    4.9430    1.8395   16.9281 H   0  0  0  0  0  0  0  0  0  0  0  0
    3.8891    1.8472   19.1910 H   0  0  0  0  0  0  0  0  0  0  0  0
    5.0436    0.5795   21.0613 H   0  0  0  0  0  0  0  0  0  0  0  0
    8.0481   -1.5257   20.5655 H   0  0  0  0  0  0  0  0  0  0  0  0
    6.6887   -1.1367   21.6425 H   0  0  0  0  0  0  0  0  0  0  0  0
    7.8341    1.1123   22.6111 N   0  0  0  0  0  0  0  0  0  0  0  0
    8.8961    1.8782   22.8634 C   0  0  0  0  0  0  0  0  0  0  0  0
    8.9595    2.9847   23.8109 C   0  0  0  0  0  0  0  0  0  0  0  0
   10.0071    3.4961   24.5256 C   0  0  0  0  0  0  0  0  0  0  0  0
    9.6158    4.4991   25.3608 O   0  0  0  0  0  0  0  0  0  0  0  0
    8.2901    4.6852   25.1654 C   0  0  0  0  0  0  0  0  0  0  0  0
    7.4888    5.6510   25.7895 C   0  0  0  0  0  0  0  0  0  0  0  0
    6.1712    5.7021   25.3482 C   0  0  0  0  0  0  0  0  0  0  0  0
    5.3477    6.6146   25.8842 F   0  0  0  0  0  0  0  0  0  0  0  0
    5.6547    4.8463   24.3578 C   0  0  0  0  0  0  0  0  0  0  0  0
    6.4754    3.8817   23.7870 C   0  0  0  0  0  0  0  0  0  0  0  0
    7.8163    3.7883   24.2051 C   0  0  0  0  0  0  0  0  0  0  0  0
    6.1126    3.2032   23.0212 H   0  0  0  0  0  0  0  0  0  0  0  0
    4.6243    4.9713   24.0442 H   0  0  0  0  0  0  0  0  0  0  0  0
    7.8559    6.3249   26.5506 H   0  0  0  0  0  0  0  0  0  0  0  0
   11.0734    3.3130   24.5622 H   0  0  0  0  0  0  0  0  0  0  0  0
   11.3539    3.0065   22.1254 H   0  0  0  0  0  0  0  0  0  0  0  0
   11.6922    1.6557   21.0314 H   0  0  0  0  0  0  0  0  0  0  0  0
   11.5914    1.2544   24.0404 H   0  0  0  0  0  0  0  0  0  0  0  0
   11.5294   -0.8584   22.8180 H   0  0  0  0  0  0  0  0  0  0  0  0
   13.1832   -0.6445   23.4623 H   0  0  0  0  0  0  0  0  0  0  0  0
   12.8576   -0.3635   21.7648 H   0  0  0  0  0  0  0  0  0  0  0  0
  1  2  1  0
  2  3  1  0
  3  4  1  0
  4  5  1  0
  3  6  1  0
  3  7  1  0
  2  8  1  0
  8  9  1  0
  9 10  1  0
 10 11  2  0
 11 12  1  0
 12 13  1  0
 13 14  2  0
 14 15  1  0
 15 16  2  0
 16 17  1  0
 17 18  2  0
 18 19  1  0
 16 20  1  0
 15 21  1  0
 14 22  1  0
 12 23  1  0
 12 24  1  0
 11 25  1  0
 25 26  2  0
 26 27  1  0
 27 28  2  0
 28 29  1  0
 29 30  1  0
 30 31  2  0
 31 32  1  0
 32 33  1  0
 32 34  2  0
 34 35  1  0
 35 36  2  0
 35 37  1  0
 34 38  1  0
 31 39  1  0
 28 40  1  0
  8 41  1  0
  8 42  1  0
  2 43  1  0
  1 44  1  0
  1 45  1  0
  1 46  1  0
 26  9  1  0
 36 27  1  0
 18 13  1  0
 36 30  1  0
M  END
>  <cnnaffinity>  (1) 
-6.05366

>  <filename>  (1) 
[H]OC([H])([H])C([H])(C([H])([H])[H])C([H])([H])n1nc(C([H])([H])c2c([H])nc([H])c([H])c2[H])nc1-c1c([H])oc2c([H])c(F)c([H])c([H])c12

$$$$
