
     RDKit          3D

 43 45  0  0  0  0  0  0  0  0999 V2000
    9.7676   -3.5392   23.2220 C   0  0  0  0  0  0  0  0  0  0  0  0
    9.8459   -2.2508   22.3844 C   0  0  0  0  0  0  0  0  0  0  0  0
   10.5510   -1.1398   23.1313 C   0  0  0  0  0  0  0  0  0  0  0  0
   10.6080   -1.1002   24.5314 C   0  0  0  0  0  0  0  0  0  0  0  0
   11.2176   -0.0300   25.1954 C   0  0  0  0  0  0  0  0  0  0  0  0
   11.7552    1.0214   24.4524 C   0  0  0  0  0  0  0  0  0  0  0  0
   11.7049    0.9976   23.0577 C   0  0  0  0  0  0  0  0  0  0  0  0
   12.4273    2.4537   22.0598 Br  0  0  0  0  0  0  0  0  0  0  0  0
   11.1121   -0.0850   22.4024 C   0  0  0  0  0  0  0  0  0  0  0  0
   11.0626   -0.1141   21.3164 H   0  0  0  0  0  0  0  0  0  0  0  0
   12.2359    1.8614   24.9454 H   0  0  0  0  0  0  0  0  0  0  0  0
   11.2872   -0.0081   26.2780 H   0  0  0  0  0  0  0  0  0  0  0  0
   10.1892   -1.9204   25.1037 H   0  0  0  0  0  0  0  0  0  0  0  0
    8.4923   -1.7128   21.9774 C   0  0  0  0  0  0  0  0  0  0  0  0
    8.2053   -1.3078   20.7713 N   0  0  0  0  0  0  0  0  0  0  0  0
    6.9776   -0.6812   20.9284 C   0  0  0  0  0  0  0  0  0  0  0  0
    6.3505    0.0331   19.8401 C   0  0  0  0  0  0  0  0  0  0  0  0
    5.1573    0.7564   19.9757 C   0  0  0  0  0  0  0  0  0  0  0  0
    4.6959    1.4367   18.8520 C   0  0  0  0  0  0  0  0  0  0  0  0
    5.4130    1.3742   17.6530 C   0  0  0  0  0  0  0  0  0  0  0  0
    6.5536    0.6717   17.5339 N   0  0  0  0  0  0  0  0  0  0  0  0
    7.0121    0.0232   18.6143 C   0  0  0  0  0  0  0  0  0  0  0  0
    7.9465   -0.5232   18.5265 H   0  0  0  0  0  0  0  0  0  0  0  0
    5.0395    1.9137   16.7881 H   0  0  0  0  0  0  0  0  0  0  0  0
    3.7910    2.0321   18.8907 H   0  0  0  0  0  0  0  0  0  0  0  0
    4.6106    0.8095   20.9197 H   0  0  0  0  0  0  0  0  0  0  0  0
    6.4878   -0.7348   22.1411 N   0  0  0  0  0  0  0  0  0  0  0  0
    7.4404   -1.4093   22.8243 N   0  0  0  0  0  0  0  0  0  0  0  0
    7.4433   -1.6170   24.2794 C   0  0  0  0  0  0  0  0  0  0  0  0
    6.8615   -2.9832   24.6749 C   0  0  0  0  0  0  0  0  0  0  0  0
    5.3460   -3.0305   24.4964 C   0  0  0  0  0  0  0  0  0  0  0  0
    4.7751   -1.9220   25.1880 O   0  0  0  0  0  0  0  0  0  0  0  0
    5.0326   -1.0952   24.7401 H   0  0  0  0  0  0  0  0  0  0  0  0
    4.9468   -3.9664   24.9054 H   0  0  0  0  0  0  0  0  0  0  0  0
    5.0869   -2.9807   23.4330 H   0  0  0  0  0  0  0  0  0  0  0  0
    7.3247   -3.7811   24.0846 H   0  0  0  0  0  0  0  0  0  0  0  0
    7.0880   -3.1682   25.7303 H   0  0  0  0  0  0  0  0  0  0  0  0
    6.8709   -0.8137   24.7548 H   0  0  0  0  0  0  0  0  0  0  0  0
    8.4693   -1.5451   24.6480 H   0  0  0  0  0  0  0  0  0  0  0  0
   10.4199   -2.4656   21.4790 H   0  0  0  0  0  0  0  0  0  0  0  0
   10.7801   -3.8756   23.4600 H   0  0  0  0  0  0  0  0  0  0  0  0
    9.2518   -4.3358   22.6786 H   0  0  0  0  0  0  0  0  0  0  0  0
    9.2452   -3.3789   24.1657 H   0  0  0  0  0  0  0  0  0  0  0  0
  1  2  1  0
  2  3  1  0
  3  4  2  0
  4  5  1  0
  5  6  2  0
  6  7  1  0
  7  8  1  0
  7  9  2  0
  9 10  1  0
  6 11  1  0
  5 12  1  0
  4 13  1  0
  2 14  1  0
 14 15  2  0
 15 16  1  0
 16 17  1  0
 17 18  2  0
 18 19  1  0
 19 20  2  0
 20 21  1  0
 21 22  2  0
 22 23  1  0
 20 24  1  0
 19 25  1  0
 18 26  1  0
 16 27  2  0
 27 28  1  0
 28 29  1  0
 29 30  1  0
 30 31  1  0
 31 32  1  0
 32 33  1  0
 31 34  1  0
 31 35  1  0
 30 36  1  0
 30 37  1  0
 29 38  1  0
 29 39  1  0
  2 40  1  0
  1 41  1  0
  1 42  1  0
  1 43  1  0
  9  3  1  0
 28 14  1  0
 22 17  1  0
M  END
>  <cnnaffinity>  (1) 
-6.06477

>  <filename>  (1) 
[H]OC([H])([H])C([H])([H])C([H])([H])n1nc(-c2c([H])nc([H])c([H])c2[H])nc1C([H])(c1c([H])c([H])c([H])c(Br)c1[H])C([H])([H])[H]

$$$$
