
     RDKit          3D

 43 45  0  0  0  0  0  0  0  0999 V2000
    7.1668   -3.6270   26.0021 C   0  0  0  0  0  0  0  0  0  0  0  0
    7.0008   -3.1522   24.5511 C   0  0  0  0  0  0  0  0  0  0  0  0
    5.5941   -3.3848   23.9811 C   0  0  0  0  0  0  0  0  0  0  0  0
    5.2241   -4.7472   23.9669 O   0  0  0  0  0  0  0  0  0  0  0  0
    5.2170   -5.0522   24.8831 H   0  0  0  0  0  0  0  0  0  0  0  0
    5.5603   -3.0428   22.9430 H   0  0  0  0  0  0  0  0  0  0  0  0
    4.8563   -2.7818   24.5414 H   0  0  0  0  0  0  0  0  0  0  0  0
    7.3649   -1.6517   24.4233 C   0  0  0  0  0  0  0  0  0  0  0  0
    7.6113   -1.2049   23.0560 N   0  0  0  0  0  0  0  0  0  0  0  0
    6.6349   -0.6321   22.3210 N   0  0  0  0  0  0  0  0  0  0  0  0
    7.1760   -0.5227   21.1249 C   0  0  0  0  0  0  0  0  0  0  0  0
    6.4797    0.0812   19.9906 C   0  0  0  0  0  0  0  0  0  0  0  0
    5.2518    0.7616   20.0924 C   0  0  0  0  0  0  0  0  0  0  0  0
    4.7522    1.3688   18.9441 C   0  0  0  0  0  0  0  0  0  0  0  0
    5.4754    1.2701   17.7491 C   0  0  0  0  0  0  0  0  0  0  0  0
    6.6339    0.6014   17.6408 N   0  0  0  0  0  0  0  0  0  0  0  0
    7.1149    0.0254   18.7452 C   0  0  0  0  0  0  0  0  0  0  0  0
    8.0568   -0.5132   18.6522 H   0  0  0  0  0  0  0  0  0  0  0  0
    5.1137    1.7427   16.8392 H   0  0  0  0  0  0  0  0  0  0  0  0
    3.8274    1.9340   18.9590 H   0  0  0  0  0  0  0  0  0  0  0  0
    4.7214    0.8209   21.0468 H   0  0  0  0  0  0  0  0  0  0  0  0
    8.4470   -1.0048   21.0395 N   0  0  0  0  0  0  0  0  0  0  0  0
    8.6976   -1.4081   22.2701 C   0  0  0  0  0  0  0  0  0  0  0  0
    9.9524   -2.0641   22.7473 C   0  0  0  0  0  0  0  0  0  0  0  0
   11.2556   -1.3146   22.5232 C   0  0  0  0  0  0  0  0  0  0  0  0
   12.1679   -1.7078   21.5412 C   0  0  0  0  0  0  0  0  0  0  0  0
   13.4936   -1.2784   21.5544 C   0  0  0  0  0  0  0  0  0  0  0  0
   13.8919   -0.3211   22.4858 C   0  0  0  0  0  0  0  0  0  0  0  0
   12.9428    0.2289   23.3551 C   0  0  0  0  0  0  0  0  0  0  0  0
   13.3193    1.5702   24.3593 Cl  0  0  0  0  0  0  0  0  0  0  0  0
   11.6477   -0.2924   23.3870 C   0  0  0  0  0  0  0  0  0  0  0  0
   10.7730    0.1671   24.2951 F   0  0  0  0  0  0  0  0  0  0  0  0
   14.9153    0.0243   22.5327 H   0  0  0  0  0  0  0  0  0  0  0  0
   14.2065   -1.6765   20.8375 H   0  0  0  0  0  0  0  0  0  0  0  0
   11.8217   -2.3349   20.7406 H   0  0  0  0  0  0  0  0  0  0  0  0
    9.8414   -2.2768   23.8153 H   0  0  0  0  0  0  0  0  0  0  0  0
   10.0133   -3.0373   22.2511 H   0  0  0  0  0  0  0  0  0  0  0  0
    8.2593   -1.4192   25.0137 H   0  0  0  0  0  0  0  0  0  0  0  0
    6.5532   -1.0279   24.8116 H   0  0  0  0  0  0  0  0  0  0  0  0
    7.6837   -3.7529   23.9303 H   0  0  0  0  0  0  0  0  0  0  0  0
    6.9138   -4.6888   26.1220 H   0  0  0  0  0  0  0  0  0  0  0  0
    6.5452   -3.0583   26.7064 H   0  0  0  0  0  0  0  0  0  0  0  0
    8.2115   -3.5246   26.3178 H   0  0  0  0  0  0  0  0  0  0  0  0
  1  2  1  0
  2  3  1  0
  3  4  1  0
  4  5  1  0
  3  6  1  0
  3  7  1  0
  2  8  1  0
  8  9  1  0
  9 10  1  0
 10 11  2  0
 11 12  1  0
 12 13  2  0
 13 14  1  0
 14 15  2  0
 15 16  1  0
 16 17  2  0
 17 18  1  0
 15 19  1  0
 14 20  1  0
 13 21  1  0
 11 22  1  0
 22 23  2  0
 23 24  1  0
 24 25  1  0
 25 26  2  0
 26 27  1  0
 27 28  2  0
 28 29  1  0
 29 30  1  0
 29 31  2  0
 31 32  1  0
 28 33  1  0
 27 34  1  0
 26 35  1  0
 24 36  1  0
 24 37  1  0
  8 38  1  0
  8 39  1  0
  2 40  1  0
  1 41  1  0
  1 42  1  0
  1 43  1  0
 23  9  1  0
 31 25  1  0
 17 12  1  0
M  END
>  <cnnaffinity>  (1) 
-6.5474

>  <filename>  (1) 
[H]OC([H])([H])C([H])(C([H])([H])[H])C([H])([H])n1nc(-c2c([H])nc([H])c([H])c2[H])nc1C([H])([H])c1c([H])c([H])c([H])c(Cl)c1F

$$$$
