
     RDKit          3D

 50 53  0  0  0  0  0  0  0  0999 V2000
    2.9425   -5.6642   25.0435 C   0  0  0  0  0  0  0  0  0  0  0  0
    4.3430   -5.3982   24.5673 C   0  0  0  0  0  0  0  0  0  0  0  0
    5.0862   -6.3498   23.8716 C   0  0  0  0  0  0  0  0  0  0  0  0
    6.4093   -6.0921   23.4280 C   0  0  0  0  0  0  0  0  0  0  0  0
    7.0159   -4.8674   23.6703 C   0  0  0  0  0  0  0  0  0  0  0  0
    6.2879   -3.8650   24.3464 C   0  0  0  0  0  0  0  0  0  0  0  0
    4.9661   -4.1512   24.7851 C   0  0  0  0  0  0  0  0  0  0  0  0
    4.4751   -3.0169   25.3858 N   0  0  0  0  0  0  0  0  0  0  0  0
    5.4288   -2.0259   25.3082 C   0  0  0  0  0  0  0  0  0  0  0  0
    6.5496   -2.4928   24.6964 C   0  0  0  0  0  0  0  0  0  0  0  0
    7.7468   -1.6604   24.3076 C   0  0  0  0  0  0  0  0  0  0  0  0
    7.7712   -1.3089   22.8429 C   0  0  0  0  0  0  0  0  0  0  0  0
    6.8295   -0.5928   22.2472 N   0  0  0  0  0  0  0  0  0  0  0  0
    7.2141   -0.5748   20.9522 C   0  0  0  0  0  0  0  0  0  0  0  0
    6.4900    0.0985   19.8777 C   0  0  0  0  0  0  0  0  0  0  0  0
    5.2708    0.7785   20.0450 C   0  0  0  0  0  0  0  0  0  0  0  0
    4.7236    1.4116   18.9287 C   0  0  0  0  0  0  0  0  0  0  0  0
    5.4016    1.3443   17.7059 C   0  0  0  0  0  0  0  0  0  0  0  0
    6.5540    0.6814   17.5343 N   0  0  0  0  0  0  0  0  0  0  0  0
    7.0769    0.0760   18.6023 C   0  0  0  0  0  0  0  0  0  0  0  0
    8.0122   -0.4555   18.4372 H   0  0  0  0  0  0  0  0  0  0  0  0
    4.9989    1.8366   16.8232 H   0  0  0  0  0  0  0  0  0  0  0  0
    3.7905    1.9636   18.9823 H   0  0  0  0  0  0  0  0  0  0  0  0
    4.7623    0.8204   21.0116 H   0  0  0  0  0  0  0  0  0  0  0  0
    8.3484   -1.2120   20.7157 N   0  0  0  0  0  0  0  0  0  0  0  0
    8.7168   -1.6654   21.9330 N   0  0  0  0  0  0  0  0  0  0  0  0
   10.0641   -2.2114   22.0566 C   0  0  0  0  0  0  0  0  0  0  0  0
   11.1553   -1.1391   22.2527 C   0  0  0  0  0  0  0  0  0  0  0  0
   11.0462   -0.4969   23.6477 C   0  0  0  0  0  0  0  0  0  0  0  0
   11.9470    0.0773   23.8917 H   0  0  0  0  0  0  0  0  0  0  0  0
   10.9174   -1.2634   24.4255 H   0  0  0  0  0  0  0  0  0  0  0  0
   10.1774    0.1704   23.7022 H   0  0  0  0  0  0  0  0  0  0  0  0
   12.5150   -1.7961   21.9491 C   0  0  0  0  0  0  0  0  0  0  0  0
   13.6382   -1.0026   22.2865 O   0  0  0  0  0  0  0  0  0  0  0  0
   13.8580   -0.4494   21.5279 H   0  0  0  0  0  0  0  0  0  0  0  0
   12.5422   -2.0608   20.8779 H   0  0  0  0  0  0  0  0  0  0  0  0
   12.6096   -2.7413   22.5005 H   0  0  0  0  0  0  0  0  0  0  0  0
   11.0010   -0.3747   21.4744 H   0  0  0  0  0  0  0  0  0  0  0  0
   10.2374   -2.7621   21.1314 H   0  0  0  0  0  0  0  0  0  0  0  0
   10.0962   -2.9268   22.8853 H   0  0  0  0  0  0  0  0  0  0  0  0
    7.7297   -0.7128   24.8629 H   0  0  0  0  0  0  0  0  0  0  0  0
    8.6680   -2.1794   24.5945 H   0  0  0  0  0  0  0  0  0  0  0  0
    5.2450   -1.0242   25.6775 H   0  0  0  0  0  0  0  0  0  0  0  0
    3.5183   -2.8940   25.6750 H   0  0  0  0  0  0  0  0  0  0  0  0
    8.0355   -4.6830   23.3405 H   0  0  0  0  0  0  0  0  0  0  0  0
    6.9571   -6.8674   22.9001 H   0  0  0  0  0  0  0  0  0  0  0  0
    4.6303   -7.3169   23.6614 H   0  0  0  0  0  0  0  0  0  0  0  0
    2.6475   -6.7020   24.8621 H   0  0  0  0  0  0  0  0  0  0  0  0
    2.8453   -5.4693   26.1180 H   0  0  0  0  0  0  0  0  0  0  0  0
    2.2286   -5.0144   24.5246 H   0  0  0  0  0  0  0  0  0  0  0  0
  1  2  1  0
  2  3  2  0
  3  4  1  0
  4  5  2  0
  5  6  1  0
  6  7  2  0
  7  8  1  0
  8  9  1  0
  9 10  2  0
 10 11  1  0
 11 12  1  0
 12 13  2  0
 13 14  1  0
 14 15  1  0
 15 16  2  0
 16 17  1  0
 17 18  2  0
 18 19  1  0
 19 20  2  0
 20 21  1  0
 18 22  1  0
 17 23  1  0
 16 24  1  0
 14 25  2  0
 25 26  1  0
 26 27  1  0
 27 28  1  0
 28 29  1  0
 29 30  1  0
 29 31  1  0
 29 32  1  0
 28 33  1  0
 33 34  1  0
 34 35  1  0
 33 36  1  0
 33 37  1  0
 28 38  1  0
 27 39  1  0
 27 40  1  0
 11 41  1  0
 11 42  1  0
  9 43  1  0
  8 44  1  0
  5 45  1  0
  4 46  1  0
  3 47  1  0
  1 48  1  0
  1 49  1  0
  1 50  1  0
  7  2  1  0
 26 12  1  0
 10  6  1  0
 20 15  1  0
M  END
>  <cnnaffinity>  (1) 
-6.43273

>  <filename>  (1) 
[H]OC([H])([H])C([H])(C([H])([H])[H])C([H])([H])n1nc(-c2c([H])nc([H])c([H])c2[H])nc1C([H])([H])c1c([H])n([H])c2c(C([H])([H])[H])c([H])c([H])c([H])c12

$$$$
