
     RDKit          3D

 26 26  0  0  0  0  0  0  0  0999 V2000
    5.5655   -3.5413   24.0342 H   0  0  0  0  0  0  0  0  0  0  0  0
    5.7655   -3.1450   23.1736 O   0  0  0  0  0  0  0  0  0  0  0  0
    7.0520   -3.6165   22.9081 N   0  0  0  0  0  0  0  0  0  0  0  0
    7.5424   -3.1710   21.8155 C   0  0  0  0  0  0  0  0  0  0  0  0
    8.5415   -3.5764   21.6464 H   0  0  0  0  0  0  0  0  0  0  0  0
    6.8779   -2.2319   20.8609 C   0  0  0  0  0  0  0  0  0  0  0  0
    7.0720   -2.5238   19.8403 H   0  0  0  0  0  0  0  0  0  0  0  0
    5.7932   -2.2725   21.0196 H   0  0  0  0  0  0  0  0  0  0  0  0
    7.3699   -0.7862   21.0039 C   0  0  2  0  0  0  0  0  0  0  0  0
    6.6614    0.0288   19.9357 C   0  0  0  0  0  0  0  0  0  0  0  0
    7.1770    0.0635   18.6252 C   0  0  0  0  0  0  0  0  0  0  0  0
    8.1223   -0.4223   18.3961 H   0  0  0  0  0  0  0  0  0  0  0  0
    6.5729    0.6672   17.5899 N   0  0  0  0  0  0  0  0  0  0  0  0
    5.4095    1.2849   17.8332 C   0  0  0  0  0  0  0  0  0  0  0  0
    4.9425    1.7839   16.9865 H   0  0  0  0  0  0  0  0  0  0  0  0
    4.8049    1.3118   19.0946 C   0  0  0  0  0  0  0  0  0  0  0  0
    3.8701    1.8404   19.2407 H   0  0  0  0  0  0  0  0  0  0  0  0
    5.4368    0.6690   20.1590 C   0  0  0  0  0  0  0  0  0  0  0  0
    4.9802    0.6793   21.1504 H   0  0  0  0  0  0  0  0  0  0  0  0
    8.7998   -0.7607   20.7193 N   0  0  0  0  0  0  0  0  0  0  0  0
    9.2843   -1.2287   21.4800 H   0  0  0  0  0  0  0  0  0  0  0  0
    9.0699    0.2180   20.8005 H   0  0  0  0  0  0  0  0  0  0  0  0
    7.1113   -0.2620   22.4180 C   0  0  0  0  0  0  0  0  0  0  0  0
    7.7855   -0.7377   23.1364 H   0  0  0  0  0  0  0  0  0  0  0  0
    7.2492    0.8234   22.4574 H   0  0  0  0  0  0  0  0  0  0  0  0
    6.0941   -0.5018   22.7275 H   0  0  0  0  0  0  0  0  0  0  0  0
  1  2  1  0
  2  3  1  0
  3  4  2  3
  4  5  1  0
  4  6  1  0
  6  7  1  0
  6  8  1  0
  6  9  1  0
  9 10  1  0
 10 11  2  0
 11 12  1  0
 11 13  1  0
 13 14  2  0
 14 15  1  0
 14 16  1  0
 16 17  1  0
 16 18  2  0
 18 19  1  0
  9 20  1  6
 20 21  1  0
 20 22  1  0
  9 23  1  0
 23 24  1  0
 23 25  1  0
 23 26  1  0
 18 10  1  0
M  END
>  <cnnaffinity>  (1) 
-4.08383

>  <filename>  (1) 
[H]ON=C([H])C([H])([H])[C@](c1c([H])nc([H])c([H])c1[H])(N([H])[H])C([H])([H])[H]

$$$$
