
     RDKit          3D

 30 32  0  0  0  0  0  0  0  0999 V2000
    7.6778   -4.8251   24.7089 H   0  0  0  0  0  0  0  0  0  0  0  0
    6.9363   -4.9403   25.3168 O   0  0  0  0  0  0  0  0  0  0  0  0
    6.2901   -3.7535   25.4288 C   0  0  0  0  0  0  0  0  0  0  0  0
    5.2020   -3.7572   26.3029 C   0  0  0  0  0  0  0  0  0  0  0  0
    4.9484   -4.6735   26.8166 H   0  0  0  0  0  0  0  0  0  0  0  0
    4.4628   -2.5965   26.5107 C   0  0  0  0  0  0  0  0  0  0  0  0
    3.1075   -2.6228   27.5928 Cl  0  0  0  0  0  0  0  0  0  0  0  0
    4.8004   -1.4093   25.8696 C   0  0  0  0  0  0  0  0  0  0  0  0
    4.2092   -0.5158   26.0476 H   0  0  0  0  0  0  0  0  0  0  0  0
    5.8925   -1.3967   24.9947 C   0  0  0  0  0  0  0  0  0  0  0  0
    6.1595   -0.4692   24.5016 H   0  0  0  0  0  0  0  0  0  0  0  0
    6.6301   -2.5565   24.7387 C   0  0  0  0  0  0  0  0  0  0  0  0
    7.7508   -2.5703   23.9036 O   0  0  0  0  0  0  0  0  0  0  0  0
    7.7915   -1.8243   22.7625 C   0  0  0  0  0  0  0  0  0  0  0  0
    8.9975   -1.5694   22.1874 N   0  0  0  0  0  0  0  0  0  0  0  0
    8.7181   -0.8812   21.1070 C   0  0  0  0  0  0  0  0  0  0  0  0
    9.4228   -0.4795   20.3878 H   0  0  0  0  0  0  0  0  0  0  0  0
    7.3677   -0.6807   20.9366 N   0  0  0  0  0  0  0  0  0  0  0  0
    6.6738    0.0083   19.9056 C   0  0  0  0  0  0  0  0  0  0  0  0
    7.1759    0.0607   18.5921 C   0  0  0  0  0  0  0  0  0  0  0  0
    8.1137   -0.4344   18.3575 H   0  0  0  0  0  0  0  0  0  0  0  0
    6.5607    0.6763   17.5784 N   0  0  0  0  0  0  0  0  0  0  0  0
    5.3979    1.2949   17.8372 C   0  0  0  0  0  0  0  0  0  0  0  0
    4.9147    1.7842   16.9937 H   0  0  0  0  0  0  0  0  0  0  0  0
    4.8122    1.3077   19.1077 C   0  0  0  0  0  0  0  0  0  0  0  0
    3.8797    1.8381   19.2631 H   0  0  0  0  0  0  0  0  0  0  0  0
    5.4485    0.6465   20.1633 C   0  0  0  0  0  0  0  0  0  0  0  0
    5.0182    0.6374   21.1676 H   0  0  0  0  0  0  0  0  0  0  0  0
    6.7747   -1.3117   22.0186 C   0  0  0  0  0  0  0  0  0  0  0  0
    5.7165   -1.3830   22.1556 H   0  0  0  0  0  0  0  0  0  0  0  0
  1  2  1  0
  2  3  1  0
  3  4  2  0
  4  5  1  0
  4  6  1  0
  6  7  1  0
  6  8  2  0
  8  9  1  0
  8 10  1  0
 10 11  1  0
 10 12  2  0
 12 13  1  0
 13 14  1  0
 14 15  1  0
 15 16  2  0
 16 17  1  0
 16 18  1  0
 18 19  1  0
 19 20  2  0
 20 21  1  0
 20 22  1  0
 22 23  2  0
 23 24  1  0
 23 25  1  0
 25 26  1  0
 25 27  2  0
 27 28  1  0
 18 29  1  0
 29 30  1  0
 12  3  1  0
 29 14  2  0
 27 19  1  0
M  END
>  <cnnaffinity>  (1) 
-5.22485

>  <filename>  (1) 
[H]Oc1c([H])c(Cl)c([H])c([H])c1Oc1nc([H])n(-c2c([H])nc([H])c([H])c2[H])c1[H]

$$$$
