
     RDKit          3D

 35 36  0  0  0  0  0  0  0  0999 V2000
    8.5718   -0.2062   24.4411 C   0  0  0  0  0  0  0  0  0  0  0  0
    7.5975    0.4073   23.4365 C   0  0  0  0  0  0  0  0  0  0  0  0
    8.0196    0.2579   22.0394 N   0  0  0  0  0  0  0  0  0  0  0  0
    7.3165   -0.6866   21.1544 C   0  0  0  0  0  0  0  0  0  0  0  0
    6.6363    0.0231   20.0022 C   0  0  0  0  0  0  0  0  0  0  0  0
    5.4050    0.6697   20.1578 C   0  0  0  0  0  0  0  0  0  0  0  0
    4.8373    1.3182   19.0594 C   0  0  0  0  0  0  0  0  0  0  0  0
    5.5228    1.2900   17.8394 C   0  0  0  0  0  0  0  0  0  0  0  0
    6.7062    0.6879   17.6691 N   0  0  0  0  0  0  0  0  0  0  0  0
    7.2490    0.0842   18.7366 C   0  0  0  0  0  0  0  0  0  0  0  0
    8.2178   -0.3846   18.5753 H   0  0  0  0  0  0  0  0  0  0  0  0
    5.0964    1.7618   16.9563 H   0  0  0  0  0  0  0  0  0  0  0  0
    3.8804    1.8211   19.1297 H   0  0  0  0  0  0  0  0  0  0  0  0
    4.8941    0.6623   21.1240 H   0  0  0  0  0  0  0  0  0  0  0  0
    8.0483   -1.4073   20.7681 H   0  0  0  0  0  0  0  0  0  0  0  0
    6.5800   -1.2396   21.7536 H   0  0  0  0  0  0  0  0  0  0  0  0
    9.1751    0.8062   21.5118 C   0  0  0  0  0  0  0  0  0  0  0  0
    9.7392    0.2753   20.5615 O   0  0  0  0  0  0  0  0  0  0  0  0
    9.8043    2.0623   22.0936 C   0  0  0  0  0  0  0  0  0  0  0  0
    9.1047    3.2700   22.2768 C   0  0  0  0  0  0  0  0  0  0  0  0
    7.4212    3.4539   21.8483 Cl  0  0  0  0  0  0  0  0  0  0  0  0
    9.7476    4.4212   22.7801 C   0  0  0  0  0  0  0  0  0  0  0  0
    9.1426    5.6197   22.9422 O   0  0  0  0  0  0  0  0  0  0  0  0
    8.3029    5.6106   22.4564 H   0  0  0  0  0  0  0  0  0  0  0  0
   11.0977    4.3489   23.1191 C   0  0  0  0  0  0  0  0  0  0  0  0
   11.8219    3.1872   22.8762 C   0  0  0  0  0  0  0  0  0  0  0  0
   11.1919    2.0572   22.3618 C   0  0  0  0  0  0  0  0  0  0  0  0
   11.7846    1.1724   22.1399 H   0  0  0  0  0  0  0  0  0  0  0  0
   12.8939    3.1838   23.0469 H   0  0  0  0  0  0  0  0  0  0  0  0
   11.5508    5.2479   23.5189 H   0  0  0  0  0  0  0  0  0  0  0  0
    7.4435    1.4675   23.6549 H   0  0  0  0  0  0  0  0  0  0  0  0
    6.6083   -0.0626   23.5361 H   0  0  0  0  0  0  0  0  0  0  0  0
    9.5717    0.2230   24.3263 H   0  0  0  0  0  0  0  0  0  0  0  0
    8.2364    0.0083   25.4628 H   0  0  0  0  0  0  0  0  0  0  0  0
    8.6543   -1.2945   24.3384 H   0  0  0  0  0  0  0  0  0  0  0  0
  1  2  1  0
  2  3  1  0
  3  4  1  0
  4  5  1  0
  5  6  2  0
  6  7  1  0
  7  8  2  0
  8  9  1  0
  9 10  2  0
 10 11  1  0
  8 12  1  0
  7 13  1  0
  6 14  1  0
  4 15  1  0
  4 16  1  0
  3 17  1  0
 17 18  2  0
 17 19  1  0
 19 20  2  0
 20 21  1  0
 20 22  1  0
 22 23  1  0
 23 24  1  0
 22 25  2  0
 25 26  1  0
 26 27  2  0
 27 28  1  0
 26 29  1  0
 25 30  1  0
  2 31  1  0
  2 32  1  0
  1 33  1  0
  1 34  1  0
  1 35  1  0
 10  5  1  0
 27 19  1  0
M  END
>  <cnnaffinity>  (1) 
-5.14938

>  <filename>  (1) 
[H]Oc1c([H])c([H])c([H])c(C(=O)N(C([H])([H])c2c([H])nc([H])c([H])c2[H])C([H])([H])C([H])([H])[H])c1Cl

$$$$
