
     RDKit          3D

 43 47  0  0  0  0  0  0  0  0999 V2000
    9.2843    8.0104   23.6666 O   0  0  0  0  0  0  0  0  0  0  0  0
    9.1611    6.6874   23.7371 C   0  0  0  0  0  0  0  0  0  0  0  0
    8.9496    5.9244   22.5676 C   0  0  0  0  0  0  0  0  0  0  0  0
    8.8210    4.5703   22.7066 C   0  0  0  0  0  0  0  0  0  0  0  0
    8.8724    3.9794   24.0112 C   0  0  0  0  0  0  0  0  0  0  0  0
    8.6777    2.5716   24.2926 C   0  0  0  0  0  0  0  0  0  0  0  0
    8.7326    1.5856   23.1877 C   0  0  0  0  0  0  0  0  0  0  0  0
    7.8349    0.6556   22.9027 N   0  0  0  0  0  0  0  0  0  0  0  0
    8.2472    0.1952   21.6924 C   0  0  0  0  0  0  0  0  0  0  0  0
    7.4590   -0.7660   20.8434 C   0  0  0  0  0  0  0  0  0  0  0  0
    6.6784   -0.0796   19.7217 C   0  0  0  0  0  0  0  0  0  0  0  0
    5.4955    0.6095   20.0202 C   0  0  0  0  0  0  0  0  0  0  0  0
    4.8431    1.3076   19.0014 C   0  0  0  0  0  0  0  0  0  0  0  0
    5.3975    1.3009   17.7180 C   0  0  0  0  0  0  0  0  0  0  0  0
    6.5140    0.6283   17.4025 N   0  0  0  0  0  0  0  0  0  0  0  0
    7.1244   -0.0429   18.3884 C   0  0  0  0  0  0  0  0  0  0  0  0
    8.0268   -0.5841   18.1042 H   0  0  0  0  0  0  0  0  0  0  0  0
    4.9304    1.8612   16.9089 H   0  0  0  0  0  0  0  0  0  0  0  0
    3.9338    1.8668   19.1883 H   0  0  0  0  0  0  0  0  0  0  0  0
    5.1038    0.5986   21.0404 H   0  0  0  0  0  0  0  0  0  0  0  0
    8.1385   -1.5241   20.4379 H   0  0  0  0  0  0  0  0  0  0  0  0
    6.7697   -1.2822   21.5166 H   0  0  0  0  0  0  0  0  0  0  0  0
    9.3766    0.7160   21.2550 N   0  0  0  0  0  0  0  0  0  0  0  0
    9.7089    1.5964   22.2315 N   0  0  0  0  0  0  0  0  0  0  0  0
   11.0350    2.1641   22.3435 C   0  0  0  0  0  0  0  0  0  0  0  0
   12.2417    1.3995   21.9058 C   0  0  0  0  0  0  0  0  0  0  0  0
   11.8372    2.6599   21.1835 C   0  0  0  0  0  0  0  0  0  0  0  0
   12.4213    3.5661   21.3442 H   0  0  0  0  0  0  0  0  0  0  0  0
   11.4297    2.5716   20.1829 H   0  0  0  0  0  0  0  0  0  0  0  0
   12.0485    0.4454   21.4142 H   0  0  0  0  0  0  0  0  0  0  0  0
   13.0973    1.4188   22.5760 H   0  0  0  0  0  0  0  0  0  0  0  0
   11.1335    2.7394   23.2534 H   0  0  0  0  0  0  0  0  0  0  0  0
    8.4351    2.1793   25.5991 C   0  0  0  0  0  0  0  0  0  0  0  0
    8.5870    3.0852   26.6748 C   0  0  0  0  0  0  0  0  0  0  0  0
    8.9437    4.3971   26.4262 C   0  0  0  0  0  0  0  0  0  0  0  0
    9.0401    4.8822   25.1061 C   0  0  0  0  0  0  0  0  0  0  0  0
    9.2332    6.2313   24.9528 N   0  0  0  0  0  0  0  0  0  0  0  0
    9.1113    5.1389   27.1957 H   0  0  0  0  0  0  0  0  0  0  0  0
    8.4071    2.7421   27.6931 H   0  0  0  0  0  0  0  0  0  0  0  0
    8.1002    1.1650   25.8018 H   0  0  0  0  0  0  0  0  0  0  0  0
    8.6655    3.9288   21.8415 H   0  0  0  0  0  0  0  0  0  0  0  0
    8.8789    6.4567   21.6305 H   0  0  0  0  0  0  0  0  0  0  0  0
    9.3790    8.1606   24.6243 H   0  0  0  0  0  0  0  0  0  0  0  0
  1  2  1  0
  2  3  2  0
  3  4  1  0
  4  5  2  0
  5  6  1  0
  6  7  1  0
  7  8  2  0
  8  9  1  0
  9 10  1  0
 10 11  1  0
 11 12  2  0
 12 13  1  0
 13 14  2  0
 14 15  1  0
 15 16  2  0
 16 17  1  0
 14 18  1  0
 13 19  1  0
 12 20  1  0
 10 21  1  0
 10 22  1  0
  9 23  2  0
 23 24  1  0
 24 25  1  0
 25 26  1  0
 26 27  1  0
 27 28  1  0
 27 29  1  0
 26 30  1  0
 26 31  1  0
 25 32  1  0
  6 33  2  0
 33 34  1  0
 34 35  2  0
 35 36  1  0
 36 37  2  0
 35 38  1  0
 34 39  1  0
 33 40  1  0
  4 41  1  0
  3 42  1  0
  1 43  1  0
 37  2  1  0
 36  5  1  0
 24  7  1  0
 27 25  1  0
 16 11  1  0
M  END
>  <cnnaffinity>  (1) 
-5.81282

>  <filename>  (1) 
[H]Oc1nc2c([H])c([H])c([H])c(-c3nc(C([H])([H])c4c([H])nc([H])c([H])c4[H])nn3C3([H])C([H])([H])C3([H])[H])c2c([H])c1[H]

$$$$
