
     RDKit          3D

 40 41  0  0  0  0  0  0  0  0999 V2000
    9.1818    6.5786   25.2565 H   0  0  0  0  0  0  0  0  0  0  0  0
    8.7901    5.7742   24.8687 O   0  0  0  0  0  0  0  0  0  0  0  0
    9.8199    4.8386   24.7728 N   0  0  0  0  0  0  0  0  0  0  0  0
    9.5222    3.9332   25.1091 H   0  0  0  0  0  0  0  0  0  0  0  0
   10.6868    4.7762   23.6929 C   0  0  0  0  0  0  0  0  0  0  0  0
   10.9003    5.6718   22.9044 O   0  0  0  0  0  0  0  0  0  0  0  0
   11.4844    3.4785   23.6786 C   0  0  0  0  0  0  0  0  0  0  0  0
   12.5092    3.8052   23.4861 H   0  0  0  0  0  0  0  0  0  0  0  0
   11.4789    2.9820   24.6565 H   0  0  0  0  0  0  0  0  0  0  0  0
   11.0437    2.4898   22.5816 C   0  0  0  0  0  0  0  0  0  0  0  0
   11.8022    1.6961   22.4756 H   0  0  0  0  0  0  0  0  0  0  0  0
   11.0188    3.0231   21.6200 H   0  0  0  0  0  0  0  0  0  0  0  0
    9.6808    1.8584   22.8760 C   0  0  0  0  0  0  0  0  0  0  0  0
    9.7155    1.3746   23.8681 H   0  0  0  0  0  0  0  0  0  0  0  0
    8.9154    2.6499   22.9446 H   0  0  0  0  0  0  0  0  0  0  0  0
    9.2491    0.8390   21.8184 C   0  0  0  0  0  0  0  0  0  0  0  0
    9.2199    1.3208   20.8282 H   0  0  0  0  0  0  0  0  0  0  0  0
   10.0049    0.0370   21.7384 H   0  0  0  0  0  0  0  0  0  0  0  0
    7.8813    0.2131   22.1099 C   0  0  2  0  0  0  0  0  0  0  0  0
    7.1430    1.0291   22.2229 H   0  0  0  0  0  0  0  0  0  0  0  0
    7.8120   -0.6685   23.3733 C   0  0  0  0  0  0  0  0  0  0  0  0
    8.7460   -1.2437   23.4951 H   0  0  0  0  0  0  0  0  0  0  0  0
    7.6841   -0.0983   24.3046 H   0  0  0  0  0  0  0  0  0  0  0  0
    6.6906   -1.5877   23.1703 N   0  0  0  0  0  0  0  0  0  0  0  0
    5.8345   -1.1353   23.4781 H   0  0  0  0  0  0  0  0  0  0  0  0
    6.5740   -1.8305   21.7243 C   0  0  0  0  0  0  0  0  0  0  0  0
    6.9435   -2.8331   21.4744 H   0  0  0  0  0  0  0  0  0  0  0  0
    5.5201   -1.8160   21.4232 H   0  0  0  0  0  0  0  0  0  0  0  0
    7.4015   -0.7398   20.9829 C   0  0  1  0  0  0  0  0  0  0  0  0
    8.2865   -1.2259   20.5437 H   0  0  0  0  0  0  0  0  0  0  0  0
    6.6679   -0.0107   19.8681 C   0  0  0  0  0  0  0  0  0  0  0  0
    7.1680    0.0684   18.5534 C   0  0  0  0  0  0  0  0  0  0  0  0
    8.1212   -0.3997   18.3019 H   0  0  0  0  0  0  0  0  0  0  0  0
    6.5569    0.6935   17.5372 N   0  0  0  0  0  0  0  0  0  0  0  0
    5.3933    1.3082   17.8034 C   0  0  0  0  0  0  0  0  0  0  0  0
    4.9180    1.8201   16.9667 H   0  0  0  0  0  0  0  0  0  0  0  0
    4.8040    1.3128   19.0722 C   0  0  0  0  0  0  0  0  0  0  0  0
    3.8712    1.8448   19.2324 H   0  0  0  0  0  0  0  0  0  0  0  0
    5.4524    0.6486   20.1136 C   0  0  0  0  0  0  0  0  0  0  0  0
    5.0219    0.6491   21.1177 H   0  0  0  0  0  0  0  0  0  0  0  0
  1  2  1  0
  2  3  1  0
  3  4  1  0
  3  5  1  0
  5  6  2  0
  5  7  1  0
  7  8  1  0
  7  9  1  0
  7 10  1  0
 10 11  1  0
 10 12  1  0
 10 13  1  0
 13 14  1  0
 13 15  1  0
 13 16  1  0
 16 17  1  0
 16 18  1  0
 16 19  1  0
 19 20  1  1
 19 21  1  0
 21 22  1  0
 21 23  1  0
 21 24  1  0
 24 25  1  0
 24 26  1  0
 26 27  1  0
 26 28  1  0
 26 29  1  0
 29 30  1  6
 29 31  1  0
 31 32  2  0
 32 33  1  0
 32 34  1  0
 34 35  2  0
 35 36  1  0
 35 37  1  0
 37 38  1  0
 37 39  2  0
 39 40  1  0
 29 19  1  0
 39 31  1  0
M  END
>  <cnnaffinity>  (1) 
-5.17392

>  <filename>  (1) 
[H]ON([H])C(=O)C([H])([H])C([H])([H])C([H])([H])C([H])([H])[C@]1([H])C([H])([H])N([H])C([H])([H])[C@@]1([H])c1c([H])nc([H])c([H])c1[H]

$$$$
