
     RDKit          3D

 40 41  0  0  0  0  0  0  0  0999 V2000
    4.7338   -5.2190   28.3055 C   0  0  0  0  0  0  0  0  0  0  0  0
    5.4822   -4.6072   27.2781 O   0  0  0  0  0  0  0  0  0  0  0  0
    6.8363   -4.7413   27.2787 C   0  0  0  0  0  0  0  0  0  0  0  0
    7.5286   -5.4702   28.2476 C   0  0  0  0  0  0  0  0  0  0  0  0
    8.9198   -5.5195   28.2038 C   0  0  0  0  0  0  0  0  0  0  0  0
    9.6359   -4.8076   27.2441 C   0  0  0  0  0  0  0  0  0  0  0  0
    8.9391   -4.1284   26.2416 C   0  0  0  0  0  0  0  0  0  0  0  0
    7.5343   -4.1479   26.1959 C   0  0  0  0  0  0  0  0  0  0  0  0
    6.7576   -3.6802   25.0377 C   0  0  0  0  0  0  0  0  0  0  0  0
    7.2592   -3.6104   23.7982 C   0  0  0  0  0  0  0  0  0  0  0  0
    6.4779   -3.2549   22.5924 C   0  0  0  0  0  0  0  0  0  0  0  0
    5.2732   -3.3692   22.4672 O   0  0  0  0  0  0  0  0  0  0  0  0
    7.2851   -2.7477   21.6072 N   0  0  0  0  0  0  0  0  0  0  0  0
    6.7917   -1.8065   20.6175 C   0  0  0  0  0  0  0  0  0  0  0  0
    7.2522   -0.3428   20.7988 C   0  0  0  0  0  0  0  0  0  0  0  0
    8.6677   -0.2833   20.6720 O   0  0  0  0  0  0  0  0  0  0  0  0
    8.8907    0.6364   20.8654 H   0  0  0  0  0  0  0  0  0  0  0  0
    6.6114    0.5162   19.7335 C   0  0  0  0  0  0  0  0  0  0  0  0
    5.3513    1.1033   19.9114 C   0  0  0  0  0  0  0  0  0  0  0  0
    4.7150    1.6599   18.7990 C   0  0  0  0  0  0  0  0  0  0  0  0
    5.3695    1.6288   17.5621 C   0  0  0  0  0  0  0  0  0  0  0  0
    6.5980    1.1160   17.3872 N   0  0  0  0  0  0  0  0  0  0  0  0
    7.2069    0.6041   18.4627 C   0  0  0  0  0  0  0  0  0  0  0  0
    8.2200    0.2266   18.3162 H   0  0  0  0  0  0  0  0  0  0  0  0
    4.8972    2.0214   16.6640 H   0  0  0  0  0  0  0  0  0  0  0  0
    3.7375    2.1227   18.8727 H   0  0  0  0  0  0  0  0  0  0  0  0
    4.8878    1.1279   20.9018 H   0  0  0  0  0  0  0  0  0  0  0  0
    6.9454   -0.0082   21.8067 H   0  0  0  0  0  0  0  0  0  0  0  0
    5.6996   -1.8538   20.6290 H   0  0  0  0  0  0  0  0  0  0  0  0
    7.1009   -2.1124   19.6194 H   0  0  0  0  0  0  0  0  0  0  0  0
    8.2521   -2.6567   21.8712 H   0  0  0  0  0  0  0  0  0  0  0  0
    8.3073   -3.8352   23.6218 H   0  0  0  0  0  0  0  0  0  0  0  0
    5.7096   -3.4584   25.2425 H   0  0  0  0  0  0  0  0  0  0  0  0
    9.4739   -3.5784   25.4704 H   0  0  0  0  0  0  0  0  0  0  0  0
   10.7210   -4.8228   27.2704 H   0  0  0  0  0  0  0  0  0  0  0  0
    9.4361   -6.0914   28.9611 H   0  0  0  0  0  0  0  0  0  0  0  0
    6.9830   -5.9906   29.0263 H   0  0  0  0  0  0  0  0  0  0  0  0
    3.6988   -4.9564   28.1036 H   0  0  0  0  0  0  0  0  0  0  0  0
    4.8379   -6.3126   28.2854 H   0  0  0  0  0  0  0  0  0  0  0  0
    5.0236   -4.8343   29.2929 H   0  0  0  0  0  0  0  0  0  0  0  0
  1  2  1  0
  2  3  1  0
  3  4  2  0
  4  5  1  0
  5  6  2  0
  6  7  1  0
  7  8  2  0
  8  9  1  0
  9 10  2  3
 10 11  1  0
 11 12  2  0
 11 13  1  0
 13 14  1  0
 14 15  1  0
 15 16  1  0
 16 17  1  0
 15 18  1  0
 18 19  2  0
 19 20  1  0
 20 21  2  0
 21 22  1  0
 22 23  2  0
 23 24  1  0
 21 25  1  0
 20 26  1  0
 19 27  1  0
 15 28  1  0
 14 29  1  0
 14 30  1  0
 13 31  1  0
 10 32  1  0
  9 33  1  0
  7 34  1  0
  6 35  1  0
  5 36  1  0
  4 37  1  0
  1 38  1  0
  1 39  1  0
  1 40  1  0
  8  3  1  0
 23 18  1  0
M  END
>  <cnnaffinity>  (1) 
-4.72656

>  <filename>  (1) 
[H]OC([H])(c1c([H])nc([H])c([H])c1[H])C([H])([H])N([H])C(=O)C([H])=C([H])c1c([H])c([H])c([H])c([H])c1OC([H])([H])[H]

$$$$
