
     RDKit          3D

 49 52  0  0  0  0  0  0  0  0999 V2000
   11.0490   -0.4736   23.6194 C   0  0  0  0  0  0  0  0  0  0  0  0
   11.1638   -1.1217   22.2279 C   0  0  0  0  0  0  0  0  0  0  0  0
   12.5260   -1.7749   21.9166 C   0  0  0  0  0  0  0  0  0  0  0  0
   13.6486   -0.9853   22.2681 O   0  0  0  0  0  0  0  0  0  0  0  0
   13.8517   -0.3912   21.5346 H   0  0  0  0  0  0  0  0  0  0  0  0
   12.6280   -2.7263   22.4563 H   0  0  0  0  0  0  0  0  0  0  0  0
   12.5521   -2.0271   20.8407 H   0  0  0  0  0  0  0  0  0  0  0  0
   10.0770   -2.1978   22.0316 C   0  0  0  0  0  0  0  0  0  0  0  0
    8.7244   -1.6671   21.9183 N   0  0  0  0  0  0  0  0  0  0  0  0
    8.3598   -1.1944   20.7086 N   0  0  0  0  0  0  0  0  0  0  0  0
    7.2147   -0.5817   20.9494 C   0  0  0  0  0  0  0  0  0  0  0  0
    6.4887    0.0938   19.8760 C   0  0  0  0  0  0  0  0  0  0  0  0
    5.2711    0.7738   20.0447 C   0  0  0  0  0  0  0  0  0  0  0  0
    4.7265    1.4095   18.9284 C   0  0  0  0  0  0  0  0  0  0  0  0
    5.4047    1.3443   17.7044 C   0  0  0  0  0  0  0  0  0  0  0  0
    6.5558    0.6785   17.5325 N   0  0  0  0  0  0  0  0  0  0  0  0
    7.0755    0.0736   18.6007 C   0  0  0  0  0  0  0  0  0  0  0  0
    8.0124   -0.4570   18.4429 H   0  0  0  0  0  0  0  0  0  0  0  0
    5.0063    1.8396   16.8217 H   0  0  0  0  0  0  0  0  0  0  0  0
    3.7978    1.9672   18.9831 H   0  0  0  0  0  0  0  0  0  0  0  0
    4.7675    0.8165   21.0145 H   0  0  0  0  0  0  0  0  0  0  0  0
    6.8199   -0.6321   22.2397 N   0  0  0  0  0  0  0  0  0  0  0  0
    7.7673   -1.3456   22.8303 C   0  0  0  0  0  0  0  0  0  0  0  0
    7.7744   -1.7217   24.2948 C   0  0  0  0  0  0  0  0  0  0  0  0
    6.4185   -2.1804   24.8121 C   0  0  0  0  0  0  0  0  0  0  0  0
    5.6294   -1.3024   25.5254 C   0  0  0  0  0  0  0  0  0  0  0  0
    4.3150   -1.6477   25.9547 C   0  0  0  0  0  0  0  0  0  0  0  0
    3.7989   -2.8857   25.6616 C   0  0  0  0  0  0  0  0  0  0  0  0
    4.5742   -3.8377   24.9309 C   0  0  0  0  0  0  0  0  0  0  0  0
    4.0471   -5.1271   24.6105 C   0  0  0  0  0  0  0  0  0  0  0  0
    4.7885   -6.0370   23.8942 C   0  0  0  0  0  0  0  0  0  0  0  0
    6.1040   -5.7067   23.4723 C   0  0  0  0  0  0  0  0  0  0  0  0
    6.6479   -4.4756   23.7712 C   0  0  0  0  0  0  0  0  0  0  0  0
    5.9022   -3.4903   24.5010 C   0  0  0  0  0  0  0  0  0  0  0  0
    7.6584   -4.2428   23.4481 H   0  0  0  0  0  0  0  0  0  0  0  0
    6.6831   -6.4351   22.9122 H   0  0  0  0  0  0  0  0  0  0  0  0
    4.3744   -7.0129   23.6499 H   0  0  0  0  0  0  0  0  0  0  0  0
    3.0437   -5.3731   24.9529 H   0  0  0  0  0  0  0  0  0  0  0  0
    2.7921   -3.1619   25.9736 H   0  0  0  0  0  0  0  0  0  0  0  0
    3.7254   -0.9180   26.5045 H   0  0  0  0  0  0  0  0  0  0  0  0
    6.0156   -0.3140   25.7695 H   0  0  0  0  0  0  0  0  0  0  0  0
    8.0964   -0.8330   24.8561 H   0  0  0  0  0  0  0  0  0  0  0  0
    8.5321   -2.4921   24.4800 H   0  0  0  0  0  0  0  0  0  0  0  0
   10.2472   -2.7371   21.0997 H   0  0  0  0  0  0  0  0  0  0  0  0
   10.1267   -2.9164   22.8548 H   0  0  0  0  0  0  0  0  0  0  0  0
   11.0123   -0.3554   21.4534 H   0  0  0  0  0  0  0  0  0  0  0  0
   10.8958   -1.2432   24.3891 H   0  0  0  0  0  0  0  0  0  0  0  0
   10.1895    0.2073   23.6607 H   0  0  0  0  0  0  0  0  0  0  0  0
   11.9557    0.0849   23.8778 H   0  0  0  0  0  0  0  0  0  0  0  0
  1  2  1  0
  2  3  1  0
  3  4  1  0
  4  5  1  0
  3  6  1  0
  3  7  1  0
  2  8  1  0
  8  9  1  0
  9 10  1  0
 10 11  2  0
 11 12  1  0
 12 13  2  0
 13 14  1  0
 14 15  2  0
 15 16  1  0
 16 17  2  0
 17 18  1  0
 15 19  1  0
 14 20  1  0
 13 21  1  0
 11 22  1  0
 22 23  2  0
 23 24  1  0
 24 25  1  0
 25 26  2  0
 26 27  1  0
 27 28  2  0
 28 29  1  0
 29 30  2  0
 30 31  1  0
 31 32  2  0
 32 33  1  0
 33 34  2  0
 33 35  1  0
 32 36  1  0
 31 37  1  0
 30 38  1  0
 28 39  1  0
 27 40  1  0
 26 41  1  0
 24 42  1  0
 24 43  1  0
  8 44  1  0
  8 45  1  0
  2 46  1  0
  1 47  1  0
  1 48  1  0
  1 49  1  0
 23  9  1  0
 34 25  1  0
 17 12  1  0
 34 29  1  0
M  END
>  <cnnaffinity>  (1) 
-6.13045

>  <filename>  (1) 
[H]OC([H])([H])C([H])(C([H])([H])[H])C([H])([H])n1nc(-c2c([H])nc([H])c([H])c2[H])nc1C([H])([H])c1c([H])c([H])c([H])c2c([H])c([H])c([H])c([H])c12

$$$$
