
     RDKit          3D

 37 38  0  0  0  0  0  0  0  0999 V2000
    9.3408   -2.3823   22.9253 H   0  0  0  0  0  0  0  0  0  0  0  0
    8.5188   -2.8422   23.1508 O   0  0  0  0  0  0  0  0  0  0  0  0
    7.6000   -1.7692   23.1258 C   0  0  2  0  0  0  0  0  0  0  0  0
    6.7558   -2.0245   23.7868 H   0  0  0  0  0  0  0  0  0  0  0  0
    6.8175   -1.5711   21.7313 C   0  0  0  0  0  0  0  0  0  0  0  0
    5.7916   -2.1849   21.5156 O   0  0  0  0  0  0  0  0  0  0  0  0
    7.3784   -0.6888   20.8326 N   0  0  0  0  0  0  0  0  0  0  0  0
    8.2108   -0.2369   21.1786 H   0  0  0  0  0  0  0  0  0  0  0  0
    6.6577   -0.0127   19.7902 C   0  0  0  0  0  0  0  0  0  0  0  0
    7.1806    0.0854   18.4839 C   0  0  0  0  0  0  0  0  0  0  0  0
    8.1328   -0.3861   18.2490 H   0  0  0  0  0  0  0  0  0  0  0  0
    6.5726    0.7299   17.4788 N   0  0  0  0  0  0  0  0  0  0  0  0
    5.4048    1.3389   17.7470 C   0  0  0  0  0  0  0  0  0  0  0  0
    4.9326    1.8566   16.9151 H   0  0  0  0  0  0  0  0  0  0  0  0
    4.8089    1.3158   19.0113 C   0  0  0  0  0  0  0  0  0  0  0  0
    3.8735    1.8434   19.1697 H   0  0  0  0  0  0  0  0  0  0  0  0
    5.4359    0.6190   20.0512 C   0  0  0  0  0  0  0  0  0  0  0  0
    5.0046    0.5681   21.0522 H   0  0  0  0  0  0  0  0  0  0  0  0
    8.4608   -0.6693   23.5940 N   0  0  0  0  0  0  0  0  0  0  0  0
    9.0708   -1.1191   24.2752 H   0  0  0  0  0  0  0  0  0  0  0  0
    7.7962    0.5060   24.1918 C   0  0  0  0  0  0  0  0  0  0  0  0
    6.8032    0.6289   23.7250 H   0  0  0  0  0  0  0  0  0  0  0  0
    7.5570    0.3567   25.7098 C   0  0  0  0  0  0  0  0  0  0  0  0
    6.9534   -0.5440   25.8939 H   0  0  0  0  0  0  0  0  0  0  0  0
    8.5231    0.2041   26.2140 H   0  0  0  0  0  0  0  0  0  0  0  0
    6.8699    1.5982   26.3164 C   0  0  0  0  0  0  0  0  0  0  0  0
    5.8508    1.6855   25.9086 H   0  0  0  0  0  0  0  0  0  0  0  0
    6.7576    1.4807   27.4024 H   0  0  0  0  0  0  0  0  0  0  0  0
    7.6503    2.8861   26.0027 C   0  0  0  0  0  0  0  0  0  0  0  0
    7.1180    3.7630   26.3972 H   0  0  0  0  0  0  0  0  0  0  0  0
    8.6205    2.8568   26.5223 H   0  0  0  0  0  0  0  0  0  0  0  0
    7.8883    3.0411   24.4910 C   0  0  0  0  0  0  0  0  0  0  0  0
    6.9203    3.1964   23.9887 H   0  0  0  0  0  0  0  0  0  0  0  0
    8.4838    3.9417   24.2912 H   0  0  0  0  0  0  0  0  0  0  0  0
    8.5752    1.7982   23.8882 C   0  0  0  0  0  0  0  0  0  0  0  0
    9.5932    1.7112   24.2913 H   0  0  0  0  0  0  0  0  0  0  0  0
    8.6763    1.9062   22.8008 H   0  0  0  0  0  0  0  0  0  0  0  0
  1  2  1  0
  2  3  1  0
  3  4  1  1
  3  5  1  0
  5  6  2  0
  5  7  1  0
  7  8  1  0
  7  9  1  0
  9 10  2  0
 10 11  1  0
 10 12  1  0
 12 13  2  0
 13 14  1  0
 13 15  1  0
 15 16  1  0
 15 17  2  0
 17 18  1  0
  3 19  1  0
 19 20  1  0
 19 21  1  0
 21 22  1  0
 21 23  1  0
 23 24  1  0
 23 25  1  0
 23 26  1  0
 26 27  1  0
 26 28  1  0
 26 29  1  0
 29 30  1  0
 29 31  1  0
 29 32  1  0
 32 33  1  0
 32 34  1  0
 32 35  1  0
 35 36  1  0
 35 37  1  0
 17  9  1  0
 35 21  1  0
M  END
>  <cnnaffinity>  (1) 
-4.24231

>  <filename>  (1) 
[H]O[C@]([H])(C(=O)N([H])c1c([H])nc([H])c([H])c1[H])N([H])C1([H])C([H])([H])C([H])([H])C([H])([H])C([H])([H])C1([H])[H]

$$$$
