
     RDKit          3D

 30 31  0  0  0  0  0  0  0  0999 V2000
    7.2192    2.2175   25.1664 H   0  0  0  0  0  0  0  0  0  0  0  0
    7.9352    1.9357   24.5721 O   0  0  0  0  0  0  0  0  0  0  0  0
    7.2346    1.9343   23.4221 C   0  0  0  0  0  0  0  0  0  0  0  0
    6.0740    2.2676   23.4674 O   0  0  0  0  0  0  0  0  0  0  0  0
    8.0149    1.4852   22.1846 C   0  0  2  0  0  0  0  0  0  0  0  0
    7.4729    1.9397   21.3493 H   0  0  0  0  0  0  0  0  0  0  0  0
    7.9598   -0.0442   22.0501 C   0  0  0  0  0  0  0  0  0  0  0  0
    8.5858   -0.8535   23.0514 C   0  0  0  0  0  0  0  0  0  0  0  0
    9.0284   -0.3494   23.9123 H   0  0  0  0  0  0  0  0  0  0  0  0
    8.6209   -2.2121   22.9481 C   0  0  0  0  0  0  0  0  0  0  0  0
    9.0792   -2.8575   23.6837 H   0  0  0  0  0  0  0  0  0  0  0  0
    8.0359   -2.8882   21.7983 C   0  0  0  0  0  0  0  0  0  0  0  0
    8.0091   -4.0911   21.5908 O   0  0  0  0  0  0  0  0  0  0  0  0
    7.4716   -2.0413   20.8637 N   0  0  0  0  0  0  0  0  0  0  0  0
    7.0388   -2.5546   20.1150 H   0  0  0  0  0  0  0  0  0  0  0  0
    7.3767   -0.6782   20.9742 C   0  0  0  0  0  0  0  0  0  0  0  0
    6.6426    0.0005   19.9064 C   0  0  0  0  0  0  0  0  0  0  0  0
    7.1583    0.0355   18.6015 C   0  0  0  0  0  0  0  0  0  0  0  0
    8.1130   -0.4411   18.3745 H   0  0  0  0  0  0  0  0  0  0  0  0
    6.5611    0.6648   17.5837 N   0  0  0  0  0  0  0  0  0  0  0  0
    5.3985    1.2878   17.8359 C   0  0  0  0  0  0  0  0  0  0  0  0
    4.9313    1.7906   16.9899 H   0  0  0  0  0  0  0  0  0  0  0  0
    4.7959    1.3072   19.0987 C   0  0  0  0  0  0  0  0  0  0  0  0
    3.8691    1.8477   19.2426 H   0  0  0  0  0  0  0  0  0  0  0  0
    5.4279    0.6536   20.1555 C   0  0  0  0  0  0  0  0  0  0  0  0
    5.0137    0.6528   21.1656 H   0  0  0  0  0  0  0  0  0  0  0  0
    9.4687    2.0082   22.1656 C   0  0  0  0  0  0  0  0  0  0  0  0
    9.9650    1.6783   21.2494 H   0  0  0  0  0  0  0  0  0  0  0  0
    9.4874    3.1027   22.1857 H   0  0  0  0  0  0  0  0  0  0  0  0
   10.0492    1.6400   23.0189 H   0  0  0  0  0  0  0  0  0  0  0  0
  1  2  1  0
  2  3  1  0
  3  4  2  0
  3  5  1  0
  5  6  1  6
  5  7  1  0
  7  8  1  0
  8  9  1  0
  8 10  2  0
 10 11  1  0
 10 12  1  0
 12 13  2  0
 12 14  1  0
 14 15  1  0
 14 16  1  0
 16 17  1  0
 17 18  2  0
 18 19  1  0
 18 20  1  0
 20 21  2  0
 21 22  1  0
 21 23  1  0
 23 24  1  0
 23 25  2  0
 25 26  1  0
  5 27  1  0
 27 28  1  0
 27 29  1  0
 27 30  1  0
 16  7  2  0
 25 17  1  0
M  END
>  <cnnaffinity>  (1) 
-4.81459

>  <filename>  (1) 
[H]OC(=O)[C@]([H])(c1c([H])c([H])c(=O)n([H])c1-c1c([H])nc([H])c([H])c1[H])C([H])([H])[H]

$$$$
