
     RDKit          3D

 51 54  0  0  0  0  0  0  0  0999 V2000
   10.1509    7.2359   25.7937 N   0  0  0  0  0  0  0  0  0  0  0  0
    9.6495    6.5788   24.6972 C   0  0  0  0  0  0  0  0  0  0  0  0
    9.6412    7.1528   23.6258 O   0  0  0  0  0  0  0  0  0  0  0  0
    9.1374    5.1728   24.8848 C   0  0  0  0  0  0  0  0  0  0  0  0
    8.9590    4.5623   26.1403 C   0  0  0  0  0  0  0  0  0  0  0  0
    8.5858    3.2195   26.2208 C   0  0  0  0  0  0  0  0  0  0  0  0
    8.4006    2.4602   25.0668 C   0  0  0  0  0  0  0  0  0  0  0  0
    8.5701    3.0596   23.8095 C   0  0  0  0  0  0  0  0  0  0  0  0
    8.5164    2.2370   22.6427 N   0  0  0  0  0  0  0  0  0  0  0  0
    7.6059    1.2336   22.5192 N   0  0  0  0  0  0  0  0  0  0  0  0
    7.9604    0.6376   21.4023 C   0  0  0  0  0  0  0  0  0  0  0  0
    7.2090   -0.5355   20.8364 C   0  0  0  0  0  0  0  0  0  0  0  0
    6.3867   -0.0916   19.6413 C   0  0  0  0  0  0  0  0  0  0  0  0
    5.2118    0.6397   19.8499 C   0  0  0  0  0  0  0  0  0  0  0  0
    4.6458    1.3229   18.7726 C   0  0  0  0  0  0  0  0  0  0  0  0
    5.2693    1.2290   17.5227 C   0  0  0  0  0  0  0  0  0  0  0  0
    6.3404    0.4581   17.2816 N   0  0  0  0  0  0  0  0  0  0  0  0
    6.8629   -0.1977   18.3248 C   0  0  0  0  0  0  0  0  0  0  0  0
    7.7155   -0.8457   18.1132 H   0  0  0  0  0  0  0  0  0  0  0  0
    4.8928    1.7876   16.6698 H   0  0  0  0  0  0  0  0  0  0  0  0
    3.7726    1.9535   18.8970 H   0  0  0  0  0  0  0  0  0  0  0  0
    4.7708    0.6812   20.8496 H   0  0  0  0  0  0  0  0  0  0  0  0
    6.5689   -0.9230   21.6342 H   0  0  0  0  0  0  0  0  0  0  0  0
    7.9195   -1.3213   20.5565 H   0  0  0  0  0  0  0  0  0  0  0  0
    9.0578    1.1629   20.7982 N   0  0  0  0  0  0  0  0  0  0  0  0
    9.4242    2.1332   21.6305 C   0  0  0  0  0  0  0  0  0  0  0  0
   10.8141    2.7373   21.7718 C   0  0  0  0  0  0  0  0  0  0  0  0
   11.5882    2.6867   20.5886 O   0  0  0  0  0  0  0  0  0  0  0  0
   11.5859    1.7694   20.2653 H   0  0  0  0  0  0  0  0  0  0  0  0
   11.5144    2.0887   22.9967 C   0  0  0  0  0  0  0  0  0  0  0  0
   11.2178    0.5814   23.1979 C   0  0  0  0  0  0  0  0  0  0  0  0
   12.4320    0.0067   23.9308 C   0  0  0  0  0  0  0  0  0  0  0  0
   13.4121    1.1684   24.0949 C   0  0  0  0  0  0  0  0  0  0  0  0
   13.0386    2.1392   22.9867 C   0  0  0  0  0  0  0  0  0  0  0  0
   13.3743    1.7224   22.0349 H   0  0  0  0  0  0  0  0  0  0  0  0
   13.4783    3.1400   23.0764 H   0  0  0  0  0  0  0  0  0  0  0  0
   14.4529    0.8448   24.0485 H   0  0  0  0  0  0  0  0  0  0  0  0
   13.2372    1.6237   25.0656 H   0  0  0  0  0  0  0  0  0  0  0  0
   12.1529   -0.4187   24.9033 H   0  0  0  0  0  0  0  0  0  0  0  0
   12.8994   -0.7588   23.3033 H   0  0  0  0  0  0  0  0  0  0  0  0
   10.2741    0.4158   23.7273 H   0  0  0  0  0  0  0  0  0  0  0  0
   11.1007    0.1005   22.2218 H   0  0  0  0  0  0  0  0  0  0  0  0
   11.1460    2.6228   23.8844 H   0  0  0  0  0  0  0  0  0  0  0  0
   10.7260    3.8011   22.0017 H   0  0  0  0  0  0  0  0  0  0  0  0
    8.8674    4.4248   23.7181 C   0  0  0  0  0  0  0  0  0  0  0  0
    8.8990    4.9181   22.7467 H   0  0  0  0  0  0  0  0  0  0  0  0
    8.1318    1.4085   25.1224 H   0  0  0  0  0  0  0  0  0  0  0  0
    8.4444    2.7582   27.1943 H   0  0  0  0  0  0  0  0  0  0  0  0
    9.0874    5.1196   27.0663 H   0  0  0  0  0  0  0  0  0  0  0  0
   10.6396    8.0548   25.4603 H   0  0  0  0  0  0  0  0  0  0  0  0
   10.6428    6.6806   26.4737 H   0  0  0  0  0  0  0  0  0  0  0  0
  1  2  1  0
  2  3  2  0
  2  4  1  0
  4  5  2  0
  5  6  1  0
  6  7  2  0
  7  8  1  0
  8  9  1  0
  9 10  1  0
 10 11  2  0
 11 12  1  0
 12 13  1  0
 13 14  2  0
 14 15  1  0
 15 16  2  0
 16 17  1  0
 17 18  2  0
 18 19  1  0
 16 20  1  0
 15 21  1  0
 14 22  1  0
 12 23  1  0
 12 24  1  0
 11 25  1  0
 25 26  2  0
 26 27  1  0
 27 28  1  0
 28 29  1  0
 27 30  1  0
 30 31  1  0
 31 32  1  0
 32 33  1  0
 33 34  1  0
 34 35  1  0
 34 36  1  0
 33 37  1  0
 33 38  1  0
 32 39  1  0
 32 40  1  0
 31 41  1  0
 31 42  1  0
 30 43  1  0
 27 44  1  0
  8 45  2  0
 45 46  1  0
  7 47  1  0
  6 48  1  0
  5 49  1  0
  1 50  1  0
  1 51  1  0
 45  4  1  0
 26  9  1  0
 34 30  1  0
 18 13  1  0
M  END
>  <cnnaffinity>  (1) 
-5.83697

>  <filename>  (1) 
[H]OC([H])(c1nc(C([H])([H])c2c([H])nc([H])c([H])c2[H])nn1-c1c([H])c([H])c([H])c(C(=O)N([H])[H])c1[H])C1([H])C([H])([H])C([H])([H])C([H])([H])C1([H])[H]

$$$$
