
     RDKit          3D

 36 38  0  0  0  0  0  0  0  0999 V2000
   10.7547    1.1331   27.0716 H   0  0  0  0  0  0  0  0  0  0  0  0
   10.4860    1.0736   26.1410 O   0  0  0  0  0  0  0  0  0  0  0  0
    9.6696   -0.0777   26.0177 C   0  0  2  0  0  0  0  0  0  0  0  0
   10.2648   -0.9948   26.1054 H   0  0  0  0  0  0  0  0  0  0  0  0
    9.0614   -0.0763   24.6179 C   0  0  0  0  0  0  0  0  0  0  0  0
    8.4457    0.8276   24.4772 H   0  0  0  0  0  0  0  0  0  0  0  0
    9.8552   -0.0465   23.8605 H   0  0  0  0  0  0  0  0  0  0  0  0
    8.2339   -1.2909   24.4126 N   0  0  0  0  0  0  0  0  0  0  0  0
    7.7846   -1.3319   23.0845 N   0  0  0  0  0  0  0  0  0  0  0  0
    6.9711   -0.4087   22.4190 C   0  0  0  0  0  0  0  0  0  0  0  0
    6.1935    0.3748   22.9476 O   0  0  0  0  0  0  0  0  0  0  0  0
    7.3123   -0.5674   20.9608 C   0  0  0  0  0  0  0  0  0  0  0  0
    6.6522    0.1665   19.8586 C   0  0  0  0  0  0  0  0  0  0  0  0
    7.1608    0.1225   18.5366 C   0  0  0  0  0  0  0  0  0  0  0  0
    8.0978   -0.3931   18.3240 H   0  0  0  0  0  0  0  0  0  0  0  0
    6.5679    0.6879   17.4811 N   0  0  0  0  0  0  0  0  0  0  0  0
    5.4220    1.3544   17.7021 C   0  0  0  0  0  0  0  0  0  0  0  0
    4.9371    1.7885   16.8284 H   0  0  0  0  0  0  0  0  0  0  0  0
    4.8474    1.4923   18.9694 C   0  0  0  0  0  0  0  0  0  0  0  0
    3.9344    2.0662   19.0831 H   0  0  0  0  0  0  0  0  0  0  0  0
    5.4694    0.8960   20.0669 C   0  0  0  0  0  0  0  0  0  0  0  0
    5.0657    0.9763   21.0773 H   0  0  0  0  0  0  0  0  0  0  0  0
    8.2986   -1.4757   20.8505 C   0  0  0  0  0  0  0  0  0  0  0  0
    8.8172   -1.7185   19.9312 H   0  0  0  0  0  0  0  0  0  0  0  0
    8.6314   -2.0742   22.1696 C   0  0  0  0  0  0  0  0  0  0  0  0
    9.6931   -1.9493   22.4260 H   0  0  0  0  0  0  0  0  0  0  0  0
    8.4179   -3.1456   22.2335 H   0  0  0  0  0  0  0  0  0  0  0  0
    7.1134   -1.3637   25.3868 C   0  0  0  0  0  0  0  0  0  0  0  0
    6.4381   -0.5090   25.2107 H   0  0  0  0  0  0  0  0  0  0  0  0
    6.5557   -2.2905   25.2022 H   0  0  0  0  0  0  0  0  0  0  0  0
    7.6669   -1.3514   26.8191 C   0  0  0  0  0  0  0  0  0  0  0  0
    8.2563   -2.2651   26.9823 H   0  0  0  0  0  0  0  0  0  0  0  0
    6.8374   -1.3811   27.5300 H   0  0  0  0  0  0  0  0  0  0  0  0
    8.5570   -0.1251   27.0740 C   0  0  0  0  0  0  0  0  0  0  0  0
    8.9908   -0.1696   28.0828 H   0  0  0  0  0  0  0  0  0  0  0  0
    7.9749    0.8081   27.0167 H   0  0  0  0  0  0  0  0  0  0  0  0
  1  2  1  0
  2  3  1  0
  3  4  1  6
  3  5  1  0
  5  6  1  0
  5  7  1  0
  5  8  1  0
  8  9  1  0
  9 10  1  0
 10 11  2  0
 10 12  1  0
 12 13  1  0
 13 14  2  0
 14 15  1  0
 14 16  1  0
 16 17  2  0
 17 18  1  0
 17 19  1  0
 19 20  1  0
 19 21  2  0
 21 22  1  0
 12 23  2  0
 23 24  1  0
 23 25  1  0
 25 26  1  0
 25 27  1  0
  8 28  1  0
 28 29  1  0
 28 30  1  0
 28 31  1  0
 31 32  1  0
 31 33  1  0
 31 34  1  0
 34 35  1  0
 34 36  1  0
 34  3  1  0
 25  9  1  0
 21 13  1  0
M  END
>  <cnnaffinity>  (1) 
-4.65499

>  <filename>  (1) 
[H]O[C@]1([H])C([H])([H])N(N2C(=O)C(c3c([H])nc([H])c([H])c3[H])=C([H])C2([H])[H])C([H])([H])C([H])([H])C1([H])[H]

$$$$
