
     RDKit          3D

 44 47  0  0  0  0  0  0  0  0999 V2000
   12.5382    3.8248   20.9500 C   0  0  0  0  0  0  0  0  0  0  0  0
   11.7381    2.7634   20.9721 C   0  0  0  0  0  0  0  0  0  0  0  0
   11.4886    1.7807   22.0876 C   0  0  0  0  0  0  0  0  0  0  0  0
   10.0784    1.3854   22.1434 N   0  0  0  0  0  0  0  0  0  0  0  0
    9.6330    0.4173   21.3054 N   0  0  0  0  0  0  0  0  0  0  0  0
    8.3750    0.2533   21.6740 C   0  0  0  0  0  0  0  0  0  0  0  0
    7.4449   -0.6924   20.9588 C   0  0  0  0  0  0  0  0  0  0  0  0
    6.6633   -0.0387   19.8235 C   0  0  0  0  0  0  0  0  0  0  0  0
    5.4603    0.6282   20.0896 C   0  0  0  0  0  0  0  0  0  0  0  0
    4.8153    1.3069   19.0531 C   0  0  0  0  0  0  0  0  0  0  0  0
    5.3984    1.3058   17.7838 C   0  0  0  0  0  0  0  0  0  0  0  0
    6.5416    0.6621   17.5017 N   0  0  0  0  0  0  0  0  0  0  0  0
    7.1467    0.0134   18.5048 C   0  0  0  0  0  0  0  0  0  0  0  0
    8.0753   -0.4951   18.2440 H   0  0  0  0  0  0  0  0  0  0  0  0
    4.9285    1.8398   16.9567 H   0  0  0  0  0  0  0  0  0  0  0  0
    3.8862    1.8408   19.2171 H   0  0  0  0  0  0  0  0  0  0  0  0
    5.0404    0.6199   21.0982 H   0  0  0  0  0  0  0  0  0  0  0  0
    6.7369   -1.0880   21.6950 H   0  0  0  0  0  0  0  0  0  0  0  0
    8.0270   -1.5405   20.5826 H   0  0  0  0  0  0  0  0  0  0  0  0
    7.9903    1.0303   22.7142 N   0  0  0  0  0  0  0  0  0  0  0  0
    9.0716    1.7567   22.9713 C   0  0  0  0  0  0  0  0  0  0  0  0
    9.1755    2.8132   24.0053 C   0  0  0  0  0  0  0  0  0  0  0  0
    8.6170    2.5482   25.2873 C   0  0  0  0  0  0  0  0  0  0  0  0
    8.6590    3.4868   26.3112 C   0  0  0  0  0  0  0  0  0  0  0  0
    9.2389    4.7281   26.0272 C   0  0  0  0  0  0  0  0  0  0  0  0
    9.3958    5.8827   26.7607 N   0  0  0  0  0  0  0  0  0  0  0  0
   10.0167    6.8030   25.9460 C   0  0  0  0  0  0  0  0  0  0  0  0
   10.3577    8.1972   26.4457 C   0  0  0  0  0  0  0  0  0  0  0  0
    9.3503    9.2056   26.3961 O   0  0  0  0  0  0  0  0  0  0  0  0
    8.5188    8.9012   26.7856 H   0  0  0  0  0  0  0  0  0  0  0  0
   11.1648    8.5665   25.8095 H   0  0  0  0  0  0  0  0  0  0  0  0
   10.7531    8.1097   27.4706 H   0  0  0  0  0  0  0  0  0  0  0  0
   10.2895    6.3217   24.7644 N   0  0  0  0  0  0  0  0  0  0  0  0
    9.7966    5.0259   24.7671 C   0  0  0  0  0  0  0  0  0  0  0  0
    9.7669    4.0627   23.7481 C   0  0  0  0  0  0  0  0  0  0  0  0
   10.1775    4.3196   22.7742 H   0  0  0  0  0  0  0  0  0  0  0  0
    9.1228    5.9934   27.7235 H   0  0  0  0  0  0  0  0  0  0  0  0
    8.2353    3.2568   27.2847 H   0  0  0  0  0  0  0  0  0  0  0  0
    8.1206    1.5932   25.4464 H   0  0  0  0  0  0  0  0  0  0  0  0
   11.7852    2.1882   23.0558 H   0  0  0  0  0  0  0  0  0  0  0  0
   12.0640    0.8664   21.9200 H   0  0  0  0  0  0  0  0  0  0  0  0
   11.1792    2.5366   20.0713 H   0  0  0  0  0  0  0  0  0  0  0  0
   13.2080    4.1494   21.7467 H   0  0  0  0  0  0  0  0  0  0  0  0
   12.5900    4.4196   20.0401 H   0  0  0  0  0  0  0  0  0  0  0  0
  1  2  2  3
  2  3  1  0
  3  4  1  0
  4  5  1  0
  5  6  2  0
  6  7  1  0
  7  8  1  0
  8  9  2  0
  9 10  1  0
 10 11  2  0
 11 12  1  0
 12 13  2  0
 13 14  1  0
 11 15  1  0
 10 16  1  0
  9 17  1  0
  7 18  1  0
  7 19  1  0
  6 20  1  0
 20 21  2  0
 21 22  1  0
 22 23  2  0
 23 24  1  0
 24 25  2  0
 25 26  1  0
 26 27  1  0
 27 28  1  0
 28 29  1  0
 29 30  1  0
 28 31  1  0
 28 32  1  0
 27 33  2  0
 33 34  1  0
 34 35  2  0
 35 36  1  0
 26 37  1  0
 24 38  1  0
 23 39  1  0
  3 40  1  0
  3 41  1  0
  2 42  1  0
  1 43  1  0
  1 44  1  0
 21  4  1  0
 35 22  1  0
 13  8  1  0
 34 25  1  0
M  END
>  <cnnaffinity>  (1) 
-5.9258

>  <filename>  (1) 
[H]OC([H])([H])c1nc2c([H])c(-c3nc(C([H])([H])c4c([H])nc([H])c([H])c4[H])nn3C([H])([H])C([H])=C([H])[H])c([H])c([H])c2n1[H]

$$$$
