
     RDKit          3D

 31 32  0  0  0  0  0  0  0  0999 V2000
    9.1944    3.4579   20.9522 H   0  0  0  0  0  0  0  0  0  0  0  0
    9.6596    2.6137   21.0363 O   0  0  0  0  0  0  0  0  0  0  0  0
    8.7418    1.5370   20.9982 C   0  0  0  0  0  0  0  0  0  0  0  0
    7.7973    1.8491   20.5346 H   0  0  0  0  0  0  0  0  0  0  0  0
    9.1816    0.7518   20.3741 H   0  0  0  0  0  0  0  0  0  0  0  0
    8.4388    0.8763   22.3784 C   0  0  0  0  0  0  0  0  0  0  0  0
    7.9370   -0.5060   22.1056 N   0  0  0  0  0  0  0  0  0  0  0  0
    7.1586   -0.9624   21.0452 C   0  0  0  0  0  0  0  0  0  0  0  0
    6.5073   -0.1673   20.0017 C   0  0  0  0  0  0  0  0  0  0  0  0
    7.0686   -0.2293   18.7213 C   0  0  0  0  0  0  0  0  0  0  0  0
    7.9421   -0.8603   18.5357 H   0  0  0  0  0  0  0  0  0  0  0  0
    6.6013    0.4541   17.6739 N   0  0  0  0  0  0  0  0  0  0  0  0
    5.5094    1.2129   17.8706 C   0  0  0  0  0  0  0  0  0  0  0  0
    5.1695    1.7821   17.0087 H   0  0  0  0  0  0  0  0  0  0  0  0
    4.8354    1.2940   19.0948 C   0  0  0  0  0  0  0  0  0  0  0  0
    3.9528    1.9208   19.1884 H   0  0  0  0  0  0  0  0  0  0  0  0
    5.3387    0.5842   20.1864 C   0  0  0  0  0  0  0  0  0  0  0  0
    4.8400    0.5893   21.1574 H   0  0  0  0  0  0  0  0  0  0  0  0
    7.0793   -2.2572   20.9904 N   0  0  0  0  0  0  0  0  0  0  0  0
    7.7979   -2.6592   22.0765 N   0  0  0  0  0  0  0  0  0  0  0  0
    7.8210   -3.5949   22.4364 H   0  0  0  0  0  0  0  0  0  0  0  0
    8.3023   -1.6493   22.8303 C   0  0  0  0  0  0  0  0  0  0  0  0
    8.9097   -1.7925   23.8741 O   0  0  0  0  0  0  0  0  0  0  0  0
    7.3449    1.6262   23.1429 C   0  0  0  0  0  0  0  0  0  0  0  0
    7.6568    2.6594   23.3255 H   0  0  0  0  0  0  0  0  0  0  0  0
    6.4069    1.6433   22.5871 H   0  0  0  0  0  0  0  0  0  0  0  0
    7.1547    1.1343   24.1021 H   0  0  0  0  0  0  0  0  0  0  0  0
    9.7118    0.8299   23.2257 C   0  0  0  0  0  0  0  0  0  0  0  0
   10.4816    0.2121   22.7546 H   0  0  0  0  0  0  0  0  0  0  0  0
   10.1011    1.8444   23.3320 H   0  0  0  0  0  0  0  0  0  0  0  0
    9.5079    0.4063   24.2097 H   0  0  0  0  0  0  0  0  0  0  0  0
  1  2  1  0
  2  3  1  0
  3  4  1  0
  3  5  1  0
  3  6  1  0
  6  7  1  0
  7  8  1  0
  8  9  1  0
  9 10  2  0
 10 11  1  0
 10 12  1  0
 12 13  2  0
 13 14  1  0
 13 15  1  0
 15 16  1  0
 15 17  2  0
 17 18  1  0
  8 19  2  0
 19 20  1  0
 20 21  1  0
 20 22  1  0
 22 23  2  0
  6 24  1  0
 24 25  1  0
 24 26  1  0
 24 27  1  0
  6 28  1  0
 28 29  1  0
 28 30  1  0
 28 31  1  0
 22  7  1  0
 17  9  1  0
M  END
>  <cnnaffinity>  (1) 
-4.67385

>  <filename>  (1) 
[H]OC([H])([H])C(n1c(-c2c([H])nc([H])c([H])c2[H])nn([H])c1=O)(C([H])([H])[H])C([H])([H])[H]

$$$$
