
     RDKit          3D

 29 31  0  0  0  0  0  0  0  0999 V2000
    7.5441   -2.5067   20.6311 H   0  0  0  0  0  0  0  0  0  0  0  0
    8.1251   -1.7238   20.5728 O   0  0  0  0  0  0  0  0  0  0  0  0
    7.3204   -0.6659   20.9327 N   0  0  0  0  0  0  0  0  0  0  0  0
    6.6601    0.0148   19.9051 C   0  0  0  0  0  0  0  0  0  0  0  0
    7.1783    0.0503   18.5921 C   0  0  0  0  0  0  0  0  0  0  0  0
    8.1259   -0.4378   18.3757 H   0  0  0  0  0  0  0  0  0  0  0  0
    6.5690    0.6739   17.5779 N   0  0  0  0  0  0  0  0  0  0  0  0
    5.4023    1.2924   17.8349 C   0  0  0  0  0  0  0  0  0  0  0  0
    4.9194    1.7820   16.9933 H   0  0  0  0  0  0  0  0  0  0  0  0
    4.8035    1.3093   19.0993 C   0  0  0  0  0  0  0  0  0  0  0  0
    3.8740    1.8421   19.2570 H   0  0  0  0  0  0  0  0  0  0  0  0
    5.4342    0.6561   20.1578 C   0  0  0  0  0  0  0  0  0  0  0  0
    5.0124    0.6330   21.1649 H   0  0  0  0  0  0  0  0  0  0  0  0
    7.3534   -0.2409   22.2745 C   0  0  0  0  0  0  0  0  0  0  0  0
    7.5218    1.1125   22.5682 C   0  0  0  0  0  0  0  0  0  0  0  0
    7.6407    1.8275   21.7540 H   0  0  0  0  0  0  0  0  0  0  0  0
    7.5317    1.5797   23.9043 C   0  0  0  0  0  0  0  0  0  0  0  0
    7.6648    2.6434   24.0940 H   0  0  0  0  0  0  0  0  0  0  0  0
    7.3689    0.7012   24.9529 C   0  0  0  0  0  0  0  0  0  0  0  0
    7.3788    1.0535   25.9837 H   0  0  0  0  0  0  0  0  0  0  0  0
    7.1902   -0.6907   24.7018 C   0  0  0  0  0  0  0  0  0  0  0  0
    7.0179   -1.6259   25.7645 C   0  0  0  0  0  0  0  0  0  0  0  0
    7.0322   -1.2654   26.7952 H   0  0  0  0  0  0  0  0  0  0  0  0
    6.8364   -2.9507   25.4618 C   0  0  0  0  0  0  0  0  0  0  0  0
    6.7031   -3.6956   26.2393 H   0  0  0  0  0  0  0  0  0  0  0  0
    6.8223   -3.3531   24.0988 C   0  0  0  0  0  0  0  0  0  0  0  0
    6.6777   -4.4026   23.8516 H   0  0  0  0  0  0  0  0  0  0  0  0
    6.9888   -2.5336   23.0807 N   0  0  0  0  0  0  0  0  0  0  0  0
    7.1822   -1.1991   23.3501 C   0  0  0  0  0  0  0  0  0  0  0  0
  1  2  1  0
  2  3  1  0
  3  4  1  0
  4  5  2  0
  5  6  1  0
  5  7  1  0
  7  8  2  0
  8  9  1  0
  8 10  1  0
 10 11  1  0
 10 12  2  0
 12 13  1  0
  3 14  1  0
 14 15  2  0
 15 16  1  0
 15 17  1  0
 17 18  1  0
 17 19  2  0
 19 20  1  0
 19 21  1  0
 21 22  2  0
 22 23  1  0
 22 24  1  0
 24 25  1  0
 24 26  2  0
 26 27  1  0
 26 28  1  0
 28 29  2  0
 12  4  1  0
 29 14  1  0
 29 21  1  0
M  END
>  <cnnaffinity>  (1) 
-5.13113

>  <filename>  (1) 
[H]ON(c1c([H])nc([H])c([H])c1[H])c1c([H])c([H])c([H])c2c([H])c([H])c([H])nc12

$$$$
