
     RDKit          3D

 39 42  0  0  0  0  0  0  0  0999 V2000
    9.7043   -1.3231   27.3918 O   0  0  0  0  0  0  0  0  0  0  0  0
    8.7698   -1.7215   26.5283 C   0  0  0  0  0  0  0  0  0  0  0  0
    8.8359   -1.3810   25.1466 C   0  0  0  0  0  0  0  0  0  0  0  0
    7.7879   -1.7365   24.3098 C   0  0  0  0  0  0  0  0  0  0  0  0
    7.7611   -1.3106   22.8727 C   0  0  0  0  0  0  0  0  0  0  0  0
    6.8387   -0.6599   22.1914 N   0  0  0  0  0  0  0  0  0  0  0  0
    7.3636   -0.5773   20.9420 C   0  0  0  0  0  0  0  0  0  0  0  0
    6.6337    0.0561   19.8562 C   0  0  0  0  0  0  0  0  0  0  0  0
    5.4059    0.6861   20.0912 C   0  0  0  0  0  0  0  0  0  0  0  0
    4.7887    1.3270   19.0209 C   0  0  0  0  0  0  0  0  0  0  0  0
    5.4150    1.3011   17.7674 C   0  0  0  0  0  0  0  0  0  0  0  0
    6.5738    0.6669   17.5290 N   0  0  0  0  0  0  0  0  0  0  0  0
    7.1684    0.0595   18.5611 C   0  0  0  0  0  0  0  0  0  0  0  0
    8.1090   -0.4482   18.3537 H   0  0  0  0  0  0  0  0  0  0  0  0
    4.9704    1.8138   16.9168 H   0  0  0  0  0  0  0  0  0  0  0  0
    3.8575    1.8661   19.1514 H   0  0  0  0  0  0  0  0  0  0  0  0
    4.9714    0.6744   21.0938 H   0  0  0  0  0  0  0  0  0  0  0  0
    8.5484   -1.1302   20.8048 N   0  0  0  0  0  0  0  0  0  0  0  0
    8.8061   -1.5850   22.0503 N   0  0  0  0  0  0  0  0  0  0  0  0
    9.9738   -2.4065   22.2174 C   0  0  0  0  0  0  0  0  0  0  0  0
   11.2980   -1.6684   22.2541 C   0  0  0  0  0  0  0  0  0  0  0  0
   11.3471   -0.6999   23.1867 F   0  0  0  0  0  0  0  0  0  0  0  0
   11.6329   -1.1121   21.0891 F   0  0  0  0  0  0  0  0  0  0  0  0
   12.2388   -2.5791   22.5591 F   0  0  0  0  0  0  0  0  0  0  0  0
    9.8970   -3.0146   23.1173 H   0  0  0  0  0  0  0  0  0  0  0  0
   10.0241   -3.0301   21.3297 H   0  0  0  0  0  0  0  0  0  0  0  0
    6.7389   -2.5664   24.8621 C   0  0  0  0  0  0  0  0  0  0  0  0
    5.6594   -3.1301   24.1064 C   0  0  0  0  0  0  0  0  0  0  0  0
    4.6844   -3.8818   24.7246 C   0  0  0  0  0  0  0  0  0  0  0  0
    4.7440   -4.1195   26.1196 C   0  0  0  0  0  0  0  0  0  0  0  0
    5.7894   -3.6218   26.8669 C   0  0  0  0  0  0  0  0  0  0  0  0
    6.8146   -2.8537   26.2660 C   0  0  0  0  0  0  0  0  0  0  0  0
    7.8214   -2.4161   27.0885 N   0  0  0  0  0  0  0  0  0  0  0  0
    5.8819   -3.7936   27.9331 H   0  0  0  0  0  0  0  0  0  0  0  0
    3.9549   -4.6978   26.5936 H   0  0  0  0  0  0  0  0  0  0  0  0
    3.8649   -4.2947   24.1401 H   0  0  0  0  0  0  0  0  0  0  0  0
    5.6159   -2.9284   23.0376 H   0  0  0  0  0  0  0  0  0  0  0  0
    9.7046   -0.8439   24.8017 H   0  0  0  0  0  0  0  0  0  0  0  0
    9.2936   -1.6961   28.1937 H   0  0  0  0  0  0  0  0  0  0  0  0
  1  2  1  0
  2  3  2  0
  3  4  1  0
  4  5  1  0
  5  6  2  0
  6  7  1  0
  7  8  1  0
  8  9  2  0
  9 10  1  0
 10 11  2  0
 11 12  1  0
 12 13  2  0
 13 14  1  0
 11 15  1  0
 10 16  1  0
  9 17  1  0
  7 18  2  0
 18 19  1  0
 19 20  1  0
 20 21  1  0
 21 22  1  0
 21 23  1  0
 21 24  1  0
 20 25  1  0
 20 26  1  0
  4 27  2  0
 27 28  1  0
 28 29  2  0
 29 30  1  0
 30 31  2  0
 31 32  1  0
 32 33  2  0
 31 34  1  0
 30 35  1  0
 29 36  1  0
 28 37  1  0
  3 38  1  0
  1 39  1  0
 33  2  1  0
 19  5  1  0
 32 27  1  0
 13  8  1  0
M  END
>  <cnnaffinity>  (1) 
-6.14777

>  <filename>  (1) 
[H]Oc1nc2c([H])c([H])c([H])c([H])c2c(-c2nc(-c3c([H])nc([H])c([H])c3[H])nn2C([H])([H])C(F)(F)F)c1[H]

$$$$
