
     RDKit          3D

 36 38  0  0  0  0  0  0  0  0999 V2000
    7.5435    2.8511   27.8257 H   0  0  0  0  0  0  0  0  0  0  0  0
    7.2633    2.5598   26.9413 O   0  0  0  0  0  0  0  0  0  0  0  0
    7.9363    3.4659   26.1966 C   0  0  0  0  0  0  0  0  0  0  0  0
    8.5111    4.3628   26.7524 O   0  0  0  0  0  0  0  0  0  0  0  0
    7.9118    3.1622   24.6796 C   0  0  0  0  0  0  0  0  0  0  0  0
    8.3442    4.1278   23.8803 O   0  0  0  0  0  0  0  0  0  0  0  0
    8.2552    3.7790   22.9491 H   0  0  0  0  0  0  0  0  0  0  0  0
    7.5262    1.9488   24.1932 C   0  0  0  0  0  0  0  0  0  0  0  0
    7.1707    1.1853   24.8720 H   0  0  0  0  0  0  0  0  0  0  0  0
    7.5612    1.6134   22.7715 C   0  0  0  0  0  0  0  0  0  0  0  0
    7.7856    2.4906   21.9267 O   0  0  0  0  0  0  0  0  0  0  0  0
    7.3617    0.2017   22.3772 C   0  0  0  0  0  0  0  0  0  0  0  0
    7.0413   -0.2351   21.1343 C   0  0  0  0  0  0  0  0  0  0  0  0
    6.4575    0.4747   19.9906 C   0  0  0  0  0  0  0  0  0  0  0  0
    7.0280    0.2904   18.7169 C   0  0  0  0  0  0  0  0  0  0  0  0
    7.9568   -0.2747   18.6293 H   0  0  0  0  0  0  0  0  0  0  0  0
    6.5135    0.7508   17.5754 N   0  0  0  0  0  0  0  0  0  0  0  0
    5.3741    1.4573   17.6668 C   0  0  0  0  0  0  0  0  0  0  0  0
    4.9610    1.8154   16.7257 H   0  0  0  0  0  0  0  0  0  0  0  0
    4.7163    1.7053   18.8763 C   0  0  0  0  0  0  0  0  0  0  0  0
    3.8041    2.2918   18.8762 H   0  0  0  0  0  0  0  0  0  0  0  0
    5.2635    1.2086   20.0622 C   0  0  0  0  0  0  0  0  0  0  0  0
    4.7692    1.3334   21.0266 H   0  0  0  0  0  0  0  0  0  0  0  0
    7.2634   -1.7133   21.0027 C   0  0  0  0  0  0  0  0  0  0  0  0
    6.3090   -2.2026   20.7726 H   0  0  0  0  0  0  0  0  0  0  0  0
    7.9364   -1.9204   20.1638 H   0  0  0  0  0  0  0  0  0  0  0  0
    7.8514   -2.1475   22.3424 C   0  0  0  0  0  0  0  0  0  0  0  0
    7.6018   -0.9804   23.3002 C   0  0  0  0  0  0  0  0  0  0  0  0
    8.4191   -0.8066   24.0111 H   0  0  0  0  0  0  0  0  0  0  0  0
    6.6937   -1.1691   23.8895 H   0  0  0  0  0  0  0  0  0  0  0  0
    7.8412   -3.5976   22.7270 C   0  0  0  0  0  0  0  0  0  0  0  0
    7.6769   -3.8807   23.7636 H   0  0  0  0  0  0  0  0  0  0  0  0
    7.3831   -4.2908   22.0228 H   0  0  0  0  0  0  0  0  0  0  0  0
    9.1335   -2.9244   22.3418 C   0  0  0  0  0  0  0  0  0  0  0  0
    9.8803   -2.7193   23.1033 H   0  0  0  0  0  0  0  0  0  0  0  0
    9.5583   -3.1618   21.3724 H   0  0  0  0  0  0  0  0  0  0  0  0
  1  2  1  0
  2  3  1  0
  3  4  2  0
  3  5  1  0
  5  6  1  0
  6  7  1  0
  5  8  2  3
  8  9  1  0
  8 10  1  0
 10 11  2  0
 10 12  1  0
 12 13  2  0
 13 14  1  0
 14 15  2  0
 15 16  1  0
 15 17  1  0
 17 18  2  0
 18 19  1  0
 18 20  1  0
 20 21  1  0
 20 22  2  0
 22 23  1  0
 13 24  1  0
 24 25  1  0
 24 26  1  0
 24 27  1  0
 27 28  1  0
 28 29  1  0
 28 30  1  0
 27 31  1  0
 31 32  1  0
 31 33  1  0
 31 34  1  0
 34 35  1  0
 34 36  1  0
 28 12  1  0
 22 14  1  0
 34 27  1  0
M  END
>  <cnnaffinity>  (1) 
-4.64424

>  <filename>  (1) 
[H]OC(=O)C(O[H])=C([H])C(=O)C1=C(c2c([H])nc([H])c([H])c2[H])C([H])([H])C2(C1([H])[H])C([H])([H])C2([H])[H]

$$$$
