
     RDKit          3D

 38 40  0  0  0  0  0  0  0  0999 V2000
    7.4258    4.5075   21.1857 H   0  0  0  0  0  0  0  0  0  0  0  0
    8.0626    4.4628   21.9209 O   0  0  0  0  0  0  0  0  0  0  0  0
    8.5592    3.2318   21.7034 C   0  0  0  0  0  0  0  0  0  0  0  0
    8.1324    2.5431   20.8060 O   0  0  0  0  0  0  0  0  0  0  0  0
    9.5708    2.7957   22.6655 C   0  0  0  0  0  0  0  0  0  0  0  0
   10.0390    1.4992   22.8548 C   0  0  0  0  0  0  0  0  0  0  0  0
    9.6025    0.3159   22.0298 C   0  0  0  0  0  0  0  0  0  0  0  0
   10.2201   -0.5722   22.2391 H   0  0  0  0  0  0  0  0  0  0  0  0
    9.7584    0.5470   20.9702 H   0  0  0  0  0  0  0  0  0  0  0  0
    8.1031    0.0080   22.2222 C   0  0  2  0  0  0  0  0  0  0  0  0
    7.5518    0.9506   22.2329 H   0  0  0  0  0  0  0  0  0  0  0  0
    7.7662   -0.6994   23.5486 C   0  0  0  0  0  0  0  0  0  0  0  0
    8.6257   -1.2535   23.9551 H   0  0  0  0  0  0  0  0  0  0  0  0
    7.4660    0.0109   24.3294 H   0  0  0  0  0  0  0  0  0  0  0  0
    6.6841   -1.5781   23.1783 N   0  0  0  0  0  0  0  0  0  0  0  0
    6.0743   -2.0668   23.8129 H   0  0  0  0  0  0  0  0  0  0  0  0
    6.4673   -1.7691   21.8540 C   0  0  0  0  0  0  0  0  0  0  0  0
    5.6597   -2.5487   21.3908 O   0  0  0  0  0  0  0  0  0  0  0  0
    7.4472   -0.8446   21.0997 C   0  0  1  0  0  0  0  0  0  0  0  0
    8.1877   -1.5179   20.6523 H   0  0  0  0  0  0  0  0  0  0  0  0
    6.7882   -0.0377   19.9765 C   0  0  0  0  0  0  0  0  0  0  0  0
    7.3478    0.0700   18.6857 C   0  0  0  0  0  0  0  0  0  0  0  0
    8.3084   -0.3998   18.4754 H   0  0  0  0  0  0  0  0  0  0  0  0
    6.7714    0.6946   17.6481 N   0  0  0  0  0  0  0  0  0  0  0  0
    5.5831    1.2732   17.8768 C   0  0  0  0  0  0  0  0  0  0  0  0
    5.1234    1.7755   17.0286 H   0  0  0  0  0  0  0  0  0  0  0  0
    4.9488    1.2644   19.1229 C   0  0  0  0  0  0  0  0  0  0  0  0
    4.0042    1.7789   19.2448 H   0  0  0  0  0  0  0  0  0  0  0  0
    5.5632    0.6096   20.1944 C   0  0  0  0  0  0  0  0  0  0  0  0
    5.0903    0.5873   21.1820 H   0  0  0  0  0  0  0  0  0  0  0  0
   10.8746    1.6053   23.9852 C   0  0  0  0  0  0  0  0  0  0  0  0
   11.6173    0.5382   24.7048 C   0  0  0  0  0  0  0  0  0  0  0  0
   12.0782   -0.1644   24.0069 H   0  0  0  0  0  0  0  0  0  0  0  0
   10.9377   -0.0180   25.3584 H   0  0  0  0  0  0  0  0  0  0  0  0
   12.3869    0.9980   25.3207 H   0  0  0  0  0  0  0  0  0  0  0  0
   10.9387    2.8577   24.4250 N   0  0  0  0  0  0  0  0  0  0  0  0
   10.1435    3.5647   23.6252 N   0  0  0  0  0  0  0  0  0  0  0  0
   10.0994    4.5666   23.7571 H   0  0  0  0  0  0  0  0  0  0  0  0
  1  2  1  0
  2  3  1  0
  3  4  2  0
  3  5  1  0
  5  6  2  0
  6  7  1  0
  7  8  1  0
  7  9  1  0
  7 10  1  0
 10 11  1  1
 10 12  1  0
 12 13  1  0
 12 14  1  0
 12 15  1  0
 15 16  1  0
 15 17  1  0
 17 18  2  0
 17 19  1  0
 19 20  1  6
 19 21  1  0
 21 22  2  0
 22 23  1  0
 22 24  1  0
 24 25  2  0
 25 26  1  0
 25 27  1  0
 27 28  1  0
 27 29  2  0
 29 30  1  0
  6 31  1  0
 31 32  1  0
 32 33  1  0
 32 34  1  0
 32 35  1  0
 31 36  2  0
 36 37  1  0
 37 38  1  0
 37  5  1  0
 19 10  1  0
 29 21  1  0
M  END
>  <cnnaffinity>  (1) 
-5.22291

>  <filename>  (1) 
[H]OC(=O)c1c(C([H])([H])[C@]2([H])C([H])([H])N([H])C(=O)[C@@]2([H])c2c([H])nc([H])c([H])c2[H])c(C([H])([H])[H])nn1[H]

$$$$
