
     RDKit          3D

 42 44  0  0  0  0  0  0  0  0999 V2000
    6.1215   -0.8288   22.4107 H   0  0  0  0  0  0  0  0  0  0  0  0
    6.5787   -1.4596   21.8384 O   0  0  0  0  0  0  0  0  0  0  0  0
    7.4295   -0.6945   20.9998 C   0  0  1  0  0  0  0  0  0  0  0  0
    8.0868   -1.4389   20.5302 H   0  0  0  0  0  0  0  0  0  0  0  0
    6.6524    0.0018   19.9010 C   0  0  0  0  0  0  0  0  0  0  0  0
    7.1631    0.0629   18.5977 C   0  0  0  0  0  0  0  0  0  0  0  0
    8.1097   -0.4250   18.3607 H   0  0  0  0  0  0  0  0  0  0  0  0
    6.5630    0.6804   17.5730 N   0  0  0  0  0  0  0  0  0  0  0  0
    5.4004    1.2953   17.8315 C   0  0  0  0  0  0  0  0  0  0  0  0
    4.9183    1.7878   16.9918 H   0  0  0  0  0  0  0  0  0  0  0  0
    4.8014    1.3062   19.0958 C   0  0  0  0  0  0  0  0  0  0  0  0
    3.8717    1.8417   19.2527 H   0  0  0  0  0  0  0  0  0  0  0  0
    5.4247    0.6365   20.1464 C   0  0  0  0  0  0  0  0  0  0  0  0
    5.0039    0.6498   21.1565 H   0  0  0  0  0  0  0  0  0  0  0  0
    8.3394    0.2890   21.8266 C   0  0  0  0  0  0  0  0  0  0  0  0
    7.5727    1.4976   22.3878 C   0  0  0  0  0  0  0  0  0  0  0  0
    6.9405    1.4334   23.6371 C   0  0  0  0  0  0  0  0  0  0  0  0
    7.0456    0.5323   24.2383 H   0  0  0  0  0  0  0  0  0  0  0  0
    6.2164    2.5267   24.1163 C   0  0  0  0  0  0  0  0  0  0  0  0
    5.7508    2.4701   25.0938 H   0  0  0  0  0  0  0  0  0  0  0  0
    6.0890    3.6922   23.3578 C   0  0  0  0  0  0  0  0  0  0  0  0
    5.5149    4.5378   23.7131 H   0  0  0  0  0  0  0  0  0  0  0  0
    6.7073    3.7759   22.1009 C   0  0  0  0  0  0  0  0  0  0  0  0
    6.5542    4.9431   21.3085 N   0  0  0  0  0  0  0  0  0  0  0  0
    6.5267    4.8202   20.3108 H   0  0  0  0  0  0  0  0  0  0  0  0
    6.4722    6.2316   21.7831 C   0  0  0  0  0  0  0  0  0  0  0  0
    6.7142    6.5044   22.9425 O   0  0  0  0  0  0  0  0  0  0  0  0
    6.0794    7.3085   20.7850 C   0  0  0  0  0  0  0  0  0  0  0  0
    6.9504    7.6581   20.2252 H   0  0  0  0  0  0  0  0  0  0  0  0
    5.7195    8.1589   21.3657 H   0  0  0  0  0  0  0  0  0  0  0  0
    5.2999    7.0125   20.0751 H   0  0  0  0  0  0  0  0  0  0  0  0
    7.4355    2.6736   21.6304 C   0  0  0  0  0  0  0  0  0  0  0  0
    7.8866    2.6370   20.6480 H   0  0  0  0  0  0  0  0  0  0  0  0
    9.6552    0.6555   21.0709 C   0  0  0  0  0  0  0  0  0  0  0  0
    9.8879    1.7238   21.0681 H   0  0  0  0  0  0  0  0  0  0  0  0
    9.6914    0.2984   20.0382 H   0  0  0  0  0  0  0  0  0  0  0  0
   10.4923   -0.1639   22.0765 C   0  0  0  0  0  0  0  0  0  0  0  0
   11.2305    0.4172   22.6372 H   0  0  0  0  0  0  0  0  0  0  0  0
   11.0049   -1.0357   21.6515 H   0  0  0  0  0  0  0  0  0  0  0  0
    9.2083   -0.4884   22.8672 C   0  0  0  0  0  0  0  0  0  0  0  0
    9.1803   -0.0682   23.8756 H   0  0  0  0  0  0  0  0  0  0  0  0
    8.9625   -1.5522   22.9426 H   0  0  0  0  0  0  0  0  0  0  0  0
  1  2  1  0
  2  3  1  0
  3  4  1  6
  3  5  1  0
  5  6  2  0
  6  7  1  0
  6  8  1  0
  8  9  2  0
  9 10  1  0
  9 11  1  0
 11 12  1  0
 11 13  2  0
 13 14  1  0
  3 15  1  0
 15 16  1  0
 16 17  2  0
 17 18  1  0
 17 19  1  0
 19 20  1  0
 19 21  2  0
 21 22  1  0
 21 23  1  0
 23 24  1  0
 24 25  1  0
 24 26  1  0
 26 27  2  0
 26 28  1  0
 28 29  1  0
 28 30  1  0
 28 31  1  0
 23 32  2  0
 32 33  1  0
 15 34  1  0
 34 35  1  0
 34 36  1  0
 34 37  1  0
 37 38  1  0
 37 39  1  0
 37 40  1  0
 40 41  1  0
 40 42  1  0
 13  5  1  0
 40 15  1  0
 32 16  1  0
M  END
>  <cnnaffinity>  (1) 
-4.97288

>  <filename>  (1) 
[H]O[C@@]([H])(c1c([H])nc([H])c([H])c1[H])C1(c2c([H])c([H])c([H])c(N([H])C(=O)C([H])([H])[H])c2[H])C([H])([H])C([H])([H])C1([H])[H]

$$$$
