
     RDKit          3D

 33 36  0  0  0  0  0  0  0  0999 V2000
    9.4255   -1.1389   28.2951 O   0  0  0  0  0  0  0  0  0  0  0  0
    9.0494   -1.3365   27.0366 C   0  0  0  0  0  0  0  0  0  0  0  0
    8.8894   -0.1962   26.4051 N   0  0  0  0  0  0  0  0  0  0  0  0
    8.5600   -0.2531   25.0949 C   0  0  0  0  0  0  0  0  0  0  0  0
    8.3857   -1.4163   24.3628 C   0  0  0  0  0  0  0  0  0  0  0  0
    8.1259   -1.3362   22.9170 C   0  0  0  0  0  0  0  0  0  0  0  0
    7.2538   -0.4708   22.2910 C   0  0  0  0  0  0  0  0  0  0  0  0
    7.3633   -0.6662   20.9500 N   0  0  0  0  0  0  0  0  0  0  0  0
    6.6582   -0.0013   19.9190 C   0  0  0  0  0  0  0  0  0  0  0  0
    5.4353    0.6403   20.1643 C   0  0  0  0  0  0  0  0  0  0  0  0
    4.8122    1.2968   19.1019 C   0  0  0  0  0  0  0  0  0  0  0  0
    5.4215    1.2825   17.8435 C   0  0  0  0  0  0  0  0  0  0  0  0
    6.5855    0.6553   17.6005 N   0  0  0  0  0  0  0  0  0  0  0  0
    7.1881    0.0338   18.6174 C   0  0  0  0  0  0  0  0  0  0  0  0
    8.1325   -0.4556   18.3941 H   0  0  0  0  0  0  0  0  0  0  0  0
    4.9603    1.7877   16.9976 H   0  0  0  0  0  0  0  0  0  0  0  0
    3.8785    1.8334   19.2474 H   0  0  0  0  0  0  0  0  0  0  0  0
    4.9742    0.6239   21.1520 H   0  0  0  0  0  0  0  0  0  0  0  0
    8.2977   -1.5937   20.6538 N   0  0  0  0  0  0  0  0  0  0  0  0
    8.7499   -2.0055   21.8216 C   0  0  0  0  0  0  0  0  0  0  0  0
    9.5259   -2.7588   21.8548 H   0  0  0  0  0  0  0  0  0  0  0  0
    6.5646    0.2579   22.7068 H   0  0  0  0  0  0  0  0  0  0  0  0
    8.4833   -2.6755   25.0582 C   0  0  0  0  0  0  0  0  0  0  0  0
    8.2296   -3.9600   24.4526 C   0  0  0  0  0  0  0  0  0  0  0  0
    8.3471   -5.1223   25.0706 N   0  0  0  0  0  0  0  0  0  0  0  0
    8.7123   -5.0946   26.3733 C   0  0  0  0  0  0  0  0  0  0  0  0
    8.9551   -3.9350   27.0845 C   0  0  0  0  0  0  0  0  0  0  0  0
    8.8446   -2.6558   26.4478 C   0  0  0  0  0  0  0  0  0  0  0  0
    9.2257   -4.0707   28.1204 H   0  0  0  0  0  0  0  0  0  0  0  0
    8.8055   -6.0626   26.8654 H   0  0  0  0  0  0  0  0  0  0  0  0
    7.9097   -3.9995   23.4133 H   0  0  0  0  0  0  0  0  0  0  0  0
    8.4696    0.7161   24.6100 H   0  0  0  0  0  0  0  0  0  0  0  0
    9.4279   -0.1578   28.2716 H   0  0  0  0  0  0  0  0  0  0  0  0
  1  2  1  0
  2  3  2  0
  3  4  1  0
  4  5  2  0
  5  6  1  0
  6  7  2  0
  7  8  1  0
  8  9  1  0
  9 10  2  0
 10 11  1  0
 11 12  2  0
 12 13  1  0
 13 14  2  0
 14 15  1  0
 12 16  1  0
 11 17  1  0
 10 18  1  0
  8 19  1  0
 19 20  2  0
 20 21  1  0
  7 22  1  0
  5 23  1  0
 23 24  2  0
 24 25  1  0
 25 26  2  0
 26 27  1  0
 27 28  2  0
 27 29  1  0
 26 30  1  0
 24 31  1  0
  4 32  1  0
  1 33  1  0
 28  2  1  0
 20  6  1  0
 28 23  1  0
 14  9  1  0
M  END
>  <cnnaffinity>  (1) 
-5.57536

>  <filename>  (1) 
[H]Oc1nc([H])c(-c2c([H])nn(-c3c([H])nc([H])c([H])c3[H])c2[H])c2c([H])nc([H])c([H])c12

$$$$
