
     RDKit          3D

 37 39  0  0  0  0  0  0  0  0999 V2000
    7.5424    2.0660   20.8277 H   0  0  0  0  0  0  0  0  0  0  0  0
    8.1706    1.9134   21.5520 O   0  0  0  0  0  0  0  0  0  0  0  0
    8.4192    0.5219   21.6496 C   0  0  1  0  0  0  0  0  0  0  0  0
    9.3346    0.2793   21.0812 H   0  0  0  0  0  0  0  0  0  0  0  0
    8.8248    0.1434   23.0867 C   0  0  0  0  0  0  0  0  0  0  0  0
    9.6376   -0.9246   23.1240 N   0  0  0  0  0  0  0  0  0  0  0  0
   10.2702   -1.2227   24.2610 C   0  0  0  0  0  0  0  0  0  0  0  0
   10.8528   -2.1345   24.2595 H   0  0  0  0  0  0  0  0  0  0  0  0
   10.1793   -0.4268   25.4060 C   0  0  0  0  0  0  0  0  0  0  0  0
   10.8077   -0.6361   26.2577 H   0  0  0  0  0  0  0  0  0  0  0  0
    9.2662    0.6170   25.4147 C   0  0  0  0  0  0  0  0  0  0  0  0
    9.1446    1.2372   26.3005 H   0  0  0  0  0  0  0  0  0  0  0  0
    8.4772    0.8206   24.2702 C   0  0  0  0  0  0  0  0  0  0  0  0
    7.3137    1.7673   24.3234 C   0  0  0  0  0  0  0  0  0  0  0  0
    6.7545    1.8033   25.5534 F   0  0  0  0  0  0  0  0  0  0  0  0
    7.6687    3.0256   24.0421 F   0  0  0  0  0  0  0  0  0  0  0  0
    6.3342    1.4084   23.4639 F   0  0  0  0  0  0  0  0  0  0  0  0
    7.3232   -0.4335   21.0347 C   0  0  0  0  0  0  0  0  0  0  0  0
    6.5673    0.2369   19.8890 C   0  0  0  0  0  0  0  0  0  0  0  0
    7.0814    0.2336   18.5738 C   0  0  0  0  0  0  0  0  0  0  0  0
    8.0301   -0.2589   18.3632 H   0  0  0  0  0  0  0  0  0  0  0  0
    6.4919    0.8030   17.5162 N   0  0  0  0  0  0  0  0  0  0  0  0
    5.3177    1.4152   17.7303 C   0  0  0  0  0  0  0  0  0  0  0  0
    4.8528    1.8681   16.8574 H   0  0  0  0  0  0  0  0  0  0  0  0
    4.7048    1.4853   18.9860 C   0  0  0  0  0  0  0  0  0  0  0  0
    3.7591    2.0053   19.0904 H   0  0  0  0  0  0  0  0  0  0  0  0
    5.3456    0.8980   20.0829 C   0  0  0  0  0  0  0  0  0  0  0  0
    4.9218    0.9656   21.0894 H   0  0  0  0  0  0  0  0  0  0  0  0
    6.4171   -1.2682   22.0131 C   0  0  0  0  0  0  0  0  0  0  0  0
    6.3158   -0.8702   23.0238 H   0  0  0  0  0  0  0  0  0  0  0  0
    5.4287   -1.3958   21.5606 H   0  0  0  0  0  0  0  0  0  0  0  0
    7.2875   -2.5291   21.8109 C   0  0  0  0  0  0  0  0  0  0  0  0
    6.7750   -3.4741   21.5996 H   0  0  0  0  0  0  0  0  0  0  0  0
    7.9908   -2.6859   22.6290 H   0  0  0  0  0  0  0  0  0  0  0  0
    7.9295   -1.8054   20.6182 C   0  0  0  0  0  0  0  0  0  0  0  0
    9.0159   -1.8637   20.4939 H   0  0  0  0  0  0  0  0  0  0  0  0
    7.4092   -2.0784   19.7021 H   0  0  0  0  0  0  0  0  0  0  0  0
  1  2  1  0
  2  3  1  0
  3  4  1  6
  3  5  1  0
  5  6  2  0
  6  7  1  0
  7  8  1  0
  7  9  2  0
  9 10  1  0
  9 11  1  0
 11 12  1  0
 11 13  2  0
 13 14  1  0
 14 15  1  0
 14 16  1  0
 14 17  1  0
  3 18  1  0
 18 19  1  0
 19 20  2  0
 20 21  1  0
 20 22  1  0
 22 23  2  0
 23 24  1  0
 23 25  1  0
 25 26  1  0
 25 27  2  0
 27 28  1  0
 18 29  1  0
 29 30  1  0
 29 31  1  0
 29 32  1  0
 32 33  1  0
 32 34  1  0
 32 35  1  0
 35 36  1  0
 35 37  1  0
 13  5  1  0
 35 18  1  0
 27 19  1  0
M  END
>  <cnnaffinity>  (1) 
-5.15884

>  <filename>  (1) 
[H]O[C@@]([H])(c1nc([H])c([H])c([H])c1C(F)(F)F)C1(c2c([H])nc([H])c([H])c2[H])C([H])([H])C([H])([H])C1([H])[H]

$$$$
