
     RDKit          3D

 26 27  0  0  0  0  0  0  0  0999 V2000
    7.2643    2.8832   22.3794 H   0  0  0  0  0  0  0  0  0  0  0  0
    7.4165    1.9406   22.2236 O   0  0  0  0  0  0  0  0  0  0  0  0
    8.7495    1.8111   21.9533 C   0  0  0  0  0  0  0  0  0  0  0  0
    9.5598    2.9227   22.2045 C   0  0  0  0  0  0  0  0  0  0  0  0
    9.1035    3.8529   22.5354 H   0  0  0  0  0  0  0  0  0  0  0  0
   10.9385    2.8621   22.0466 C   0  0  0  0  0  0  0  0  0  0  0  0
   11.8820    4.2778   22.3957 Cl  0  0  0  0  0  0  0  0  0  0  0  0
   11.5454    1.6926   21.5914 C   0  0  0  0  0  0  0  0  0  0  0  0
   12.6191    1.6410   21.4699 H   0  0  0  0  0  0  0  0  0  0  0  0
   10.7312    0.6009   21.2843 C   0  0  0  0  0  0  0  0  0  0  0  0
   11.1355   -0.3269   20.8953 H   0  0  0  0  0  0  0  0  0  0  0  0
    9.3348    0.6346   21.4192 C   0  0  0  0  0  0  0  0  0  0  0  0
    8.7438   -0.5478   20.9902 O   0  0  0  0  0  0  0  0  0  0  0  0
    7.3618   -0.7231   21.0209 C   0  0  2  0  0  0  0  0  0  0  0  0
    6.9542   -0.4449   22.0003 H   0  0  0  0  0  0  0  0  0  0  0  0
    7.1417   -2.0745   20.8419 F   0  0  0  0  0  0  0  0  0  0  0  0
    6.6677    0.0276   19.9257 C   0  0  0  0  0  0  0  0  0  0  0  0
    7.2147    0.0491   18.6381 C   0  0  0  0  0  0  0  0  0  0  0  0
    8.1583   -0.4526   18.4303 H   0  0  0  0  0  0  0  0  0  0  0  0
    6.6342    0.6628   17.5984 N   0  0  0  0  0  0  0  0  0  0  0  0
    5.4625    1.2791   17.8169 C   0  0  0  0  0  0  0  0  0  0  0  0
    5.0138    1.7792   16.9587 H   0  0  0  0  0  0  0  0  0  0  0  0
    4.8306    1.3080   19.0633 C   0  0  0  0  0  0  0  0  0  0  0  0
    3.8819    1.8202   19.1737 H   0  0  0  0  0  0  0  0  0  0  0  0
    5.4513    0.6778   20.1424 C   0  0  0  0  0  0  0  0  0  0  0  0
    5.0021    0.7041   21.1372 H   0  0  0  0  0  0  0  0  0  0  0  0
  1  2  1  0
  2  3  1  0
  3  4  2  0
  4  5  1  0
  4  6  1  0
  6  7  1  0
  6  8  2  0
  8  9  1  0
  8 10  1  0
 10 11  1  0
 10 12  2  0
 12 13  1  0
 13 14  1  0
 14 15  1  1
 14 16  1  0
 14 17  1  0
 17 18  2  0
 18 19  1  0
 18 20  1  0
 20 21  2  0
 21 22  1  0
 21 23  1  0
 23 24  1  0
 23 25  2  0
 25 26  1  0
 12  3  1  0
 25 17  1  0
M  END
>  <cnnaffinity>  (1) 
-4.98423

>  <filename>  (1) 
[H]Oc1c([H])c(Cl)c([H])c([H])c1O[C@]([H])(F)c1c([H])nc([H])c([H])c1[H]

$$$$
