
     RDKit          3D

 51 54  0  0  0  0  0  0  0  0999 V2000
    9.4052    7.4314   25.4725 N   0  0  0  0  0  0  0  0  0  0  0  0
    9.7116    6.4696   24.5393 C   0  0  0  0  0  0  0  0  0  0  0  0
   10.2719    6.8118   23.5162 O   0  0  0  0  0  0  0  0  0  0  0  0
    9.3452    5.0442   24.8630 C   0  0  0  0  0  0  0  0  0  0  0  0
    9.0289    4.5971   26.1607 C   0  0  0  0  0  0  0  0  0  0  0  0
    8.6751    3.2622   26.3724 C   0  0  0  0  0  0  0  0  0  0  0  0
    8.6581    2.3533   25.3117 C   0  0  0  0  0  0  0  0  0  0  0  0
    9.0145    2.7802   24.0244 C   0  0  0  0  0  0  0  0  0  0  0  0
    9.0345    1.8234   22.9647 N   0  0  0  0  0  0  0  0  0  0  0  0
    8.0042    0.9449   22.8048 N   0  0  0  0  0  0  0  0  0  0  0  0
    8.2640    0.3906   21.6425 C   0  0  0  0  0  0  0  0  0  0  0  0
    7.3747   -0.6357   21.0021 C   0  0  0  0  0  0  0  0  0  0  0  0
    6.6006   -0.0375   19.8416 C   0  0  0  0  0  0  0  0  0  0  0  0
    5.4028    0.6461   20.0796 C   0  0  0  0  0  0  0  0  0  0  0  0
    4.7888    1.3226   19.0253 C   0  0  0  0  0  0  0  0  0  0  0  0
    5.4046    1.2991   17.7691 C   0  0  0  0  0  0  0  0  0  0  0  0
    6.5439    0.6370   17.5114 N   0  0  0  0  0  0  0  0  0  0  0  0
    7.1159   -0.0099   18.5338 C   0  0  0  0  0  0  0  0  0  0  0  0
    8.0503   -0.5309   18.3156 H   0  0  0  0  0  0  0  0  0  0  0  0
    4.9657    1.8331   16.9304 H   0  0  0  0  0  0  0  0  0  0  0  0
    3.8667    1.8770   19.1668 H   0  0  0  0  0  0  0  0  0  0  0  0
    4.9754    0.6538   21.0849 H   0  0  0  0  0  0  0  0  0  0  0  0
    8.0027   -1.4667   20.6628 H   0  0  0  0  0  0  0  0  0  0  0  0
    6.7013   -1.0157   21.7761 H   0  0  0  0  0  0  0  0  0  0  0  0
    9.4034    0.8285   21.0454 N   0  0  0  0  0  0  0  0  0  0  0  0
    9.9155    1.6652   21.9398 C   0  0  0  0  0  0  0  0  0  0  0  0
   11.3517    2.1707   22.0389 C   0  0  2  0  0  0  0  0  0  0  0  0
   11.9003    2.5531   20.7827 O   0  0  0  0  0  0  0  0  0  0  0  0
   11.3091    3.1983   20.3675 H   0  0  0  0  0  0  0  0  0  0  0  0
   12.3307    1.1273   22.6665 C   0  0  0  0  0  0  0  0  0  0  0  0
   12.0335    0.8480   24.1553 C   0  0  0  0  0  0  0  0  0  0  0  0
   11.0074   -0.3043   24.1622 C   0  0  0  0  0  0  0  0  0  0  0  0
   11.2159   -1.0768   22.8402 C   0  0  0  0  0  0  0  0  0  0  0  0
   12.2641   -0.2833   22.0336 C   0  0  0  0  0  0  0  0  0  0  0  0
   13.2603   -0.7450   22.1066 H   0  0  0  0  0  0  0  0  0  0  0  0
   11.9585   -0.2580   20.9859 H   0  0  0  0  0  0  0  0  0  0  0  0
   10.2788   -1.1144   22.2721 H   0  0  0  0  0  0  0  0  0  0  0  0
   11.5285   -2.1154   22.9688 H   0  0  0  0  0  0  0  0  0  0  0  0
    9.9925    0.0941   24.1749 H   0  0  0  0  0  0  0  0  0  0  0  0
   11.0942   -0.9446   25.0472 H   0  0  0  0  0  0  0  0  0  0  0  0
   12.9567    0.5253   24.6579 H   0  0  0  0  0  0  0  0  0  0  0  0
   11.6772    1.7391   24.6907 H   0  0  0  0  0  0  0  0  0  0  0  0
   13.3253    1.5798   22.5476 H   0  0  0  0  0  0  0  0  0  0  0  0
   11.3508    3.0342   22.7201 H   0  0  0  0  0  0  0  0  0  0  0  0
    9.3385    4.1236   23.7966 C   0  0  0  0  0  0  0  0  0  0  0  0
    9.5513    4.4765   22.7894 H   0  0  0  0  0  0  0  0  0  0  0  0
    8.3553    1.3204   25.4617 H   0  0  0  0  0  0  0  0  0  0  0  0
    8.3943    2.9227   27.3664 H   0  0  0  0  0  0  0  0  0  0  0  0
    9.0558    5.2803   27.0096 H   0  0  0  0  0  0  0  0  0  0  0  0
    9.5588    8.3195   25.0147 H   0  0  0  0  0  0  0  0  0  0  0  0
    8.5064    7.3300   25.9160 H   0  0  0  0  0  0  0  0  0  0  0  0
  1  2  1  0
  2  3  2  0
  2  4  1  0
  4  5  2  0
  5  6  1  0
  6  7  2  0
  7  8  1  0
  8  9  1  0
  9 10  1  0
 10 11  2  0
 11 12  1  0
 12 13  1  0
 13 14  2  0
 14 15  1  0
 15 16  2  0
 16 17  1  0
 17 18  2  0
 18 19  1  0
 16 20  1  0
 15 21  1  0
 14 22  1  0
 12 23  1  0
 12 24  1  0
 11 25  1  0
 25 26  2  0
 26 27  1  0
 27 28  1  0
 28 29  1  0
 27 30  1  0
 30 31  1  0
 31 32  1  0
 32 33  1  0
 33 34  1  0
 34 35  1  0
 34 36  1  0
 33 37  1  0
 33 38  1  0
 32 39  1  0
 32 40  1  0
 31 41  1  0
 31 42  1  0
 30 43  1  0
 27 44  1  1
  8 45  2  0
 45 46  1  0
  7 47  1  0
  6 48  1  0
  5 49  1  0
  1 50  1  0
  1 51  1  0
 45  4  1  0
 26  9  1  0
 34 30  1  0
 18 13  1  0
M  END
>  <cnnaffinity>  (1) 
-6.15215

>  <filename>  (1) 
[H]O[C@@]([H])(c1nc(C([H])([H])c2c([H])nc([H])c([H])c2[H])nn1-c1c([H])c([H])c([H])c(C(=O)N([H])[H])c1[H])C1([H])C([H])([H])C([H])([H])C([H])([H])C1([H])[H]

$$$$
