
     RDKit          3D

 31 32  0  0  0  0  0  0  0  0999 V2000
    9.4381   -1.8330   23.3707 H   0  0  0  0  0  0  0  0  0  0  0  0
    8.6921   -1.2134   23.2395 O   0  0  0  0  0  0  0  0  0  0  0  0
    7.6177   -2.0594   22.8509 N   0  0  0  0  0  0  0  0  0  0  0  0
    6.8024   -1.6886   21.7331 C   0  0  0  0  0  0  0  0  0  0  0  0
    5.7292   -2.2165   21.5030 O   0  0  0  0  0  0  0  0  0  0  0  0
    7.3748   -0.7371   20.9231 N   0  0  0  0  0  0  0  0  0  0  0  0
    8.2653   -0.3922   21.2548 H   0  0  0  0  0  0  0  0  0  0  0  0
    6.6775   -0.0343   19.8965 C   0  0  0  0  0  0  0  0  0  0  0  0
    7.2177    0.0528   18.5963 C   0  0  0  0  0  0  0  0  0  0  0  0
    8.1702   -0.4339   18.3927 H   0  0  0  0  0  0  0  0  0  0  0  0
    6.6273    0.6903   17.5773 N   0  0  0  0  0  0  0  0  0  0  0  0
    5.4526    1.2945   17.8254 C   0  0  0  0  0  0  0  0  0  0  0  0
    4.9812    1.7921   16.9795 H   0  0  0  0  0  0  0  0  0  0  0  0
    4.8411    1.2875   19.0834 C   0  0  0  0  0  0  0  0  0  0  0  0
    3.9000    1.8074   19.2198 H   0  0  0  0  0  0  0  0  0  0  0  0
    5.4545    0.6023   20.1417 C   0  0  0  0  0  0  0  0  0  0  0  0
    5.0167    0.5693   21.1396 H   0  0  0  0  0  0  0  0  0  0  0  0
    7.1416   -2.8984   23.8971 C   0  0  0  0  0  0  0  0  0  0  0  0
    7.2190   -2.5968   25.1988 C   0  0  0  0  0  0  0  0  0  0  0  0
    7.5875   -1.6287   25.5258 H   0  0  0  0  0  0  0  0  0  0  0  0
    6.7417   -3.5729   26.2588 C   0  0  0  0  0  0  0  0  0  0  0  0
    7.4160   -3.5474   27.1241 H   0  0  0  0  0  0  0  0  0  0  0  0
    5.7665   -3.2396   26.6423 H   0  0  0  0  0  0  0  0  0  0  0  0
    6.6165   -4.9570   25.7928 N   0  0  0  0  0  0  0  0  0  0  0  0
    7.5603   -5.3086   25.6439 H   0  0  0  0  0  0  0  0  0  0  0  0
    5.9268   -5.0232   24.5032 C   0  0  0  0  0  0  0  0  0  0  0  0
    4.9129   -4.6212   24.6278 H   0  0  0  0  0  0  0  0  0  0  0  0
    5.8156   -6.0668   24.1856 H   0  0  0  0  0  0  0  0  0  0  0  0
    6.6385   -4.2356   23.4026 C   0  0  0  0  0  0  0  0  0  0  0  0
    5.9605   -4.0838   22.5657 H   0  0  0  0  0  0  0  0  0  0  0  0
    7.5110   -4.7857   23.0266 H   0  0  0  0  0  0  0  0  0  0  0  0
  1  2  1  0
  2  3  1  0
  3  4  1  0
  4  5  2  0
  4  6  1  0
  6  7  1  0
  6  8  1  0
  8  9  2  0
  9 10  1  0
  9 11  1  0
 11 12  2  0
 12 13  1  0
 12 14  1  0
 14 15  1  0
 14 16  2  0
 16 17  1  0
  3 18  1  0
 18 19  2  0
 19 20  1  0
 19 21  1  0
 21 22  1  0
 21 23  1  0
 21 24  1  0
 24 25  1  0
 24 26  1  0
 26 27  1  0
 26 28  1  0
 26 29  1  0
 29 30  1  0
 29 31  1  0
 16  8  1  0
 29 18  1  0
M  END
>  <cnnaffinity>  (1) 
-4.39099

>  <filename>  (1) 
[H]ON(C(=O)N([H])c1c([H])nc([H])c([H])c1[H])C1=C([H])C([H])([H])N([H])C([H])([H])C1([H])[H]

$$$$
