
     RDKit          3D

 46 49  0  0  0  0  0  0  0  0999 V2000
   13.6201    1.9225   23.2527 C   0  0  0  0  0  0  0  0  0  0  0  0
   12.1962    1.3736   23.1423 C   0  0  0  0  0  0  0  0  0  0  0  0
   12.2646   -0.1536   23.1149 C   0  0  0  0  0  0  0  0  0  0  0  0
   12.9062   -0.5994   21.9311 O   0  0  0  0  0  0  0  0  0  0  0  0
   12.7231   -1.5404   21.8084 H   0  0  0  0  0  0  0  0  0  0  0  0
   11.2734   -0.6144   23.2252 H   0  0  0  0  0  0  0  0  0  0  0  0
   12.8708   -0.4053   23.9986 H   0  0  0  0  0  0  0  0  0  0  0  0
   11.3612    1.9832   21.9996 C   0  0  0  0  0  0  0  0  0  0  0  0
    9.9475    1.5711   22.0589 N   0  0  0  0  0  0  0  0  0  0  0  0
    9.4883    0.6678   21.1595 N   0  0  0  0  0  0  0  0  0  0  0  0
    8.3422    0.2721   21.6781 C   0  0  0  0  0  0  0  0  0  0  0  0
    7.4354   -0.6848   20.9529 C   0  0  0  0  0  0  0  0  0  0  0  0
    6.6494   -0.0436   19.8114 C   0  0  0  0  0  0  0  0  0  0  0  0
    5.4506    0.6265   20.0791 C   0  0  0  0  0  0  0  0  0  0  0  0
    4.8083    1.3073   19.0423 C   0  0  0  0  0  0  0  0  0  0  0  0
    5.3897    1.3050   17.7717 C   0  0  0  0  0  0  0  0  0  0  0  0
    6.5245    0.6524   17.4863 N   0  0  0  0  0  0  0  0  0  0  0  0
    7.1284   -0.0009   18.4885 C   0  0  0  0  0  0  0  0  0  0  0  0
    8.0564   -0.5090   18.2270 H   0  0  0  0  0  0  0  0  0  0  0  0
    4.9275    1.8523   16.9495 H   0  0  0  0  0  0  0  0  0  0  0  0
    3.8847    1.8464   19.2097 H   0  0  0  0  0  0  0  0  0  0  0  0
    5.0285    0.6221   21.0871 H   0  0  0  0  0  0  0  0  0  0  0  0
    6.7447   -1.0828   21.7030 H   0  0  0  0  0  0  0  0  0  0  0  0
    8.0490   -1.5151   20.5877 H   0  0  0  0  0  0  0  0  0  0  0  0
    8.0533    0.8145   22.8857 N   0  0  0  0  0  0  0  0  0  0  0  0
    9.0434    1.6759   23.0772 C   0  0  0  0  0  0  0  0  0  0  0  0
    9.0860    2.6849   24.1616 C   0  0  0  0  0  0  0  0  0  0  0  0
    8.9171    2.4365   25.4888 C   0  0  0  0  0  0  0  0  0  0  0  0
    8.9688    3.8584   26.4756 S   0  0  0  0  0  0  0  0  0  0  0  0
    9.2571    4.8536   25.0968 C   0  0  0  0  0  0  0  0  0  0  0  0
    9.2016    4.1151   23.9031 C   0  0  0  0  0  0  0  0  0  0  0  0
    9.1825    4.7986   22.6689 C   0  0  0  0  0  0  0  0  0  0  0  0
    9.3695    6.1754   22.6388 C   0  0  0  0  0  0  0  0  0  0  0  0
    9.5195    6.9025   23.8403 C   0  0  0  0  0  0  0  0  0  0  0  0
    9.4774    6.2402   25.0568 C   0  0  0  0  0  0  0  0  0  0  0  0
    9.6261    6.9130   26.2039 F   0  0  0  0  0  0  0  0  0  0  0  0
    9.6072    7.9809   23.8522 H   0  0  0  0  0  0  0  0  0  0  0  0
    9.3922    6.7002   21.6852 H   0  0  0  0  0  0  0  0  0  0  0  0
    8.9685    4.2168   21.7782 H   0  0  0  0  0  0  0  0  0  0  0  0
    8.7227    1.4802   25.9642 H   0  0  0  0  0  0  0  0  0  0  0  0
   11.3950    3.0777   22.0613 H   0  0  0  0  0  0  0  0  0  0  0  0
   11.7338    1.6809   21.0141 H   0  0  0  0  0  0  0  0  0  0  0  0
   11.6760    1.6458   24.0745 H   0  0  0  0  0  0  0  0  0  0  0  0
   14.2428    1.6093   22.4106 H   0  0  0  0  0  0  0  0  0  0  0  0
   14.0744    1.4771   24.1424 H   0  0  0  0  0  0  0  0  0  0  0  0
   13.6472    3.0112   23.3593 H   0  0  0  0  0  0  0  0  0  0  0  0
  1  2  1  0
  2  3  1  0
  3  4  1  0
  4  5  1  0
  3  6  1  0
  3  7  1  0
  2  8  1  0
  8  9  1  0
  9 10  1  0
 10 11  2  0
 11 12  1  0
 12 13  1  0
 13 14  2  0
 14 15  1  0
 15 16  2  0
 16 17  1  0
 17 18  2  0
 18 19  1  0
 16 20  1  0
 15 21  1  0
 14 22  1  0
 12 23  1  0
 12 24  1  0
 11 25  1  0
 25 26  2  0
 26 27  1  0
 27 28  2  0
 28 29  1  0
 29 30  1  0
 30 31  2  0
 31 32  1  0
 32 33  2  0
 33 34  1  0
 34 35  2  0
 35 36  1  0
 34 37  1  0
 33 38  1  0
 32 39  1  0
 28 40  1  0
  8 41  1  0
  8 42  1  0
  2 43  1  0
  1 44  1  0
  1 45  1  0
  1 46  1  0
 26  9  1  0
 31 27  1  0
 18 13  1  0
 35 30  1  0
M  END
>  <cnnaffinity>  (1) 
-5.52793

>  <filename>  (1) 
[H]OC([H])([H])C([H])(C([H])([H])[H])C([H])([H])n1nc(C([H])([H])c2c([H])nc([H])c([H])c2[H])nc1-c1c([H])sc2c(F)c([H])c([H])c([H])c12

$$$$
