
     RDKit          3D

 37 39  0  0  0  0  0  0  0  0999 V2000
    7.4949   -1.0589   24.8214 N   0  0  0  0  0  4  0  0  0  0  0  0
    7.8297   -1.1981   23.2909 C   0  0  0  0  0  0  0  0  0  0  0  0
    7.2206   -0.1653   22.2550 C   0  0  0  0  0  0  0  0  0  0  0  0
    6.8057    0.9398   22.5496 O   0  0  0  0  0  0  0  0  0  0  0  0
    7.2658   -0.6290   20.9459 N   0  0  0  0  0  0  0  0  0  0  0  0
    6.6369    0.0101   19.8413 C   0  0  0  0  0  0  0  0  0  0  0  0
    5.4211    0.6753   20.0513 C   0  0  0  0  0  0  0  0  0  0  0  0
    4.8042    1.3279   18.9826 C   0  0  0  0  0  0  0  0  0  0  0  0
    5.4168    1.3048   17.7283 C   0  0  0  0  0  0  0  0  0  0  0  0
    6.5679    0.6522   17.4996 N   0  0  0  0  0  0  0  0  0  0  0  0
    7.1552    0.0172   18.5231 C   0  0  0  0  0  0  0  0  0  0  0  0
    8.0840   -0.5010   18.2812 H   0  0  0  0  0  0  0  0  0  0  0  0
    4.9677    1.8183   16.8792 H   0  0  0  0  0  0  0  0  0  0  0  0
    3.8729    1.8653   19.1235 H   0  0  0  0  0  0  0  0  0  0  0  0
    4.9902    0.6835   21.0471 H   0  0  0  0  0  0  0  0  0  0  0  0
    7.9256   -1.3685   20.7548 H   0  0  0  0  0  0  0  0  0  0  0  0
    9.3449   -1.1165   23.1829 C   0  0  0  0  0  0  0  0  0  0  0  0
   10.1141   -2.2512   22.7939 C   0  0  0  0  0  0  0  0  0  0  0  0
   11.4577   -2.1162   22.5205 C   0  0  0  0  0  0  0  0  0  0  0  0
   12.1308   -0.8647   22.6568 C   0  0  0  0  0  0  0  0  0  0  0  0
   13.5153   -0.6783   22.3427 C   0  0  0  0  0  0  0  0  0  0  0  0
   14.1290    0.5255   22.6000 C   0  0  0  0  0  0  0  0  0  0  0  0
   13.4050    1.6052   23.1832 C   0  0  0  0  0  0  0  0  0  0  0  0
   12.0666    1.4674   23.4665 C   0  0  0  0  0  0  0  0  0  0  0  0
   11.3901    0.2418   23.1756 C   0  0  0  0  0  0  0  0  0  0  0  0
    9.9847    0.1011   23.3495 C   0  0  0  0  0  0  0  0  0  0  0  0
    9.4090    1.0040   23.5284 H   0  0  0  0  0  0  0  0  0  0  0  0
   11.5044    2.2951   23.8929 H   0  0  0  0  0  0  0  0  0  0  0  0
   13.9292    2.5400   23.3659 H   0  0  0  0  0  0  0  0  0  0  0  0
   15.1697    0.6872   22.3441 H   0  0  0  0  0  0  0  0  0  0  0  0
   14.0809   -1.4921   21.8922 H   0  0  0  0  0  0  0  0  0  0  0  0
   12.0541   -2.9723   22.2458 H   0  0  0  0  0  0  0  0  0  0  0  0
    9.6432   -3.2294   22.7125 H   0  0  0  0  0  0  0  0  0  0  0  0
    7.4818   -2.1776   22.9665 H   0  0  0  0  0  0  0  0  0  0  0  0
    6.4984   -1.1912   25.0674 H   0  0  0  0  0  0  0  0  0  0  0  0
    8.1026   -1.7411   25.3125 H   0  0  0  0  0  0  0  0  0  0  0  0
    7.8068   -0.1117   25.1130 H   0  0  0  0  0  0  0  0  0  0  0  0
  1  2  1  0
  2  3  1  0
  3  4  2  0
  3  5  1  0
  5  6  1  0
  6  7  2  0
  7  8  1  0
  8  9  2  0
  9 10  1  0
 10 11  2  0
 11 12  1  0
  9 13  1  0
  8 14  1  0
  7 15  1  0
  5 16  1  0
  2 17  1  0
 17 18  2  0
 18 19  1  0
 19 20  2  0
 20 21  1  0
 21 22  2  0
 22 23  1  0
 23 24  2  0
 24 25  1  0
 25 26  2  0
 26 27  1  0
 24 28  1  0
 23 29  1  0
 22 30  1  0
 21 31  1  0
 19 32  1  0
 18 33  1  0
  2 34  1  0
  1 35  1  0
  1 36  1  0
  1 37  1  0
 11  6  1  0
 26 17  1  0
 25 20  1  0
M  CHG  1   1   1
M  END
>  <cnnaffinity>  (1) 
-5.41598

>  <filename>  (1) 
[NH3+]C(C(=O)Nc1cccnc1)c1ccc2ccccc2c1

$$$$
