
     RDKit          3D

 34 35  0  0  0  0  0  0  0  0999 V2000
    8.1269   -0.4963   24.7805 N   0  0  0  0  0  4  0  0  0  0  0  0
    8.0311   -1.0060   23.2850 C   0  0  0  0  0  0  0  0  0  0  0  0
    7.3016   -0.0818   22.2138 C   0  0  0  0  0  0  0  0  0  0  0  0
    6.7477    0.9531   22.5121 O   0  0  0  0  0  0  0  0  0  0  0  0
    7.3004   -0.6041   20.9254 N   0  0  0  0  0  0  0  0  0  0  0  0
    6.6601    0.0197   19.8148 C   0  0  0  0  0  0  0  0  0  0  0  0
    5.4350    0.6722   20.0133 C   0  0  0  0  0  0  0  0  0  0  0  0
    4.8277    1.3180   18.9334 C   0  0  0  0  0  0  0  0  0  0  0  0
    5.4558    1.2937   17.6855 C   0  0  0  0  0  0  0  0  0  0  0  0
    6.6022    0.6326   17.4602 N   0  0  0  0  0  0  0  0  0  0  0  0
    7.1771    0.0022   18.4948 C   0  0  0  0  0  0  0  0  0  0  0  0
    8.0893   -0.5502   18.2622 H   0  0  0  0  0  0  0  0  0  0  0  0
    5.0128    1.8066   16.8336 H   0  0  0  0  0  0  0  0  0  0  0  0
    3.8875    1.8474   19.0585 H   0  0  0  0  0  0  0  0  0  0  0  0
    4.9823    0.6616   20.9997 H   0  0  0  0  0  0  0  0  0  0  0  0
    8.0067   -1.2958   20.7180 H   0  0  0  0  0  0  0  0  0  0  0  0
    9.4706   -1.4240   22.9735 C   0  0  0  0  0  0  0  0  0  0  0  0
    9.8910   -2.6856   23.4401 C   0  0  0  0  0  0  0  0  0  0  0  0
   11.1781   -3.1568   23.1816 C   0  0  0  0  0  0  0  0  0  0  0  0
   12.0545   -2.3898   22.4071 C   0  0  0  0  0  0  0  0  0  0  0  0
   11.6834   -1.1087   22.0135 C   0  0  0  0  0  0  0  0  0  0  0  0
   10.4290   -0.5834   22.3609 C   0  0  0  0  0  0  0  0  0  0  0  0
   10.1598    0.8985   22.1465 C   0  0  0  0  0  0  0  0  0  0  0  0
    9.4556    1.3810   23.2030 F   0  0  0  0  0  0  0  0  0  0  0  0
    9.4497    1.1621   21.0346 F   0  0  0  0  0  0  0  0  0  0  0  0
   11.2778    1.6346   22.0565 F   0  0  0  0  0  0  0  0  0  0  0  0
   12.3977   -0.4864   21.4861 H   0  0  0  0  0  0  0  0  0  0  0  0
   13.0584   -2.7348   22.1731 H   0  0  0  0  0  0  0  0  0  0  0  0
   11.4937   -4.0959   23.6241 H   0  0  0  0  0  0  0  0  0  0  0  0
    9.2269   -3.2943   24.0514 H   0  0  0  0  0  0  0  0  0  0  0  0
    7.4209   -1.9163   23.2750 H   0  0  0  0  0  0  0  0  0  0  0  0
    8.6266   -1.2289   25.3235 H   0  0  0  0  0  0  0  0  0  0  0  0
    8.7354    0.3450   24.7668 H   0  0  0  0  0  0  0  0  0  0  0  0
    7.2222   -0.2776   25.2266 H   0  0  0  0  0  0  0  0  0  0  0  0
  1  2  1  0
  2  3  1  0
  3  4  2  0
  3  5  1  0
  5  6  1  0
  6  7  2  0
  7  8  1  0
  8  9  2  0
  9 10  1  0
 10 11  2  0
 11 12  1  0
  9 13  1  0
  8 14  1  0
  7 15  1  0
  5 16  1  0
  2 17  1  0
 17 18  2  0
 18 19  1  0
 19 20  2  0
 20 21  1  0
 21 22  2  0
 22 23  1  0
 23 24  1  0
 23 25  1  0
 23 26  1  0
 21 27  1  0
 20 28  1  0
 19 29  1  0
 18 30  1  0
  2 31  1  0
  1 32  1  0
  1 33  1  0
  1 34  1  0
 11  6  1  0
 22 17  1  0
M  CHG  1   1   1
M  END
>  <cnnaffinity>  (1) 
-5.4007

>  <filename>  (1) 
[NH3+]C(C(=O)Nc1cccnc1)c1ccccc1C(F)(F)F

$$$$
