
     RDKit          3D

 40 41  0  0  0  0  0  0  0  0999 V2000
    6.6827   -1.1963   22.0245 N   0  0  0  0  0  4  0  0  0  0  0  0
    7.5299   -0.6593   20.9404 C   0  0  2  0  0  0  0  0  0  0  0  0
    8.5066    0.3031   21.6338 C   0  0  0  0  0  0  0  0  0  0  0  0
    7.6624    1.3536   22.3129 C   0  0  0  0  0  0  0  0  0  0  0  0
    6.9931    1.0797   23.3052 O   0  0  0  0  0  0  0  0  0  0  0  0
    7.6224    2.5490   21.6734 N   0  0  0  0  0  0  0  0  0  0  0  0
    6.9461    3.7384   22.1783 C   0  0  0  0  0  0  0  0  0  0  0  0
    5.4129    3.5978   22.2693 C   0  0  0  0  0  0  0  0  0  0  0  0
    4.7399    4.8091   22.8851 C   0  0  0  0  0  0  0  0  0  0  0  0
    4.6022    4.9180   24.2791 C   0  0  0  0  0  0  0  0  0  0  0  0
    4.0162    6.0440   24.8657 C   0  0  0  0  0  0  0  0  0  0  0  0
    3.5649    7.0789   24.0424 C   0  0  0  0  0  0  0  0  0  0  0  0
    2.8314    8.4831   24.7580 Cl  0  0  0  0  0  0  0  0  0  0  0  0
    3.6889    7.0032   22.6535 C   0  0  0  0  0  0  0  0  0  0  0  0
    4.2760    5.8666   22.0882 C   0  0  0  0  0  0  0  0  0  0  0  0
    4.3616    5.8068   21.0057 H   0  0  0  0  0  0  0  0  0  0  0  0
    3.3349    7.8171   22.0275 H   0  0  0  0  0  0  0  0  0  0  0  0
    3.9104    6.1236   25.9434 H   0  0  0  0  0  0  0  0  0  0  0  0
    4.9496    4.1087   24.9208 H   0  0  0  0  0  0  0  0  0  0  0  0
    5.0131    3.4046   21.2621 H   0  0  0  0  0  0  0  0  0  0  0  0
    5.2134    2.7077   22.8752 H   0  0  0  0  0  0  0  0  0  0  0  0
    7.2094    4.5685   21.5155 H   0  0  0  0  0  0  0  0  0  0  0  0
    7.3559    3.9918   23.1654 H   0  0  0  0  0  0  0  0  0  0  0  0
    7.8173    2.4990   20.6858 H   0  0  0  0  0  0  0  0  0  0  0  0
    9.2164    0.7563   20.9413 H   0  0  0  0  0  0  0  0  0  0  0  0
    9.0698   -0.2415   22.3946 H   0  0  0  0  0  0  0  0  0  0  0  0
    6.6457    0.0104   19.9095 C   0  0  0  0  0  0  0  0  0  0  0  0
    5.4138    0.6579   20.1396 C   0  0  0  0  0  0  0  0  0  0  0  0
    4.7961    1.3162   19.0729 C   0  0  0  0  0  0  0  0  0  0  0  0
    5.3992    1.3065   17.8141 C   0  0  0  0  0  0  0  0  0  0  0  0
    6.5564    0.6762   17.5688 N   0  0  0  0  0  0  0  0  0  0  0  0
    7.1409    0.0571   18.6004 C   0  0  0  0  0  0  0  0  0  0  0  0
    8.0716   -0.4592   18.3649 H   0  0  0  0  0  0  0  0  0  0  0  0
    4.9452    1.8301   16.9737 H   0  0  0  0  0  0  0  0  0  0  0  0
    3.8616    1.8514   19.2016 H   0  0  0  0  0  0  0  0  0  0  0  0
    4.9474    0.6894   21.1297 H   0  0  0  0  0  0  0  0  0  0  0  0
    8.0945   -1.4633   20.4408 H   0  0  0  0  0  0  0  0  0  0  0  0
    7.1888   -1.8907   22.5949 H   0  0  0  0  0  0  0  0  0  0  0  0
    5.8148   -1.5833   21.6282 H   0  0  0  0  0  0  0  0  0  0  0  0
    6.4381   -0.3925   22.6546 H   0  0  0  0  0  0  0  0  0  0  0  0
  1  2  1  0
  2  3  1  0
  3  4  1  0
  4  5  2  0
  4  6  1  0
  6  7  1  0
  7  8  1  0
  8  9  1  0
  9 10  2  0
 10 11  1  0
 11 12  2  0
 12 13  1  0
 12 14  1  0
 14 15  2  0
 15 16  1  0
 14 17  1  0
 11 18  1  0
 10 19  1  0
  8 20  1  0
  8 21  1  0
  7 22  1  0
  7 23  1  0
  6 24  1  0
  3 25  1  0
  3 26  1  0
  2 27  1  0
 27 28  2  0
 28 29  1  0
 29 30  2  0
 30 31  1  0
 31 32  2  0
 32 33  1  0
 30 34  1  0
 29 35  1  0
 28 36  1  0
  2 37  1  6
  1 38  1  0
  1 39  1  0
  1 40  1  0
 15  9  1  0
 32 27  1  0
M  CHG  1   1   1
M  END
>  <cnnaffinity>  (1) 
-4.54642

>  <filename>  (1) 
[NH3+][C@H](CC(=O)NCCc1ccc(Cl)cc1)c1cccnc1

$$$$
