
     RDKit          3D

 31 33  0  0  0  0  0  0  0  0999 V2000
    9.8137   -5.5444   26.3381 N   0  0  0  0  0  4  0  0  0  0  0  0
   10.0162   -3.9900   26.3880 C   0  0  0  0  0  0  0  0  0  0  0  0
    8.8836   -3.0598   25.9396 C   0  0  0  0  0  0  0  0  0  0  0  0
    7.8955   -2.6649   26.8505 C   0  0  0  0  0  0  0  0  0  0  0  0
    6.8319   -1.8785   26.4115 C   0  0  0  0  0  0  0  0  0  0  0  0
    6.8146   -1.4715   25.0783 C   0  0  0  0  0  0  0  0  0  0  0  0
    7.8814   -1.8596   24.2475 C   0  0  0  0  0  0  0  0  0  0  0  0
    7.8571   -1.4385   22.8146 C   0  0  0  0  0  0  0  0  0  0  0  0
    6.9331   -0.7427   22.2034 N   0  0  0  0  0  0  0  0  0  0  0  0
    7.3948   -0.7023   20.9172 C   0  0  0  0  0  0  0  0  0  0  0  0
    6.6584    0.0003   19.8690 C   0  0  0  0  0  0  0  0  0  0  0  0
    5.4439    0.6498   20.1384 C   0  0  0  0  0  0  0  0  0  0  0  0
    4.8153    1.3065   19.0851 C   0  0  0  0  0  0  0  0  0  0  0  0
    5.4251    1.2931   17.8233 C   0  0  0  0  0  0  0  0  0  0  0  0
    6.5831    0.6671   17.5603 N   0  0  0  0  0  0  0  0  0  0  0  0
    7.1857    0.0412   18.5731 C   0  0  0  0  0  0  0  0  0  0  0  0
    8.1339   -0.4489   18.3488 H   0  0  0  0  0  0  0  0  0  0  0  0
    4.9543    1.8070   16.9914 H   0  0  0  0  0  0  0  0  0  0  0  0
    3.8819    1.8365   19.2344 H   0  0  0  0  0  0  0  0  0  0  0  0
    5.0220    0.6461   21.1471 H   0  0  0  0  0  0  0  0  0  0  0  0
    8.5275   -1.3297   20.7389 N   0  0  0  0  0  0  0  0  0  0  0  0
    8.8390   -1.8149   21.9920 O   0  0  0  0  0  0  0  0  0  0  0  0
    8.9019   -2.6317   24.6751 N   0  0  0  0  0  0  0  0  0  0  0  0
    5.9867   -0.8997   24.6657 H   0  0  0  0  0  0  0  0  0  0  0  0
    6.0429   -1.5779   27.1027 H   0  0  0  0  0  0  0  0  0  0  0  0
    8.0007   -2.9684   27.8790 H   0  0  0  0  0  0  0  0  0  0  0  0
   10.8757   -3.7274   25.7741 H   0  0  0  0  0  0  0  0  0  0  0  0
   10.2384   -3.7282   27.4193 H   0  0  0  0  0  0  0  0  0  0  0  0
    9.0296   -5.8827   26.9241 H   0  0  0  0  0  0  0  0  0  0  0  0
    9.6254   -5.8453   25.3695 H   0  0  0  0  0  0  0  0  0  0  0  0
   10.6729   -6.0224   26.6531 H   0  0  0  0  0  0  0  0  0  0  0  0
  1  2  1  0
  2  3  1  0
  3  4  2  0
  4  5  1  0
  5  6  2  0
  6  7  1  0
  7  8  1  0
  8  9  2  0
  9 10  1  0
 10 11  1  0
 11 12  2  0
 12 13  1  0
 13 14  2  0
 14 15  1  0
 15 16  2  0
 16 17  1  0
 14 18  1  0
 13 19  1  0
 12 20  1  0
 10 21  2  0
 21 22  1  0
  7 23  2  0
  6 24  1  0
  5 25  1  0
  4 26  1  0
  2 27  1  0
  2 28  1  0
  1 29  1  0
  1 30  1  0
  1 31  1  0
 23  3  1  0
 22  8  1  0
 16 11  1  0
M  CHG  1   1   1
M  END
>  <cnnaffinity>  (1) 
-4.78644

>  <filename>  (1) 
[NH3+]Cc1cccc(-c2nc(-c3cccnc3)no2)n1

$$$$
