
     RDKit          3D

 37 38  0  0  0  0  0  0  0  0999 V2000
   14.9216    5.3286   20.8324 N   0  0  0  0  0  4  0  0  0  0  0  0
   13.5198    4.7728   20.9846 C   0  0  0  0  0  0  0  0  0  0  0  0
   13.2699    4.0409   22.3148 C   0  0  0  0  0  0  0  0  0  0  0  0
   11.7923    3.7111   22.4359 C   0  0  0  0  0  0  0  0  0  0  0  0
   10.9137    4.6612   22.9817 C   0  0  0  0  0  0  0  0  0  0  0  0
    9.5335    4.4347   22.9764 C   0  0  0  0  0  0  0  0  0  0  0  0
    9.0179    3.2416   22.4638 C   0  0  0  0  0  0  0  0  0  0  0  0
    9.8796    2.2732   21.9352 C   0  0  0  0  0  0  0  0  0  0  0  0
    9.3528    1.0645   21.4037 N   0  0  0  0  0  0  0  0  0  0  0  0
    8.2166    0.4326   21.8812 C   0  0  0  0  0  0  0  0  0  0  0  0
    7.7112    0.6931   22.9515 O   0  0  0  0  0  0  0  0  0  0  0  0
    7.5517   -0.6271   20.8931 C   0  0  0  0  0  0  0  0  0  0  0  0
    6.7948   -1.4895   21.6149 F   0  0  0  0  0  0  0  0  0  0  0  0
    8.5546   -1.3799   20.3183 F   0  0  0  0  0  0  0  0  0  0  0  0
    6.7004   -0.0072   19.8018 C   0  0  0  0  0  0  0  0  0  0  0  0
    5.4984    0.6538   20.0968 C   0  0  0  0  0  0  0  0  0  0  0  0
    4.8529    1.3233   19.0554 C   0  0  0  0  0  0  0  0  0  0  0  0
    5.4230    1.2980   17.7751 C   0  0  0  0  0  0  0  0  0  0  0  0
    6.5353    0.6121   17.4742 N   0  0  0  0  0  0  0  0  0  0  0  0
    7.1362   -0.0445   18.4681 C   0  0  0  0  0  0  0  0  0  0  0  0
    8.0063   -0.6409   18.2090 H   0  0  0  0  0  0  0  0  0  0  0  0
    4.9636    1.8376   16.9490 H   0  0  0  0  0  0  0  0  0  0  0  0
    3.9281    1.8671   19.2137 H   0  0  0  0  0  0  0  0  0  0  0  0
    5.0674    0.6312   21.1017 H   0  0  0  0  0  0  0  0  0  0  0  0
    9.9293    0.5829   20.7304 H   0  0  0  0  0  0  0  0  0  0  0  0
   11.2608    2.5212   21.8967 C   0  0  0  0  0  0  0  0  0  0  0  0
   11.9251    1.7896   21.4418 H   0  0  0  0  0  0  0  0  0  0  0  0
    7.9519    3.0546   22.4351 H   0  0  0  0  0  0  0  0  0  0  0  0
    8.8526    5.1880   23.3660 H   0  0  0  0  0  0  0  0  0  0  0  0
   11.3152    5.5848   23.3944 H   0  0  0  0  0  0  0  0  0  0  0  0
   13.5912    4.6986   23.1345 H   0  0  0  0  0  0  0  0  0  0  0  0
   13.8503    3.1131   22.3838 H   0  0  0  0  0  0  0  0  0  0  0  0
   12.8060    5.5956   20.9190 H   0  0  0  0  0  0  0  0  0  0  0  0
   13.3087    4.0923   20.1550 H   0  0  0  0  0  0  0  0  0  0  0  0
   15.0868    6.1125   21.4855 H   0  0  0  0  0  0  0  0  0  0  0  0
   15.6256    4.5985   21.0385 H   0  0  0  0  0  0  0  0  0  0  0  0
   15.0912    5.6693   19.8754 H   0  0  0  0  0  0  0  0  0  0  0  0
  1  2  1  0
  2  3  1  0
  3  4  1  0
  4  5  2  0
  5  6  1  0
  6  7  2  0
  7  8  1  0
  8  9  1  0
  9 10  1  0
 10 11  2  0
 10 12  1  0
 12 13  1  0
 12 14  1  0
 12 15  1  0
 15 16  2  0
 16 17  1  0
 17 18  2  0
 18 19  1  0
 19 20  2  0
 20 21  1  0
 18 22  1  0
 17 23  1  0
 16 24  1  0
  9 25  1  0
  8 26  2  0
 26 27  1  0
  7 28  1  0
  6 29  1  0
  5 30  1  0
  3 31  1  0
  3 32  1  0
  2 33  1  0
  2 34  1  0
  1 35  1  0
  1 36  1  0
  1 37  1  0
 26  4  1  0
 20 15  1  0
M  CHG  1   1   1
M  END
>  <cnnaffinity>  (1) 
-5.27309

>  <filename>  (1) 
[NH3+]CCc1cccc(NC(=O)C(F)(F)c2cccnc2)c1

$$$$
