
     RDKit          3D

 36 39  0  0  0  0  0  0  0  0999 V2000
   12.9487    1.2322   23.4872 O   0  0  0  0  0  1  0  0  0  0  0  0
   12.7564    2.4774   23.4166 N   0  0  0  0  0  4  0  0  0  0  0  0
   13.6841    3.2262   22.7263 C   0  0  0  0  0  0  0  0  0  0  0  0
   13.5229    4.5756   22.4876 C   0  0  0  0  0  0  0  0  0  0  0  0
   12.3987    5.2144   23.0309 C   0  0  0  0  0  0  0  0  0  0  0  0
   11.4949    4.4895   23.8063 C   0  0  0  0  0  0  0  0  0  0  0  0
   11.6698    3.1192   24.0105 C   0  0  0  0  0  0  0  0  0  0  0  0
   10.4760    2.1542   24.9365 S   0  0  0  0  0  0  0  0  0  0  0  0
    9.3251    1.7918   23.5701 C   0  0  0  0  0  0  0  0  0  0  0  0
    8.1392    0.9505   24.0797 C   0  0  0  0  0  0  0  0  0  0  0  0
    7.0461    0.8086   22.9943 C   0  0  0  0  0  0  0  0  0  0  0  0
    7.5244   -0.2778   22.1585 N   0  0  0  0  0  0  0  0  0  0  0  0
    8.3250   -1.1989   22.7572 C   0  0  0  0  0  0  0  0  0  0  0  0
    8.7121   -2.1218   21.9237 N   0  0  0  0  0  0  0  0  0  0  0  0
    8.1451   -1.7933   20.7080 N   0  0  0  0  0  0  0  0  0  0  0  0
    7.4373   -0.7022   20.8646 C   0  0  0  0  0  0  0  0  0  0  0  0
    6.6591   -0.0040   19.8414 C   0  0  0  0  0  0  0  0  0  0  0  0
    5.4433    0.6438   20.0978 C   0  0  0  0  0  0  0  0  0  0  0  0
    4.8119    1.3103   19.0483 C   0  0  0  0  0  0  0  0  0  0  0  0
    5.4195    1.3085   17.7883 C   0  0  0  0  0  0  0  0  0  0  0  0
    6.5632    0.6606   17.5243 N   0  0  0  0  0  0  0  0  0  0  0  0
    7.1565    0.0126   18.5311 C   0  0  0  0  0  0  0  0  0  0  0  0
    8.0725   -0.5219   18.2920 H   0  0  0  0  0  0  0  0  0  0  0  0
    4.9690    1.8442   16.9539 H   0  0  0  0  0  0  0  0  0  0  0  0
    3.8792    1.8387   19.1949 H   0  0  0  0  0  0  0  0  0  0  0  0
    4.9913    0.6190   21.0902 H   0  0  0  0  0  0  0  0  0  0  0  0
    8.6477   -0.8049   24.4298 S   0  0  0  0  0  0  0  0  0  0  0  0
    6.0814    0.5465   23.4503 H   0  0  0  0  0  0  0  0  0  0  0  0
    6.9088    1.7218   22.4063 H   0  0  0  0  0  0  0  0  0  0  0  0
    7.7193    1.3768   24.9958 H   0  0  0  0  0  0  0  0  0  0  0  0
    9.8727    1.2425   22.7930 H   0  0  0  0  0  0  0  0  0  0  0  0
    8.9611    2.7362   23.1397 H   0  0  0  0  0  0  0  0  0  0  0  0
   10.6426    4.9890   24.2714 H   0  0  0  0  0  0  0  0  0  0  0  0
   12.2220    6.2675   22.8502 H   0  0  0  0  0  0  0  0  0  0  0  0
   14.2732    5.1140   21.9090 H   0  0  0  0  0  0  0  0  0  0  0  0
   14.5143    2.6049   22.4289 H   0  0  0  0  0  0  0  0  0  0  0  0
  1  2  1  0
  2  3  2  0
  3  4  1  0
  4  5  2  0
  5  6  1  0
  6  7  2  0
  7  8  1  0
  8  9  1  0
  9 10  1  0
 10 11  1  0
 11 12  1  0
 12 13  1  0
 13 14  2  0
 14 15  1  0
 15 16  2  0
 16 17  1  0
 17 18  2  0
 18 19  1  0
 19 20  2  0
 20 21  1  0
 21 22  2  0
 22 23  1  0
 20 24  1  0
 19 25  1  0
 18 26  1  0
 13 27  1  0
 11 28  1  0
 11 29  1  0
 10 30  1  0
  9 31  1  0
  9 32  1  0
  6 33  1  0
  5 34  1  0
  4 35  1  0
  3 36  1  0
  7  2  1  0
 27 10  1  0
 16 12  1  0
 22 17  1  0
M  CHG  2   1  -1   2   1
M  END
>  <cnnaffinity>  (1) 
-5.87108

>  <filename>  (1) 
[O-][n+]1ccccc1SCC1Cn2c(nnc2-c2cccnc2)S1

$$$$
