
     RDKit          3D

 34 36  0  0  0  0  0  0  0  0999 V2000
    4.9124    1.8315   17.0104 H   0  0  0  0  0  0  0  0  0  0  0  0
    5.4117    1.2985   17.8112 C   0  0  0  0  0  0  0  0  0  0  0  0
    6.5731    0.6712   17.5472 N   0  0  0  0  0  0  0  0  0  0  0  0
    7.1881    0.0336   18.5582 C   0  0  0  0  0  0  0  0  0  0  0  0
    8.1358   -0.4600   18.3530 H   0  0  0  0  0  0  0  0  0  0  0  0
    6.6721   -0.0083   19.8632 C   0  0  0  0  0  0  0  0  0  0  0  0
    7.4452   -0.7092   20.9543 C   0  0  2  0  0  0  0  0  0  0  0  0
    8.3243   -1.2037   20.5273 H   0  0  0  0  0  0  0  0  0  0  0  0
    6.3183   -2.1087   21.7986 Br  0  0  0  0  0  0  0  0  0  0  0  0
    7.9128    0.3148   21.9942 C   0  0  0  0  0  0  0  0  0  0  0  0
    7.0466    0.7783   22.4802 H   0  0  0  0  0  0  0  0  0  0  0  0
    8.4633    1.1132   21.4883 H   0  0  0  0  0  0  0  0  0  0  0  0
    8.8299   -0.3353   23.0356 C   0  0  1  0  0  0  0  0  0  0  0  0
    9.6302   -0.9583   22.6310 H   0  0  0  0  0  0  0  0  0  0  0  0
    9.1723    0.4244   24.3070 C   0  0  0  0  0  0  0  0  0  0  0  0
    8.7372    1.4193   24.4204 H   0  0  0  0  0  0  0  0  0  0  0  0
   10.1875    0.3115   24.7011 H   0  0  0  0  0  0  0  0  0  0  0  0
    8.2225   -0.7783   24.3621 C   0  0  2  0  0  0  0  0  0  0  0  0
    7.1650   -0.5472   24.5083 H   0  0  0  0  0  0  0  0  0  0  0  0
    8.6925   -2.0838   24.9603 C   0  0  0  0  0  0  0  0  0  0  0  0
    9.9744   -2.5901   24.6902 C   0  0  0  0  0  0  0  0  0  0  0  0
   10.6480   -2.0538   24.0297 H   0  0  0  0  0  0  0  0  0  0  0  0
   10.4078   -3.7913   25.2609 C   0  0  0  0  0  0  0  0  0  0  0  0
   11.4013   -4.1516   25.0196 H   0  0  0  0  0  0  0  0  0  0  0  0
    9.5717   -4.4976   26.1328 C   0  0  0  0  0  0  0  0  0  0  0  0
    9.9029   -5.4185   26.6092 H   0  0  0  0  0  0  0  0  0  0  0  0
    8.2860   -4.0114   26.3922 C   0  0  0  0  0  0  0  0  0  0  0  0
    7.6254   -4.5516   27.0620 H   0  0  0  0  0  0  0  0  0  0  0  0
    7.8394   -2.8295   25.7911 C   0  0  0  0  0  0  0  0  0  0  0  0
    6.8136   -2.5119   25.9582 H   0  0  0  0  0  0  0  0  0  0  0  0
    5.4580    0.6354   20.1303 C   0  0  0  0  0  0  0  0  0  0  0  0
    5.0383    0.6384   21.1356 H   0  0  0  0  0  0  0  0  0  0  0  0
    4.8221    1.2943   19.0806 C   0  0  0  0  0  0  0  0  0  0  0  0
    3.8885    1.8248   19.2370 H   0  0  0  0  0  0  0  0  0  0  0  0
  1  2  1  0
  2  3  2  0
  3  4  1  0
  4  5  1  0
  4  6  2  0
  6  7  1  0
  7  8  1  6
  7  9  1  0
  7 10  1  0
 10 11  1  0
 10 12  1  0
 10 13  1  0
 13 14  1  6
 13 15  1  0
 15 16  1  0
 15 17  1  0
 15 18  1  0
 18 19  1  6
 18 20  1  0
 20 21  2  0
 21 22  1  0
 21 23  1  0
 23 24  1  0
 23 25  2  0
 25 26  1  0
 25 27  1  0
 27 28  1  0
 27 29  2  0
 29 30  1  0
  6 31  1  0
 31 32  1  0
 31 33  2  0
 33 34  1  0
 33  2  1  0
 18 13  1  0
 29 20  1  0
M  END
>  <cnnaffinity>  (1) 
-5.11065

>  <filename>  (1) 
Br[C@H](C[C@H]1C[C@@H]1c1ccccc1)c1cccnc1

$$$$
