
     RDKit          3D

 39 40  0  0  0  0  0  0  0  0999 V2000
    4.9444    1.8571   17.0018 H   0  0  0  0  0  0  0  0  0  0  0  0
    5.4176    1.2981   17.8028 C   0  0  0  0  0  0  0  0  0  0  0  0
    6.5642    0.6488   17.5420 N   0  0  0  0  0  0  0  0  0  0  0  0
    7.1526   -0.0070   18.5568 C   0  0  0  0  0  0  0  0  0  0  0  0
    8.0922   -0.5090   18.3505 H   0  0  0  0  0  0  0  0  0  0  0  0
    6.6311   -0.0645   19.8633 C   0  0  0  0  0  0  0  0  0  0  0  0
    7.3757   -0.8129   20.9582 C   0  0  0  0  0  0  0  0  0  0  0  0
    7.6073   -0.1217   21.7761 H   0  0  0  0  0  0  0  0  0  0  0  0
    8.3164   -1.2166   20.5631 H   0  0  0  0  0  0  0  0  0  0  0  0
    6.5773   -1.9781   21.5377 C   0  0  1  0  0  0  0  0  0  0  0  0
    5.7245   -1.5773   22.0887 H   0  0  0  0  0  0  0  0  0  0  0  0
    5.9021   -3.1598   20.0904 Br  0  0  0  0  0  0  0  0  0  0  0  0
    7.4317   -2.7355   22.4163 O   0  0  0  0  0  0  0  0  0  0  0  0
    6.7067   -3.6680   23.2500 C   0  0  0  0  0  0  0  0  0  0  0  0
    5.9863   -4.2076   22.6267 H   0  0  0  0  0  0  0  0  0  0  0  0
    7.3796   -4.4180   23.6784 H   0  0  0  0  0  0  0  0  0  0  0  0
    5.9788   -2.9704   24.4174 C   0  0  0  0  0  0  0  0  0  0  0  0
    5.5385   -2.0405   24.0733 H   0  0  0  0  0  0  0  0  0  0  0  0
    6.7019   -2.6939   25.1930 H   0  0  0  0  0  0  0  0  0  0  0  0
    4.9097   -3.8142   25.0014 N   0  0  0  0  0  0  0  0  0  0  0  0
    5.3740   -5.0215   25.6936 C   0  0  0  0  0  0  0  0  0  0  0  0
    5.6971   -5.7658   24.9598 H   0  0  0  0  0  0  0  0  0  0  0  0
    6.2296   -4.7687   26.3257 H   0  0  0  0  0  0  0  0  0  0  0  0
    4.2413   -5.5732   26.5525 C   0  0  0  0  0  0  0  0  0  0  0  0
    3.9757   -4.8260   27.3072 H   0  0  0  0  0  0  0  0  0  0  0  0
    4.5842   -6.4723   27.0692 H   0  0  0  0  0  0  0  0  0  0  0  0
    3.0121   -5.8947   25.6974 C   0  0  0  0  0  0  0  0  0  0  0  0
    2.2032   -6.2536   26.3410 H   0  0  0  0  0  0  0  0  0  0  0  0
    3.2549   -6.6898   24.9847 H   0  0  0  0  0  0  0  0  0  0  0  0
    2.5533   -4.6402   24.9455 C   0  0  0  0  0  0  0  0  0  0  0  0
    1.7458   -4.9011   24.2534 H   0  0  0  0  0  0  0  0  0  0  0  0
    2.1587   -3.9195   25.6682 H   0  0  0  0  0  0  0  0  0  0  0  0
    3.7002   -3.9772   24.1739 C   0  0  0  0  0  0  0  0  0  0  0  0
    3.9300   -4.5652   23.2774 H   0  0  0  0  0  0  0  0  0  0  0  0
    3.3734   -2.9846   23.8635 H   0  0  0  0  0  0  0  0  0  0  0  0
    5.4217    0.5910   20.1222 C   0  0  0  0  0  0  0  0  0  0  0  0
    4.9714    0.5756   21.1141 H   0  0  0  0  0  0  0  0  0  0  0  0
    4.8210    1.2848   19.0694 C   0  0  0  0  0  0  0  0  0  0  0  0
    3.9022    1.8393   19.2186 H   0  0  0  0  0  0  0  0  0  0  0  0
  1  2  1  0
  2  3  2  0
  3  4  1  0
  4  5  1  0
  4  6  2  0
  6  7  1  0
  7  8  1  0
  7  9  1  0
  7 10  1  0
 10 11  1  1
 10 12  1  0
 10 13  1  0
 13 14  1  0
 14 15  1  0
 14 16  1  0
 14 17  1  0
 17 18  1  0
 17 19  1  0
 17 20  1  0
 20 21  1  0
 21 22  1  0
 21 23  1  0
 21 24  1  0
 24 25  1  0
 24 26  1  0
 24 27  1  0
 27 28  1  0
 27 29  1  0
 27 30  1  0
 30 31  1  0
 30 32  1  0
 30 33  1  0
 33 34  1  0
 33 35  1  0
  6 36  1  0
 36 37  1  0
 36 38  2  0
 38 39  1  0
 38  2  1  0
 33 20  1  0
M  END
>  <cnnaffinity>  (1) 
-4.42791

>  <filename>  (1) 
Br[C@H](Cc1cccnc1)OCCN1CCCCC1

$$$$
