
     RDKit          3D

 36 37  0  0  0  0  0  0  0  0999 V2000
    4.9026    1.8394   17.0070 H   0  0  0  0  0  0  0  0  0  0  0  0
    5.4057    1.3021   17.8051 C   0  0  0  0  0  0  0  0  0  0  0  0
    6.5679    0.6724   17.5468 N   0  0  0  0  0  0  0  0  0  0  0  0
    7.1675    0.0163   18.5586 C   0  0  0  0  0  0  0  0  0  0  0  0
    8.1179   -0.4691   18.3565 H   0  0  0  0  0  0  0  0  0  0  0  0
    6.6272   -0.0549   19.8600 C   0  0  0  0  0  0  0  0  0  0  0  0
    7.3350   -0.7885   20.9794 C   0  0  0  0  0  0  0  0  0  0  0  0
    8.3047   -1.1488   20.6360 H   0  0  0  0  0  0  0  0  0  0  0  0
    7.5232   -0.0746   21.7904 H   0  0  0  0  0  0  0  0  0  0  0  0
    6.5233   -1.9744   21.5331 C   0  0  1  0  0  0  0  0  0  0  0  0
    5.6381   -1.5751   22.0084 H   0  0  0  0  0  0  0  0  0  0  0  0
    5.9248   -3.2158   20.0925 Br  0  0  0  0  0  0  0  0  0  0  0  0
    7.3415   -2.7086   22.6032 C   0  0  0  0  0  0  0  0  0  0  0  0
    7.4604   -2.0472   23.4714 H   0  0  0  0  0  0  0  0  0  0  0  0
    8.3352   -2.9256   22.2033 H   0  0  0  0  0  0  0  0  0  0  0  0
    6.6846   -4.0173   23.0583 C   0  0  0  0  0  0  0  0  0  0  0  0
    7.3249   -4.4948   23.8128 H   0  0  0  0  0  0  0  0  0  0  0  0
    6.5860   -4.6957   22.2021 H   0  0  0  0  0  0  0  0  0  0  0  0
    5.3031   -3.7654   23.6581 C   0  0  0  0  0  0  0  0  0  0  0  0
    4.6485   -3.3360   22.8950 H   0  0  0  0  0  0  0  0  0  0  0  0
    5.3778   -3.0345   24.4685 H   0  0  0  0  0  0  0  0  0  0  0  0
    4.7314   -5.0536   24.1940 C   0  0  0  0  0  0  0  0  0  0  0  0
    3.9907   -5.9124   23.3705 C   0  0  0  0  0  0  0  0  0  0  0  0
    3.8133   -5.6420   22.3340 H   0  0  0  0  0  0  0  0  0  0  0  0
    3.4865   -7.1161   23.8782 C   0  0  0  0  0  0  0  0  0  0  0  0
    2.9152   -7.7747   23.2328 H   0  0  0  0  0  0  0  0  0  0  0  0
    3.7187   -7.4693   25.2120 C   0  0  0  0  0  0  0  0  0  0  0  0
    3.3232   -8.3976   25.6127 H   0  0  0  0  0  0  0  0  0  0  0  0
    4.4580   -6.6173   26.0380 C   0  0  0  0  0  0  0  0  0  0  0  0
    4.6424   -6.8860   27.0731 H   0  0  0  0  0  0  0  0  0  0  0  0
    4.9616   -5.4158   25.5289 C   0  0  0  0  0  0  0  0  0  0  0  0
    5.5390   -4.7570   26.1700 H   0  0  0  0  0  0  0  0  0  0  0  0
    5.4365    0.6139   20.1224 C   0  0  0  0  0  0  0  0  0  0  0  0
    5.0111    0.6089   21.1247 H   0  0  0  0  0  0  0  0  0  0  0  0
    4.8219    1.2972   19.0760 C   0  0  0  0  0  0  0  0  0  0  0  0
    3.8952    1.8364   19.2400 H   0  0  0  0  0  0  0  0  0  0  0  0
  1  2  1  0
  2  3  2  0
  3  4  1  0
  4  5  1  0
  4  6  2  0
  6  7  1  0
  7  8  1  0
  7  9  1  0
  7 10  1  0
 10 11  1  1
 10 12  1  0
 10 13  1  0
 13 14  1  0
 13 15  1  0
 13 16  1  0
 16 17  1  0
 16 18  1  0
 16 19  1  0
 19 20  1  0
 19 21  1  0
 19 22  1  0
 22 23  2  0
 23 24  1  0
 23 25  1  0
 25 26  1  0
 25 27  2  0
 27 28  1  0
 27 29  1  0
 29 30  1  0
 29 31  2  0
 31 32  1  0
  6 33  1  0
 33 34  1  0
 33 35  2  0
 35 36  1  0
 35  2  1  0
 31 22  1  0
M  END
>  <cnnaffinity>  (1) 
-4.88199

>  <filename>  (1) 
Br[C@@H](CCCc1ccccc1)Cc1cccnc1

$$$$
