
     RDKit          3D

 34 35  0  0  0  0  0  0  0  0999 V2000
    9.0311   -0.9029   22.2757 H   0  0  0  0  0  0  0  0  0  0  0  0
    8.5586   -0.3225   21.4851 C   0  0  0  0  0  0  0  0  0  0  0  0
    7.3304   -0.7192   20.9873 C   0  0  0  0  0  0  0  0  0  0  0  0
    6.4621   -2.2496   21.7404 Br  0  0  0  0  0  0  0  0  0  0  0  0
    6.6534    0.0070   19.9064 C   0  0  0  0  0  0  0  0  0  0  0  0
    7.1868    0.0665   18.6068 C   0  0  0  0  0  0  0  0  0  0  0  0
    8.1336   -0.4313   18.4198 H   0  0  0  0  0  0  0  0  0  0  0  0
    6.5796    0.6884   17.5739 N   0  0  0  0  0  0  0  0  0  0  0  0
    5.4082    1.3020   17.8152 C   0  0  0  0  0  0  0  0  0  0  0  0
    4.8957    1.8282   17.0101 H   0  0  0  0  0  0  0  0  0  0  0  0
    4.8187    1.2963   19.0833 C   0  0  0  0  0  0  0  0  0  0  0  0
    3.8874    1.8216   19.2311 H   0  0  0  0  0  0  0  0  0  0  0  0
    5.4339    0.6400   20.1478 C   0  0  0  0  0  0  0  0  0  0  0  0
    4.9945    0.6287   21.1440 H   0  0  0  0  0  0  0  0  0  0  0  0
    9.2624    0.9206   20.9911 C   0  0  0  0  0  0  0  0  0  0  0  0
    9.5489    0.7537   19.9512 H   0  0  0  0  0  0  0  0  0  0  0  0
    8.5686    1.7664   21.0140 H   0  0  0  0  0  0  0  0  0  0  0  0
   10.5178    1.2770   21.8117 C   0  0  0  0  0  0  0  0  0  0  0  0
   10.9618    2.1856   21.3820 H   0  0  0  0  0  0  0  0  0  0  0  0
   11.5429    0.1411   21.7500 C   0  0  0  0  0  0  0  0  0  0  0  0
   11.7240   -0.1029   20.7009 H   0  0  0  0  0  0  0  0  0  0  0  0
   11.1317   -0.7588   22.2264 H   0  0  0  0  0  0  0  0  0  0  0  0
   12.8382    0.5636   22.4733 C   0  0  0  0  0  0  0  0  0  0  0  0
   13.5887   -0.2307   22.4060 H   0  0  0  0  0  0  0  0  0  0  0  0
   13.2620    1.4633   22.0140 H   0  0  0  0  0  0  0  0  0  0  0  0
   12.5378    0.8725   23.9421 C   0  0  0  0  0  0  0  0  0  0  0  0
   12.1912   -0.0399   24.4374 H   0  0  0  0  0  0  0  0  0  0  0  0
   13.4519    1.2084   24.4499 H   0  0  0  0  0  0  0  0  0  0  0  0
   11.4568    1.9544   24.0569 C   0  0  0  0  0  0  0  0  0  0  0  0
   11.8487    2.8997   23.6592 H   0  0  0  0  0  0  0  0  0  0  0  0
   11.2089    2.1047   25.1114 H   0  0  0  0  0  0  0  0  0  0  0  0
   10.1869    1.5666   23.2797 C   0  0  0  0  0  0  0  0  0  0  0  0
    9.4570    2.3823   23.3412 H   0  0  0  0  0  0  0  0  0  0  0  0
    9.7417    0.6686   23.7236 H   0  0  0  0  0  0  0  0  0  0  0  0
  1  2  1  0
  2  3  2  3
  3  4  1  0
  3  5  1  0
  5  6  2  0
  6  7  1  0
  6  8  1  0
  8  9  2  0
  9 10  1  0
  9 11  1  0
 11 12  1  0
 11 13  2  0
 13 14  1  0
  2 15  1  0
 15 16  1  0
 15 17  1  0
 15 18  1  0
 18 19  1  0
 18 20  1  0
 20 21  1  0
 20 22  1  0
 20 23  1  0
 23 24  1  0
 23 25  1  0
 23 26  1  0
 26 27  1  0
 26 28  1  0
 26 29  1  0
 29 30  1  0
 29 31  1  0
 29 32  1  0
 32 33  1  0
 32 34  1  0
 13  5  1  0
 32 18  1  0
M  END
>  <cnnaffinity>  (1) 
-5.09144

>  <filename>  (1) 
BrC(=CCC1CCCCC1)c1cccnc1

$$$$
