
     RDKit          3D

 20 21  0  0  0  0  0  0  0  0999 V2000
    5.6704   -1.6741   21.6485 H   0  0  0  0  0  0  0  0  0  0  0  0
    6.7295   -1.5274   21.8096 C   0  0  0  0  0  0  0  0  0  0  0  0
    7.3992   -0.6827   20.9501 C   0  0  0  0  0  0  0  0  0  0  0  0
    9.2884   -0.4017   21.0901 Br  0  0  0  0  0  0  0  0  0  0  0  0
    6.6607    0.0083   19.8968 C   0  0  0  0  0  0  0  0  0  0  0  0
    7.1889    0.0645   18.5979 C   0  0  0  0  0  0  0  0  0  0  0  0
    8.1340   -0.4330   18.3998 H   0  0  0  0  0  0  0  0  0  0  0  0
    6.5692    0.6799   17.5761 N   0  0  0  0  0  0  0  0  0  0  0  0
    5.4004    1.2931   17.8295 C   0  0  0  0  0  0  0  0  0  0  0  0
    4.8898    1.7953   17.0140 H   0  0  0  0  0  0  0  0  0  0  0  0
    4.8159    1.3000   19.1023 C   0  0  0  0  0  0  0  0  0  0  0  0
    3.8836    1.8318   19.2592 H   0  0  0  0  0  0  0  0  0  0  0  0
    5.4395    0.6371   20.1582 C   0  0  0  0  0  0  0  0  0  0  0  0
    5.0079    0.6310   21.1599 H   0  0  0  0  0  0  0  0  0  0  0  0
    7.3474   -2.2565   22.9120 C   0  0  0  0  0  0  0  0  0  0  0  0
    6.6331   -3.1553   23.6872 N   0  0  0  0  0  0  0  0  0  0  0  0
    7.4216   -3.6263   24.5710 N   0  0  0  0  0  0  0  0  0  0  0  0
    8.6049   -3.0206   24.3316 N   0  0  0  0  0  0  0  0  0  0  0  0
    9.4314   -3.2060   24.8984 H   0  0  0  0  0  0  0  0  0  0  0  0
    8.5912   -2.1587   23.2909 N   0  0  0  0  0  0  0  0  0  0  0  0
  1  2  1  0
  2  3  2  3
  3  4  1  0
  3  5  1  0
  5  6  2  0
  6  7  1  0
  6  8  1  0
  8  9  2  0
  9 10  1  0
  9 11  1  0
 11 12  1  0
 11 13  2  0
 13 14  1  0
  2 15  1  0
 15 16  1  0
 16 17  2  0
 17 18  1  0
 18 19  1  0
 18 20  1  0
 13  5  1  0
 20 15  2  0
M  END
>  <cnnaffinity>  (1) 
-4.44426

>  <filename>  (1) 
BrC(=Cc1nn[nH]n1)c1cccnc1

$$$$
