
     RDKit          3D

 23 24  0  0  0  0  0  0  0  0999 V2000
    8.6801    0.0519   20.0107 H   0  0  0  0  0  0  0  0  0  0  0  0
    8.1381   -0.7210   20.5364 C   0  0  0  0  0  0  0  0  0  0  0  0
    6.7805   -0.8468   20.3344 C   0  0  0  0  0  0  0  0  0  0  0  0
    5.7684   -2.1590   21.2781 Br  0  0  0  0  0  0  0  0  0  0  0  0
    6.1293    0.0349   19.3666 C   0  0  0  0  0  0  0  0  0  0  0  0
    6.7928    0.2824   18.1624 C   0  0  0  0  0  0  0  0  0  0  0  0
    7.7345   -0.2297   18.0003 H   0  0  0  0  0  0  0  0  0  0  0  0
    6.3251    1.0835   17.1960 N   0  0  0  0  0  0  0  0  0  0  0  0
    5.1633    1.7176   17.4122 C   0  0  0  0  0  0  0  0  0  0  0  0
    4.8078    2.4160   16.6566 H   0  0  0  0  0  0  0  0  0  0  0  0
    4.4252    1.5293   18.5875 C   0  0  0  0  0  0  0  0  0  0  0  0
    3.5061    2.0943   18.7059 H   0  0  0  0  0  0  0  0  0  0  0  0
    4.8914    0.6592   19.5816 C   0  0  0  0  0  0  0  0  0  0  0  0
    4.3171    0.5189   20.4975 H   0  0  0  0  0  0  0  0  0  0  0  0
    8.8903   -1.5105   21.4843 C   0  0  0  0  0  0  0  0  0  0  0  0
    8.3117   -2.5659   22.0725 N   0  0  0  0  0  0  0  0  0  0  0  0
    8.9657   -3.1910   23.0497 C   0  0  0  0  0  0  0  0  0  0  0  0
    8.5069   -4.0387   23.5536 H   0  0  0  0  0  0  0  0  0  0  0  0
   10.2272   -2.7629   23.4315 C   0  0  0  0  0  0  0  0  0  0  0  0
   10.7580   -3.2429   24.2439 H   0  0  0  0  0  0  0  0  0  0  0  0
   10.7957   -1.7047   22.7312 C   0  0  0  0  0  0  0  0  0  0  0  0
   11.7946   -1.3615   22.9785 H   0  0  0  0  0  0  0  0  0  0  0  0
   10.1237   -1.0840   21.7652 N   0  0  0  0  0  0  0  0  0  0  0  0
  1  2  1  0
  2  3  2  3
  3  4  1  0
  3  5  1  0
  5  6  2  0
  6  7  1  0
  6  8  1  0
  8  9  2  0
  9 10  1  0
  9 11  1  0
 11 12  1  0
 11 13  2  0
 13 14  1  0
  2 15  1  0
 15 16  2  0
 16 17  1  0
 17 18  1  0
 17 19  2  0
 19 20  1  0
 19 21  1  0
 21 22  1  0
 21 23  2  0
 13  5  1  0
 23 15  1  0
M  END
>  <cnnaffinity>  (1) 
-4.67659

>  <filename>  (1) 
BrC(=Cc1ncccn1)c1cccnc1

$$$$
