
     RDKit          3D

 31 33  0  0  0  0  0  0  0  0999 V2000
    6.8529   -2.1720   20.0747 H   0  0  0  0  0  0  0  0  0  0  0  0
    7.3623   -1.6800   20.8948 C   0  0  0  0  0  0  0  0  0  0  0  0
    7.1726   -0.3197   21.0318 C   0  0  0  0  0  0  0  0  0  0  0  0
    7.8791    0.6624   22.5161 Br  0  0  0  0  0  0  0  0  0  0  0  0
    6.4725    0.3531   19.9469 C   0  0  0  0  0  0  0  0  0  0  0  0
    6.9910    0.1665   18.6603 C   0  0  0  0  0  0  0  0  0  0  0  0
    7.9171   -0.3939   18.5675 H   0  0  0  0  0  0  0  0  0  0  0  0
    6.4236    0.6549   17.5518 N   0  0  0  0  0  0  0  0  0  0  0  0
    5.3137    1.3977   17.6994 C   0  0  0  0  0  0  0  0  0  0  0  0
    4.8501    1.7967   16.8061 H   0  0  0  0  0  0  0  0  0  0  0  0
    4.7421    1.6598   18.9512 C   0  0  0  0  0  0  0  0  0  0  0  0
    3.8453    2.2691   18.9961 H   0  0  0  0  0  0  0  0  0  0  0  0
    5.3176    1.1256   20.1070 C   0  0  0  0  0  0  0  0  0  0  0  0
    4.8669    1.2851   21.0865 H   0  0  0  0  0  0  0  0  0  0  0  0
    8.1651   -2.5223   21.7849 C   0  0  0  0  0  0  0  0  0  0  0  0
    9.3040   -1.9832   22.3914 C   0  0  0  0  0  0  0  0  0  0  0  0
    9.6027   -0.9652   22.1684 H   0  0  0  0  0  0  0  0  0  0  0  0
   10.1043   -2.7529   23.2319 C   0  0  0  0  0  0  0  0  0  0  0  0
   10.9868   -2.3112   23.6731 H   0  0  0  0  0  0  0  0  0  0  0  0
    9.7726   -4.0830   23.4895 C   0  0  0  0  0  0  0  0  0  0  0  0
   10.4136   -4.6942   24.1207 H   0  0  0  0  0  0  0  0  0  0  0  0
    8.6582   -4.6637   22.8692 C   0  0  0  0  0  0  0  0  0  0  0  0
    8.3581   -6.0194   23.0911 C   0  0  0  0  0  0  0  0  0  0  0  0
    8.9533   -6.6023   23.7889 H   0  0  0  0  0  0  0  0  0  0  0  0
    7.2996   -6.6381   22.4148 C   0  0  0  0  0  0  0  0  0  0  0  0
    7.0910   -7.6943   22.5807 H   0  0  0  0  0  0  0  0  0  0  0  0
    6.5053   -5.8775   21.5463 C   0  0  0  0  0  0  0  0  0  0  0  0
    5.6714   -6.3413   21.0236 H   0  0  0  0  0  0  0  0  0  0  0  0
    6.7709   -4.5121   21.3568 C   0  0  0  0  0  0  0  0  0  0  0  0
    6.1366   -3.9153   20.7078 H   0  0  0  0  0  0  0  0  0  0  0  0
    7.8581   -3.8878   21.9943 C   0  0  0  0  0  0  0  0  0  0  0  0
  1  2  1  0
  2  3  2  3
  3  4  1  0
  3  5  1  0
  5  6  2  0
  6  7  1  0
  6  8  1  0
  8  9  2  0
  9 10  1  0
  9 11  1  0
 11 12  1  0
 11 13  2  0
 13 14  1  0
  2 15  1  0
 15 16  2  0
 16 17  1  0
 16 18  1  0
 18 19  1  0
 18 20  2  0
 20 21  1  0
 20 22  1  0
 22 23  2  0
 23 24  1  0
 23 25  1  0
 25 26  1  0
 25 27  2  0
 27 28  1  0
 27 29  1  0
 29 30  1  0
 29 31  2  0
 13  5  1  0
 31 15  1  0
 31 22  1  0
M  END
>  <cnnaffinity>  (1) 
-5.38621

>  <filename>  (1) 
BrC(=Cc1cccc2ccccc12)c1cccnc1

$$$$
