
     RDKit          3D

 30 32  0  0  0  0  0  0  0  0999 V2000
    7.7393   -1.8322   20.5718 H   0  0  0  0  0  0  0  0  0  0  0  0
    7.4390   -0.8172   20.8275 C   0  0  0  0  0  0  0  0  0  0  0  0
    7.7584   -0.3221   22.0791 C   0  0  0  0  0  0  0  0  0  0  0  0
    7.3407    1.5045   22.5093 Br  0  0  0  0  0  0  0  0  0  0  0  0
    8.3716   -1.1731   23.1159 C   0  0  0  0  0  0  0  0  0  0  0  0
    8.4616   -2.5042   22.9199 N   0  0  0  0  0  0  0  0  0  0  0  0
    8.8985   -3.2787   23.9291 C   0  0  0  0  0  0  0  0  0  0  0  0
    9.0124   -4.6525   23.7093 C   0  0  0  0  0  0  0  0  0  0  0  0
    8.7590   -5.0243   22.7270 H   0  0  0  0  0  0  0  0  0  0  0  0
    9.4569   -5.5185   24.7192 C   0  0  0  0  0  0  0  0  0  0  0  0
    9.5900   -6.5800   24.5303 H   0  0  0  0  0  0  0  0  0  0  0  0
    9.7277   -5.0104   25.9887 C   0  0  0  0  0  0  0  0  0  0  0  0
   10.0344   -5.6889   26.7790 H   0  0  0  0  0  0  0  0  0  0  0  0
    9.5989   -3.6416   26.2365 C   0  0  0  0  0  0  0  0  0  0  0  0
    9.8219   -3.2638   27.2271 H   0  0  0  0  0  0  0  0  0  0  0  0
    9.2255   -2.7669   25.2047 C   0  0  0  0  0  0  0  0  0  0  0  0
    9.1774   -1.3871   25.4030 C   0  0  0  0  0  0  0  0  0  0  0  0
    9.4331   -0.9303   26.3573 H   0  0  0  0  0  0  0  0  0  0  0  0
    8.7803   -0.5937   24.3266 C   0  0  0  0  0  0  0  0  0  0  0  0
    8.7557    0.4855   24.4292 H   0  0  0  0  0  0  0  0  0  0  0  0
    6.7177   -0.0397   19.8160 C   0  0  0  0  0  0  0  0  0  0  0  0
    7.1741   -0.0229   18.4898 C   0  0  0  0  0  0  0  0  0  0  0  0
    8.0768   -0.5754   18.2471 H   0  0  0  0  0  0  0  0  0  0  0  0
    6.5585    0.6470   17.4995 N   0  0  0  0  0  0  0  0  0  0  0  0
    5.4389    1.3258   17.8071 C   0  0  0  0  0  0  0  0  0  0  0  0
    4.9352    1.8770   17.0202 H   0  0  0  0  0  0  0  0  0  0  0  0
    4.9040    1.3441   19.0995 C   0  0  0  0  0  0  0  0  0  0  0  0
    3.9881    1.8937   19.2814 H   0  0  0  0  0  0  0  0  0  0  0  0
    5.5516    0.6667   20.1338 C   0  0  0  0  0  0  0  0  0  0  0  0
    5.1471    0.6686   21.1463 H   0  0  0  0  0  0  0  0  0  0  0  0
  1  2  1  0
  2  3  2  3
  3  4  1  0
  3  5  1  0
  5  6  2  0
  6  7  1  0
  7  8  2  0
  8  9  1  0
  8 10  1  0
 10 11  1  0
 10 12  2  0
 12 13  1  0
 12 14  1  0
 14 15  1  0
 14 16  2  0
 16 17  1  0
 17 18  1  0
 17 19  2  0
 19 20  1  0
  2 21  1  0
 21 22  2  0
 22 23  1  0
 22 24  1  0
 24 25  2  0
 25 26  1  0
 25 27  1  0
 27 28  1  0
 27 29  2  0
 29 30  1  0
 19  5  1  0
 29 21  1  0
 16  7  1  0
M  END
>  <cnnaffinity>  (1) 
-5.14197

>  <filename>  (1) 
BrC(=Cc1cccnc1)c1ccc2ccccc2n1

$$$$
