
     RDKit          3D

 28 30  0  0  0  0  0  0  0  0999 V2000
   10.0762   -2.4123   21.4689 H   0  0  0  0  0  0  0  0  0  0  0  0
    9.1272   -1.9172   21.6801 C   0  0  0  0  0  0  0  0  0  0  0  0
    8.5052   -1.2857   20.7015 N   0  0  0  0  0  0  0  0  0  0  0  0
    7.3616   -0.6964   21.0059 C   0  0  0  0  0  0  0  0  0  0  0  0
    6.6534   -0.0107   19.9603 C   0  0  0  0  0  0  0  0  0  0  0  0
    7.2080    0.0040   18.6787 C   0  0  0  0  0  0  0  0  0  0  0  0
    8.1601   -0.4898   18.4950 H   0  0  0  0  0  0  0  0  0  0  0  0
    6.6187    0.6185   17.6432 N   0  0  0  0  0  0  0  0  0  0  0  0
    5.4550    1.2518   17.8713 C   0  0  0  0  0  0  0  0  0  0  0  0
    4.9652    1.7759   17.0610 H   0  0  0  0  0  0  0  0  0  0  0  0
    4.8419    1.2766   19.1232 C   0  0  0  0  0  0  0  0  0  0  0  0
    3.9080    1.8099   19.2456 H   0  0  0  0  0  0  0  0  0  0  0  0
    5.4387    0.6414   20.1973 C   0  0  0  0  0  0  0  0  0  0  0  0
    4.9699    0.6665   21.1833 H   0  0  0  0  0  0  0  0  0  0  0  0
    6.8461   -0.7061   22.2228 N   0  0  0  0  0  0  0  0  0  0  0  0
    7.5156   -1.3406   23.1750 C   0  0  0  0  0  0  0  0  0  0  0  0
    6.9823   -1.3545   24.5652 C   0  0  0  0  0  0  0  0  0  0  0  0
    7.6145   -2.0984   25.5918 C   0  0  0  0  0  0  0  0  0  0  0  0
    8.5459   -2.6354   25.4119 H   0  0  0  0  0  0  0  0  0  0  0  0
    7.0730   -2.1469   26.8816 C   0  0  0  0  0  0  0  0  0  0  0  0
    7.6185   -2.6788   27.6565 H   0  0  0  0  0  0  0  0  0  0  0  0
    5.8644   -1.5005   27.1644 C   0  0  0  0  0  0  0  0  0  0  0  0
    5.4234   -1.5481   28.1572 H   0  0  0  0  0  0  0  0  0  0  0  0
    5.2308   -0.7501   26.1711 C   0  0  0  0  0  0  0  0  0  0  0  0
    3.5504    0.0881   26.5139 Br  0  0  0  0  0  0  0  0  0  0  0  0
    5.8186   -0.6287   24.9096 C   0  0  0  0  0  0  0  0  0  0  0  0
    5.3364    0.0391   24.1960 H   0  0  0  0  0  0  0  0  0  0  0  0
    8.6533   -1.9769   22.9119 N   0  0  0  0  0  0  0  0  0  0  0  0
  1  2  1  0
  2  3  2  0
  3  4  1  0
  4  5  1  0
  5  6  2  0
  6  7  1  0
  6  8  1  0
  8  9  2  0
  9 10  1  0
  9 11  1  0
 11 12  1  0
 11 13  2  0
 13 14  1  0
  4 15  2  0
 15 16  1  0
 16 17  1  0
 17 18  2  0
 18 19  1  0
 18 20  1  0
 20 21  1  0
 20 22  2  0
 22 23  1  0
 22 24  1  0
 24 25  1  0
 24 26  2  0
 26 27  1  0
 16 28  2  0
 28  2  1  0
 13  5  1  0
 26 17  1  0
M  END
>  <cnnaffinity>  (1) 
-4.78775

>  <filename>  (1) 
Brc1cccc(-c2ncnc(-c3cccnc3)n2)c1

$$$$
