
     RDKit          3D

 29 31  0  0  0  0  0  0  0  0999 V2000
    4.8970    1.7726   17.0149 H   0  0  0  0  0  0  0  0  0  0  0  0
    5.3965    1.2918   17.8465 C   0  0  0  0  0  0  0  0  0  0  0  0
    6.5675    0.6809   17.6004 N   0  0  0  0  0  0  0  0  0  0  0  0
    7.1890    0.0496   18.6064 C   0  0  0  0  0  0  0  0  0  0  0  0
    8.1354   -0.4421   18.3892 H   0  0  0  0  0  0  0  0  0  0  0  0
    6.6607    0.0108   19.9004 C   0  0  0  0  0  0  0  0  0  0  0  0
    7.3846   -0.7091   20.9462 C   0  0  0  0  0  0  0  0  0  0  0  0
    8.0983   -1.8075   20.6290 N   0  0  0  0  0  0  0  0  0  0  0  0
    8.7769   -2.5083   21.5533 N   0  0  0  0  0  0  0  0  0  0  0  0
    8.7783   -2.1236   22.8465 C   0  0  0  0  0  0  0  0  0  0  0  0
    9.3272   -2.7206   23.5710 H   0  0  0  0  0  0  0  0  0  0  0  0
    8.0689   -0.9854   23.2606 C   0  0  0  0  0  0  0  0  0  0  0  0
    8.0685   -0.5514   24.6693 C   0  0  0  0  0  0  0  0  0  0  0  0
    9.2385   -0.6241   25.4458 C   0  0  0  0  0  0  0  0  0  0  0  0
   10.1655   -0.9856   25.0129 H   0  0  0  0  0  0  0  0  0  0  0  0
    9.2366   -0.2088   26.7816 C   0  0  0  0  0  0  0  0  0  0  0  0
   10.1473   -0.2629   27.3710 H   0  0  0  0  0  0  0  0  0  0  0  0
    8.0636    0.2821   27.3589 C   0  0  0  0  0  0  0  0  0  0  0  0
    8.0660    0.6035   28.3956 H   0  0  0  0  0  0  0  0  0  0  0  0
    6.8898    0.3604   26.6042 C   0  0  0  0  0  0  0  0  0  0  0  0
    5.2845    1.0259   27.3975 Br  0  0  0  0  0  0  0  0  0  0  0  0
    6.8961   -0.0541   25.2664 C   0  0  0  0  0  0  0  0  0  0  0  0
    5.9718   -0.0027   24.6982 H   0  0  0  0  0  0  0  0  0  0  0  0
    7.3636   -0.2724   22.2779 C   0  0  0  0  0  0  0  0  0  0  0  0
    6.8386    0.6381   22.5472 H   0  0  0  0  0  0  0  0  0  0  0  0
    5.4471    0.6548   20.1591 C   0  0  0  0  0  0  0  0  0  0  0  0
    5.0087    0.6298   21.1530 H   0  0  0  0  0  0  0  0  0  0  0  0
    4.8108    1.3117   19.1127 C   0  0  0  0  0  0  0  0  0  0  0  0
    3.8779    1.8406   19.2685 H   0  0  0  0  0  0  0  0  0  0  0  0
  1  2  1  0
  2  3  2  0
  3  4  1  0
  4  5  1  0
  4  6  2  0
  6  7  1  0
  7  8  2  0
  8  9  1  0
  9 10  2  0
 10 11  1  0
 10 12  1  0
 12 13  1  0
 13 14  2  0
 14 15  1  0
 14 16  1  0
 16 17  1  0
 16 18  2  0
 18 19  1  0
 18 20  1  0
 20 21  1  0
 20 22  2  0
 22 23  1  0
 12 24  2  0
 24 25  1  0
  6 26  1  0
 26 27  1  0
 26 28  2  0
 28 29  1  0
 28  2  1  0
 24  7  1  0
 22 13  1  0
M  END
>  <cnnaffinity>  (1) 
-4.90161

>  <filename>  (1) 
Brc1cccc(-c2cnnc(-c3cccnc3)c2)c1

$$$$
