
     RDKit          3D

 40 44  0  0  0  0  0  0  0  0999 V2000
   14.6897    4.8738   23.1011 Br  0  0  0  0  0  0  0  0  0  0  0  0
   13.1663    3.7809   22.8501 C   0  0  0  0  0  0  0  0  0  0  0  0
   13.2993    2.3950   22.6842 C   0  0  0  0  0  0  0  0  0  0  0  0
   12.1717    1.5727   22.5203 C   0  0  0  0  0  0  0  0  0  0  0  0
   10.8850    2.1579   22.5171 C   0  0  0  0  0  0  0  0  0  0  0  0
    9.6355    1.3967   22.3998 C   0  0  0  0  0  0  0  0  0  0  0  0
    9.4105    0.4491   21.5343 N   0  0  0  0  0  0  0  0  0  0  0  0
    8.0694    0.1508   21.7296 C   0  0  0  0  0  0  0  0  0  0  0  0
    7.3684   -0.8210   20.8150 C   0  0  0  0  0  0  0  0  0  0  0  0
    6.6625   -0.0960   19.6823 C   0  0  0  0  0  0  0  0  0  0  0  0
    5.5020    0.6243   19.9521 C   0  0  0  0  0  0  0  0  0  0  0  0
    4.8857    1.2938   18.8972 C   0  0  0  0  0  0  0  0  0  0  0  0
    5.4403    1.2342   17.6132 C   0  0  0  0  0  0  0  0  0  0  0  0
    6.5637    0.5448   17.3433 N   0  0  0  0  0  0  0  0  0  0  0  0
    7.1629   -0.0988   18.3626 C   0  0  0  0  0  0  0  0  0  0  0  0
    8.0841   -0.6345   18.1556 H   0  0  0  0  0  0  0  0  0  0  0  0
    4.9430    1.7691   16.8105 H   0  0  0  0  0  0  0  0  0  0  0  0
    3.9853    1.8723   19.0669 H   0  0  0  0  0  0  0  0  0  0  0  0
    5.1065    0.6696   20.9664 H   0  0  0  0  0  0  0  0  0  0  0  0
    8.1172   -1.4995   20.4021 H   0  0  0  0  0  0  0  0  0  0  0  0
    6.6457   -1.4167   21.3843 H   0  0  0  0  0  0  0  0  0  0  0  0
    7.4832    0.8151   22.6993 N   0  0  0  0  0  0  0  0  0  0  0  0
    8.4722    1.6401   23.1252 N   0  0  0  0  0  0  0  0  0  0  0  0
    8.3187    2.6659   24.1751 C   0  0  0  0  0  0  0  0  0  0  0  0
    8.3998    2.2986   25.6578 C   0  0  0  0  0  0  0  0  0  0  0  0
    9.5544    3.0331   24.9990 C   0  0  0  0  0  0  0  0  0  0  0  0
   10.4785    2.4727   24.8209 H   0  0  0  0  0  0  0  0  0  0  0  0
    9.6950    4.0867   25.2556 H   0  0  0  0  0  0  0  0  0  0  0  0
    7.7760    2.8717   26.3488 H   0  0  0  0  0  0  0  0  0  0  0  0
    8.5431    1.2491   25.9285 H   0  0  0  0  0  0  0  0  0  0  0  0
    7.6475    3.4854   23.8911 H   0  0  0  0  0  0  0  0  0  0  0  0
   10.7763    3.5493   22.6579 C   0  0  0  0  0  0  0  0  0  0  0  0
    9.6689    4.2579   22.6712 N   0  0  0  0  0  0  0  0  0  0  0  0
   10.0919    5.5392   22.8537 N   0  0  0  0  0  0  0  0  0  0  0  0
   11.4649    5.6221   22.9938 C   0  0  0  0  0  0  0  0  0  0  0  0
   11.8964    4.3439   22.8381 C   0  0  0  0  0  0  0  0  0  0  0  0
   12.0751    6.4988   23.1844 H   0  0  0  0  0  0  0  0  0  0  0  0
    9.4632    6.3390   22.9168 H   0  0  0  0  0  0  0  0  0  0  0  0
   12.2972    0.4934   22.4085 H   0  0  0  0  0  0  0  0  0  0  0  0
   14.2916    1.9634   22.6834 H   0  0  0  0  0  0  0  0  0  0  0  0
  1  2  1  0
  2  3  2  0
  3  4  1  0
  4  5  2  0
  5  6  1  0
  6  7  2  0
  7  8  1  0
  8  9  1  0
  9 10  1  0
 10 11  2  0
 11 12  1  0
 12 13  2  0
 13 14  1  0
 14 15  2  0
 15 16  1  0
 13 17  1  0
 12 18  1  0
 11 19  1  0
  9 20  1  0
  9 21  1  0
  8 22  2  0
 22 23  1  0
 23 24  1  0
 24 25  1  0
 25 26  1  0
 26 27  1  0
 26 28  1  0
 25 29  1  0
 25 30  1  0
 24 31  1  0
  5 32  1  0
 32 33  2  0
 33 34  1  0
 34 35  1  0
 35 36  2  0
 35 37  1  0
 34 38  1  0
  4 39  1  0
  3 40  1  0
 36  2  1  0
 23  6  1  0
 26 24  1  0
 36 32  1  0
 15 10  1  0
M  END
>  <cnnaffinity>  (1) 
-6.35271

>  <filename>  (1) 
Brc1ccc(-c2nc(Cc3cccnc3)nn2C2CC2)c2n[nH]cc12

$$$$
