
     RDKit          3D

 37 41  0  0  0  0  0  0  0  0999 V2000
    3.2983   -3.9739   27.7692 Br  0  0  0  0  0  0  0  0  0  0  0  0
    4.6578   -3.3365   26.5908 C   0  0  0  0  0  0  0  0  0  0  0  0
    4.4777   -3.4159   25.2054 C   0  0  0  0  0  0  0  0  0  0  0  0
    5.4270   -2.8672   24.3367 C   0  0  0  0  0  0  0  0  0  0  0  0
    6.5483   -2.2373   24.8807 C   0  0  0  0  0  0  0  0  0  0  0  0
    7.6578   -1.5452   24.2651 C   0  0  0  0  0  0  0  0  0  0  0  0
    7.6707   -1.2757   22.8119 C   0  0  0  0  0  0  0  0  0  0  0  0
    6.6976   -0.7219   22.1329 N   0  0  0  0  0  0  0  0  0  0  0  0
    7.1730   -0.6597   20.8371 C   0  0  0  0  0  0  0  0  0  0  0  0
    6.4975    0.0292   19.7718 C   0  0  0  0  0  0  0  0  0  0  0  0
    5.3026    0.7168   19.9833 C   0  0  0  0  0  0  0  0  0  0  0  0
    4.7628    1.3983   18.9019 C   0  0  0  0  0  0  0  0  0  0  0  0
    5.4104    1.3651   17.6644 C   0  0  0  0  0  0  0  0  0  0  0  0
    6.5534    0.6837   17.4680 N   0  0  0  0  0  0  0  0  0  0  0  0
    7.0908    0.0327   18.5099 C   0  0  0  0  0  0  0  0  0  0  0  0
    8.0223   -0.5043   18.3442 H   0  0  0  0  0  0  0  0  0  0  0  0
    4.9689    1.9084   16.8352 H   0  0  0  0  0  0  0  0  0  0  0  0
    3.8470    1.9626   19.0139 H   0  0  0  0  0  0  0  0  0  0  0  0
    4.8178    0.7248   20.9606 H   0  0  0  0  0  0  0  0  0  0  0  0
    8.3354   -1.2241   20.6691 N   0  0  0  0  0  0  0  0  0  0  0  0
    8.6504   -1.6403   21.9127 N   0  0  0  0  0  0  0  0  0  0  0  0
    9.8673   -2.3859   22.1865 C   0  0  0  0  0  0  0  0  0  0  0  0
   10.8509   -1.7544   23.1389 C   0  0  0  0  0  0  0  0  0  0  0  0
   10.1411   -3.0459   23.5373 C   0  0  0  0  0  0  0  0  0  0  0  0
    9.3636   -3.0118   24.3095 H   0  0  0  0  0  0  0  0  0  0  0  0
   10.7366   -3.9630   23.5458 H   0  0  0  0  0  0  0  0  0  0  0  0
   11.8927   -1.7864   22.8111 H   0  0  0  0  0  0  0  0  0  0  0  0
   10.5547   -0.8245   23.6270 H   0  0  0  0  0  0  0  0  0  0  0  0
   10.2732   -2.8354   21.2827 H   0  0  0  0  0  0  0  0  0  0  0  0
    8.5568   -1.2332   25.1868 N   0  0  0  0  0  0  0  0  0  0  0  0
    8.0297   -1.6570   26.3839 N   0  0  0  0  0  0  0  0  0  0  0  0
    6.7791   -2.2325   26.2361 C   0  0  0  0  0  0  0  0  0  0  0  0
    5.8252   -2.7631   27.1100 C   0  0  0  0  0  0  0  0  0  0  0  0
    5.9663   -2.7124   28.1804 H   0  0  0  0  0  0  0  0  0  0  0  0
    8.5518   -1.6771   27.2650 H   0  0  0  0  0  0  0  0  0  0  0  0
    5.2859   -2.9149   23.2608 H   0  0  0  0  0  0  0  0  0  0  0  0
    3.5761   -3.8824   24.8240 H   0  0  0  0  0  0  0  0  0  0  0  0
  1  2  1  0
  2  3  2  0
  3  4  1  0
  4  5  2  0
  5  6  1  0
  6  7  1  0
  7  8  2  0
  8  9  1  0
  9 10  1  0
 10 11  2  0
 11 12  1  0
 12 13  2  0
 13 14  1  0
 14 15  2  0
 15 16  1  0
 13 17  1  0
 12 18  1  0
 11 19  1  0
  9 20  2  0
 20 21  1  0
 21 22  1  0
 22 23  1  0
 23 24  1  0
 24 25  1  0
 24 26  1  0
 23 27  1  0
 23 28  1  0
 22 29  1  0
  6 30  2  0
 30 31  1  0
 31 32  1  0
 32 33  2  0
 33 34  1  0
 31 35  1  0
  4 36  1  0
  3 37  1  0
 33  2  1  0
 32  5  1  0
 21  7  1  0
 24 22  1  0
 15 10  1  0
M  END
>  <cnnaffinity>  (1) 
-5.81213

>  <filename>  (1) 
Brc1ccc2c(-c3nc(-c4cccnc4)nn3C3CC3)n[nH]c2c1

$$$$
