
     RDKit          3D

 26 28  0  0  0  0  0  0  0  0999 V2000
    4.8944    1.7782   17.0145 H   0  0  0  0  0  0  0  0  0  0  0  0
    5.4017    1.2917   17.8413 C   0  0  0  0  0  0  0  0  0  0  0  0
    6.5715    0.6746   17.5997 N   0  0  0  0  0  0  0  0  0  0  0  0
    7.1873    0.0531   18.6154 C   0  0  0  0  0  0  0  0  0  0  0  0
    8.1343   -0.4414   18.3937 H   0  0  0  0  0  0  0  0  0  0  0  0
    6.6448    0.0173   19.9041 C   0  0  0  0  0  0  0  0  0  0  0  0
    7.3513   -0.6782   20.9482 C   0  0  0  0  0  0  0  0  0  0  0  0
    6.9437   -0.7720   22.1846 N   0  0  0  0  0  0  0  0  0  0  0  0
    7.9359   -1.5197   22.7909 C   0  0  0  0  0  0  0  0  0  0  0  0
    7.9396   -1.9048   24.2108 C   0  0  0  0  0  0  0  0  0  0  0  0
    8.9958   -2.6738   24.7355 C   0  0  0  0  0  0  0  0  0  0  0  0
    9.8168   -2.9906   24.0978 H   0  0  0  0  0  0  0  0  0  0  0  0
    9.0089   -3.0435   26.0800 C   0  0  0  0  0  0  0  0  0  0  0  0
    9.8274   -3.6379   26.4747 H   0  0  0  0  0  0  0  0  0  0  0  0
    7.9670   -2.6488   26.9155 C   0  0  0  0  0  0  0  0  0  0  0  0
    7.9906   -2.9464   27.9487 H   0  0  0  0  0  0  0  0  0  0  0  0
    6.9076   -1.8857   26.4225 C   0  0  0  0  0  0  0  0  0  0  0  0
    5.4838   -1.3504   27.5812 Br  0  0  0  0  0  0  0  0  0  0  0  0
    6.8965   -1.5167   25.0729 C   0  0  0  0  0  0  0  0  0  0  0  0
    6.0646   -0.9232   24.7027 H   0  0  0  0  0  0  0  0  0  0  0  0
    8.9003   -1.8709   21.9709 N   0  0  0  0  0  0  0  0  0  0  0  0
    8.5283   -1.3145   20.7280 O   0  0  0  0  0  0  0  0  0  0  0  0
    5.4377    0.6541   20.1602 C   0  0  0  0  0  0  0  0  0  0  0  0
    5.0035    0.6343   21.1562 H   0  0  0  0  0  0  0  0  0  0  0  0
    4.8123    1.3097   19.1104 C   0  0  0  0  0  0  0  0  0  0  0  0
    3.8778    1.8395   19.2665 H   0  0  0  0  0  0  0  0  0  0  0  0
  1  2  1  0
  2  3  2  0
  3  4  1  0
  4  5  1  0
  4  6  2  0
  6  7  1  0
  7  8  2  0
  8  9  1  0
  9 10  1  0
 10 11  2  0
 11 12  1  0
 11 13  1  0
 13 14  1  0
 13 15  2  0
 15 16  1  0
 15 17  1  0
 17 18  1  0
 17 19  2  0
 19 20  1  0
  9 21  2  0
 21 22  1  0
  6 23  1  0
 23 24  1  0
 23 25  2  0
 25 26  1  0
 25  2  1  0
 22  7  1  0
 19 10  1  0
M  END
>  <cnnaffinity>  (1) 
-4.83525

>  <filename>  (1) 
Brc1cccc(-c2noc(-c3cccnc3)n2)c1

$$$$
