
     RDKit          3D

 40 44  0  0  0  0  0  0  0  0999 V2000
   12.2221    6.6323   23.9645 Br  0  0  0  0  0  0  0  0  0  0  0  0
   10.7483    6.0222   25.0298 C   0  0  0  0  0  0  0  0  0  0  0  0
    9.9808    4.9214   24.8270 C   0  0  0  0  0  0  0  0  0  0  0  0
    9.9116    3.9171   23.7679 C   0  0  0  0  0  0  0  0  0  0  0  0
    9.1570    2.7670   23.9774 C   0  0  0  0  0  0  0  0  0  0  0  0
    9.0674    1.7459   22.9173 C   0  0  0  0  0  0  0  0  0  0  0  0
    8.0395    0.9604   22.7332 N   0  0  0  0  0  0  0  0  0  0  0  0
    8.3671    0.2779   21.5752 C   0  0  0  0  0  0  0  0  0  0  0  0
    7.4116   -0.6980   20.9437 C   0  0  0  0  0  0  0  0  0  0  0  0
    6.6396   -0.0408   19.8176 C   0  0  0  0  0  0  0  0  0  0  0  0
    5.4411    0.6169   20.0967 C   0  0  0  0  0  0  0  0  0  0  0  0
    4.8139    1.2900   19.0500 C   0  0  0  0  0  0  0  0  0  0  0  0
    5.3906    1.2941   17.7744 C   0  0  0  0  0  0  0  0  0  0  0  0
    6.5359    0.6465   17.4957 N   0  0  0  0  0  0  0  0  0  0  0  0
    7.1453   -0.0034   18.5023 C   0  0  0  0  0  0  0  0  0  0  0  0
    8.0912   -0.4949   18.2979 H   0  0  0  0  0  0  0  0  0  0  0  0
    4.8995    1.8469   16.9807 H   0  0  0  0  0  0  0  0  0  0  0  0
    3.8945    1.8390   19.2156 H   0  0  0  0  0  0  0  0  0  0  0  0
    5.0269    0.6295   21.1063 H   0  0  0  0  0  0  0  0  0  0  0  0
    7.9553   -1.5733   20.5805 H   0  0  0  0  0  0  0  0  0  0  0  0
    6.7180   -1.0395   21.7151 H   0  0  0  0  0  0  0  0  0  0  0  0
    9.5459    0.5708   21.0752 N   0  0  0  0  0  0  0  0  0  0  0  0
   10.0295    1.4906   21.9431 N   0  0  0  0  0  0  0  0  0  0  0  0
   11.4471    1.9118   21.9855 C   0  0  0  0  0  0  0  0  0  0  0  0
   12.4967    0.8247   22.2380 C   0  0  0  0  0  0  0  0  0  0  0  0
   12.1546    1.8163   23.3371 C   0  0  0  0  0  0  0  0  0  0  0  0
   11.5781    1.4320   24.1834 H   0  0  0  0  0  0  0  0  0  0  0  0
   12.8926    2.5901   23.5767 H   0  0  0  0  0  0  0  0  0  0  0  0
   13.4796    0.9326   21.7804 H   0  0  0  0  0  0  0  0  0  0  0  0
   12.1510   -0.2115   22.3311 H   0  0  0  0  0  0  0  0  0  0  0  0
   11.7198    2.7452   21.3211 H   0  0  0  0  0  0  0  0  0  0  0  0
    8.4360    2.6043   25.2723 C   0  0  0  0  0  0  0  0  0  0  0  0
    8.4712    3.6248   26.2154 C   0  0  0  0  0  0  0  0  0  0  0  0
    9.1723    4.8045   25.9487 N   0  0  0  0  0  0  0  0  0  0  0  0
    9.3201    5.8591   26.8067 N   0  0  0  0  0  0  0  0  0  0  0  0
   10.2571    6.6052   26.2575 C   0  0  0  0  0  0  0  0  0  0  0  0
   10.6213    7.5460   26.6559 H   0  0  0  0  0  0  0  0  0  0  0  0
    8.0195    3.5102   27.1952 H   0  0  0  0  0  0  0  0  0  0  0  0
    7.8959    1.6851   25.5121 H   0  0  0  0  0  0  0  0  0  0  0  0
   10.4159    4.1084   22.8221 H   0  0  0  0  0  0  0  0  0  0  0  0
  1  2  1  0
  2  3  2  0
  3  4  1  0
  4  5  2  0
  5  6  1  0
  6  7  2  0
  7  8  1  0
  8  9  1  0
  9 10  1  0
 10 11  2  0
 11 12  1  0
 12 13  2  0
 13 14  1  0
 14 15  2  0
 15 16  1  0
 13 17  1  0
 12 18  1  0
 11 19  1  0
  9 20  1  0
  9 21  1  0
  8 22  2  0
 22 23  1  0
 23 24  1  0
 24 25  1  0
 25 26  1  0
 26 27  1  0
 26 28  1  0
 25 29  1  0
 25 30  1  0
 24 31  1  0
  5 32  1  0
 32 33  2  0
 33 34  1  0
 34 35  1  0
 35 36  2  0
 36 37  1  0
 33 38  1  0
 32 39  1  0
  4 40  1  0
 36  2  1  0
 34  3  1  0
 23  6  1  0
 26 24  1  0
 15 10  1  0
M  END
>  <cnnaffinity>  (1) 
-6.00653

>  <filename>  (1) 
Brc1cnn2ccc(-c3nc(Cc4cccnc4)nn3C3CC3)cc12

$$$$
