
     RDKit          3D

 30 33  0  0  0  0  0  0  0  0999 V2000
    4.9433    1.7750   16.9514 H   0  0  0  0  0  0  0  0  0  0  0  0
    5.4293    1.2844   17.7935 C   0  0  0  0  0  0  0  0  0  0  0  0
    6.5695    0.6006   17.5883 N   0  0  0  0  0  0  0  0  0  0  0  0
    7.1559    0.0179   18.6467 C   0  0  0  0  0  0  0  0  0  0  0  0
    8.0692   -0.5357   18.4742 H   0  0  0  0  0  0  0  0  0  0  0  0
    6.6605    0.0951   19.9538 C   0  0  0  0  0  0  0  0  0  0  0  0
    7.3943   -0.5513   21.0394 C   0  0  0  0  0  0  0  0  0  0  0  0
    8.3570   -1.5231   20.8328 C   0  0  0  0  0  0  0  0  0  0  0  0
    8.6833   -1.8028   19.8381 H   0  0  0  0  0  0  0  0  0  0  0  0
    9.0328   -2.1799   22.3422 S   0  0  0  0  0  0  0  0  0  0  0  0
    8.1063   -0.9664   23.1956 C   0  0  0  0  0  0  0  0  0  0  0  0
    8.1225   -0.5210   24.4134 N   0  0  0  0  0  0  0  0  0  0  0  0
    7.2788    0.5912   24.2899 C   0  0  0  0  0  0  0  0  0  0  0  0
    7.0597    1.5442   25.3936 C   0  0  0  0  0  0  0  0  0  0  0  0
    6.3173    2.7170   25.1703 C   0  0  0  0  0  0  0  0  0  0  0  0
    5.9252    2.9337   24.1793 H   0  0  0  0  0  0  0  0  0  0  0  0
    6.0647    3.6140   26.2097 C   0  0  0  0  0  0  0  0  0  0  0  0
    5.4837    4.5092   26.0122 H   0  0  0  0  0  0  0  0  0  0  0  0
    6.5309    3.3447   27.4991 C   0  0  0  0  0  0  0  0  0  0  0  0
    6.3046    4.0249   28.3152 H   0  0  0  0  0  0  0  0  0  0  0  0
    7.2740    2.1847   27.7423 C   0  0  0  0  0  0  0  0  0  0  0  0
    7.8250    1.7375   29.5154 Br  0  0  0  0  0  0  0  0  0  0  0  0
    7.5668    1.3116   26.6890 C   0  0  0  0  0  0  0  0  0  0  0  0
    8.1718    0.4345   26.9053 H   0  0  0  0  0  0  0  0  0  0  0  0
    6.7326    0.7607   23.0940 N   0  0  0  0  0  0  0  0  0  0  0  0
    7.2713   -0.2605   22.3957 N   0  0  0  0  0  0  0  0  0  0  0  0
    5.4628    0.7792   20.1699 C   0  0  0  0  0  0  0  0  0  0  0  0
    5.0198    0.8435   21.1663 H   0  0  0  0  0  0  0  0  0  0  0  0
    4.8396    1.3638   19.0627 C   0  0  0  0  0  0  0  0  0  0  0  0
    3.9001    1.8917   19.1711 H   0  0  0  0  0  0  0  0  0  0  0  0
  1  2  1  0
  2  3  2  0
  3  4  1  0
  4  5  1  0
  4  6  2  0
  6  7  1  0
  7  8  2  0
  8  9  1  0
  8 10  1  0
 10 11  1  0
 11 12  2  0
 12 13  1  0
 13 14  1  0
 14 15  2  0
 15 16  1  0
 15 17  1  0
 17 18  1  0
 17 19  2  0
 19 20  1  0
 19 21  1  0
 21 22  1  0
 21 23  2  0
 23 24  1  0
 13 25  2  0
 25 26  1  0
  6 27  1  0
 27 28  1  0
 27 29  2  0
 29 30  1  0
 29  2  1  0
 26  7  1  0
 26 11  1  0
 23 14  1  0
M  END
>  <cnnaffinity>  (1) 
-5.18504

>  <filename>  (1) 
Brc1cccc(-c2nc3scc(-c4cccnc4)n3n2)c1

$$$$
