
     RDKit          3D

 27 29  0  0  0  0  0  0  0  0999 V2000
    4.8950    1.9696   16.5539 H   0  0  0  0  0  0  0  0  0  0  0  0
    5.3403    1.4344   17.3849 C   0  0  0  0  0  0  0  0  0  0  0  0
    6.4640    0.7319   17.1666 N   0  0  0  0  0  0  0  0  0  0  0  0
    7.0303    0.1099   18.2089 C   0  0  0  0  0  0  0  0  0  0  0  0
    7.9502   -0.4373   18.0235 H   0  0  0  0  0  0  0  0  0  0  0  0
    6.5098    0.1617   19.5028 C   0  0  0  0  0  0  0  0  0  0  0  0
    7.2812   -0.4383   20.5793 C   0  0  0  0  0  0  0  0  0  0  0  0
    6.9110   -0.3469   21.9088 N   0  0  0  0  0  0  0  0  0  0  0  0
    7.8042   -0.8968   22.7023 C   0  0  0  0  0  0  0  0  0  0  0  0
    7.6485   -0.9767   24.1651 C   0  0  0  0  0  0  0  0  0  0  0  0
    6.9549    0.0126   24.8878 C   0  0  0  0  0  0  0  0  0  0  0  0
    6.4566    0.8405   24.3894 H   0  0  0  0  0  0  0  0  0  0  0  0
    6.8835   -0.0495   26.2838 C   0  0  0  0  0  0  0  0  0  0  0  0
    6.4112    0.7368   26.8614 H   0  0  0  0  0  0  0  0  0  0  0  0
    7.4012   -1.1504   26.9635 C   0  0  0  0  0  0  0  0  0  0  0  0
    7.3032   -1.2208   28.0389 H   0  0  0  0  0  0  0  0  0  0  0  0
    8.0332   -2.1749   26.2625 C   0  0  0  0  0  0  0  0  0  0  0  0
    8.6917   -3.7264   27.1679 Br  0  0  0  0  0  0  0  0  0  0  0  0
    8.1927   -2.0628   24.8793 C   0  0  0  0  0  0  0  0  0  0  0  0
    8.7293   -2.8544   24.3673 H   0  0  0  0  0  0  0  0  0  0  0  0
    9.1985   -1.5752   21.8698 S   0  0  0  0  0  0  0  0  0  0  0  0
    8.4741   -1.0736   20.3667 C   0  0  0  0  0  0  0  0  0  0  0  0
    8.9158   -1.2230   19.3892 H   0  0  0  0  0  0  0  0  0  0  0  0
    5.3128    0.8534   19.7272 C   0  0  0  0  0  0  0  0  0  0  0  0
    4.8618    0.9157   20.7179 H   0  0  0  0  0  0  0  0  0  0  0  0
    4.7342    1.5038   18.6407 C   0  0  0  0  0  0  0  0  0  0  0  0
    3.8314    2.0901   18.7572 H   0  0  0  0  0  0  0  0  0  0  0  0
  1  2  1  0
  2  3  2  0
  3  4  1  0
  4  5  1  0
  4  6  2  0
  6  7  1  0
  7  8  1  0
  8  9  2  0
  9 10  1  0
 10 11  2  0
 11 12  1  0
 11 13  1  0
 13 14  1  0
 13 15  2  0
 15 16  1  0
 15 17  1  0
 17 18  1  0
 17 19  2  0
 19 20  1  0
  9 21  1  0
 21 22  1  0
 22 23  1  0
  6 24  1  0
 24 25  1  0
 24 26  2  0
 26 27  1  0
 26  2  1  0
 22  7  2  0
 19 10  1  0
M  END
>  <cnnaffinity>  (1) 
-4.82673

>  <filename>  (1) 
Brc1cccc(-c2nc(-c3cccnc3)cs2)c1

$$$$
