
     RDKit          3D

 38 41  0  0  0  0  0  0  0  0999 V2000
   10.2229    1.8594   25.5845 Br  0  0  0  0  0  0  0  0  0  0  0  0
    8.7958    3.1099   25.2636 C   0  0  0  0  0  0  0  0  0  0  0  0
    8.6711    4.2901   26.0141 C   0  0  0  0  0  0  0  0  0  0  0  0
    7.5951    5.1575   25.7968 C   0  0  0  0  0  0  0  0  0  0  0  0
    6.6323    4.8418   24.8358 C   0  0  0  0  0  0  0  0  0  0  0  0
    6.7588    3.6724   24.0799 C   0  0  0  0  0  0  0  0  0  0  0  0
    7.8427    2.8112   24.2797 C   0  0  0  0  0  0  0  0  0  0  0  0
    8.0275    1.6659   23.5448 O   0  0  0  0  0  0  0  0  0  0  0  0
    6.9303    1.1417   22.7776 C   0  0  0  0  0  0  0  0  0  0  0  0
    7.2772   -0.2378   22.2614 C   0  0  0  0  0  0  0  0  0  0  0  0
    7.7037   -1.2279   22.9932 N   0  0  0  0  0  0  0  0  0  0  0  0
    8.0154   -2.1990   22.0608 C   0  0  0  0  0  0  0  0  0  0  0  0
    8.6596   -3.4877   22.4967 C   0  0  0  0  0  0  0  0  0  0  0  0
    8.1135   -4.2818   23.6870 C   0  0  0  0  0  0  0  0  0  0  0  0
    7.9804   -4.8383   22.2669 C   0  0  0  0  0  0  0  0  0  0  0  0
    6.9864   -4.8441   21.8106 H   0  0  0  0  0  0  0  0  0  0  0  0
    8.6045   -5.6981   22.0013 H   0  0  0  0  0  0  0  0  0  0  0  0
    7.2199   -3.8998   24.1911 H   0  0  0  0  0  0  0  0  0  0  0  0
    8.8235   -4.7697   24.3632 H   0  0  0  0  0  0  0  0  0  0  0  0
    9.7446   -3.4376   22.4150 H   0  0  0  0  0  0  0  0  0  0  0  0
    7.7726   -1.8704   20.8123 N   0  0  0  0  0  0  0  0  0  0  0  0
    7.2562   -0.6218   20.9260 N   0  0  0  0  0  0  0  0  0  0  0  0
    6.6763    0.0925   19.8686 C   0  0  0  0  0  0  0  0  0  0  0  0
    5.6227    0.9883   20.0948 C   0  0  0  0  0  0  0  0  0  0  0  0
    5.0207    1.5842   18.9862 C   0  0  0  0  0  0  0  0  0  0  0  0
    5.4824    1.2847   17.7009 C   0  0  0  0  0  0  0  0  0  0  0  0
    6.5295    0.4679   17.4799 N   0  0  0  0  0  0  0  0  0  0  0  0
    7.1142   -0.1095   18.5495 C   0  0  0  0  0  0  0  0  0  0  0  0
    7.9742   -0.7511   18.3870 H   0  0  0  0  0  0  0  0  0  0  0  0
    4.9698    1.7187   16.8487 H   0  0  0  0  0  0  0  0  0  0  0  0
    4.1890    2.2708   19.1114 H   0  0  0  0  0  0  0  0  0  0  0  0
    5.2568    1.1926   21.1000 H   0  0  0  0  0  0  0  0  0  0  0  0
    6.0351    1.0772   23.4020 H   0  0  0  0  0  0  0  0  0  0  0  0
    6.7362    1.8075   21.9326 H   0  0  0  0  0  0  0  0  0  0  0  0
    6.0239    3.4125   23.3267 H   0  0  0  0  0  0  0  0  0  0  0  0
    5.7910    5.5063   24.6745 H   0  0  0  0  0  0  0  0  0  0  0  0
    7.5005    6.0733   26.3742 H   0  0  0  0  0  0  0  0  0  0  0  0
    9.4089    4.5290   26.7706 H   0  0  0  0  0  0  0  0  0  0  0  0
  1  2  1  0
  2  3  2  0
  3  4  1  0
  4  5  2  0
  5  6  1  0
  6  7  2  0
  7  8  1  0
  8  9  1  0
  9 10  1  0
 10 11  2  0
 11 12  1  0
 12 13  1  0
 13 14  1  0
 14 15  1  0
 15 16  1  0
 15 17  1  0
 14 18  1  0
 14 19  1  0
 13 20  1  0
 12 21  2  0
 21 22  1  0
 22 23  1  0
 23 24  2  0
 24 25  1  0
 25 26  2  0
 26 27  1  0
 27 28  2  0
 28 29  1  0
 26 30  1  0
 25 31  1  0
 24 32  1  0
  9 33  1  0
  9 34  1  0
  6 35  1  0
  5 36  1  0
  4 37  1  0
  3 38  1  0
  7  2  1  0
 22 10  1  0
 28 23  1  0
 15 13  1  0
M  END
>  <cnnaffinity>  (1) 
-5.82433

>  <filename>  (1) 
Brc1ccccc1OCc1nc(C2CC2)nn1-c1cccnc1

$$$$
