
     RDKit          3D

 20 21  0  0  0  0  0  0  0  0999 V2000
    4.8954    1.7747   17.0138 H   0  0  0  0  0  0  0  0  0  0  0  0
    5.3969    1.2930   17.8430 C   0  0  0  0  0  0  0  0  0  0  0  0
    6.5669    0.6842   17.5882 N   0  0  0  0  0  0  0  0  0  0  0  0
    7.1928    0.0618   18.6010 C   0  0  0  0  0  0  0  0  0  0  0  0
    8.1355   -0.4411   18.3901 H   0  0  0  0  0  0  0  0  0  0  0  0
    6.6609    0.0097   19.9009 C   0  0  0  0  0  0  0  0  0  0  0  0
    7.3768   -0.6972   20.9677 C   0  0  0  0  0  0  0  0  0  0  0  0
    6.6937   -1.5231   21.8734 C   0  0  0  0  0  0  0  0  0  0  0  0
    5.6190   -1.6596   21.7653 H   0  0  0  0  0  0  0  0  0  0  0  0
    7.3363   -2.1855   22.8585 N   0  0  0  0  0  0  0  0  0  0  0  0
    8.6718   -2.0462   22.9963 C   0  0  0  0  0  0  0  0  0  0  0  0
    9.1820   -2.5783   23.7978 H   0  0  0  0  0  0  0  0  0  0  0  0
    9.4197   -1.2372   22.1329 C   0  0  0  0  0  0  0  0  0  0  0  0
   11.3144   -1.0564   22.3526 Br  0  0  0  0  0  0  0  0  0  0  0  0
    8.7615   -0.5590   21.1067 C   0  0  0  0  0  0  0  0  0  0  0  0
    9.3300    0.0837   20.4422 H   0  0  0  0  0  0  0  0  0  0  0  0
    5.4436    0.6450   20.1569 C   0  0  0  0  0  0  0  0  0  0  0  0
    5.0118    0.6282   21.1535 H   0  0  0  0  0  0  0  0  0  0  0  0
    4.8092    1.3111   19.1116 C   0  0  0  0  0  0  0  0  0  0  0  0
    3.8763    1.8414   19.2681 H   0  0  0  0  0  0  0  0  0  0  0  0
  1  2  1  0
  2  3  2  0
  3  4  1  0
  4  5  1  0
  4  6  2  0
  6  7  1  0
  7  8  2  0
  8  9  1  0
  8 10  1  0
 10 11  2  0
 11 12  1  0
 11 13  1  0
 13 14  1  0
 13 15  2  0
 15 16  1  0
  6 17  1  0
 17 18  1  0
 17 19  2  0
 19 20  1  0
 19  2  1  0
 15  7  1  0
M  END
>  <cnnaffinity>  (1) 
-4.67

>  <filename>  (1) 
Brc1cncc(-c2cccnc2)c1

$$$$
