
     RDKit          3D

 40 44  0  0  0  0  0  0  0  0999 V2000
   11.0230   -1.1877   22.0935 Br  0  0  0  0  0  0  0  0  0  0  0  0
   12.0831    0.3640   22.4623 C   0  0  0  0  0  0  0  0  0  0  0  0
   13.4501    0.2486   22.5928 C   0  0  0  0  0  0  0  0  0  0  0  0
   14.2717    1.4464   22.7661 C   0  0  0  0  0  0  0  0  0  0  0  0
   13.6920    2.6978   22.8315 C   0  0  0  0  0  0  0  0  0  0  0  0
   12.3151    2.8214   22.7379 N   0  0  0  0  0  0  0  0  0  0  0  0
   11.6353    4.0014   22.7513 N   0  0  0  0  0  0  0  0  0  0  0  0
   10.3828    3.6533   22.5861 C   0  0  0  0  0  0  0  0  0  0  0  0
   10.2482    2.2230   22.5055 C   0  0  0  0  0  0  0  0  0  0  0  0
    9.0123    1.5043   22.3711 C   0  0  0  0  0  0  0  0  0  0  0  0
    8.8702    0.6108   21.4458 N   0  0  0  0  0  0  0  0  0  0  0  0
    7.5724    0.1846   21.6357 C   0  0  0  0  0  0  0  0  0  0  0  0
    6.9840   -0.8378   20.7042 C   0  0  0  0  0  0  0  0  0  0  0  0
    6.3652   -0.1668   19.4920 C   0  0  0  0  0  0  0  0  0  0  0  0
    5.2544    0.6628   19.6493 C   0  0  0  0  0  0  0  0  0  0  0  0
    4.7542    1.3087   18.5209 C   0  0  0  0  0  0  0  0  0  0  0  0
    5.3730    1.1293   17.2824 C   0  0  0  0  0  0  0  0  0  0  0  0
    6.4367    0.3253   17.1232 N   0  0  0  0  0  0  0  0  0  0  0  0
    6.9210   -0.3086   18.2059 C   0  0  0  0  0  0  0  0  0  0  0  0
    7.8008   -0.9334   18.0790 H   0  0  0  0  0  0  0  0  0  0  0  0
    4.9833    1.6603   16.4206 H   0  0  0  0  0  0  0  0  0  0  0  0
    3.8985    1.9683   18.5904 H   0  0  0  0  0  0  0  0  0  0  0  0
    4.8120    0.8179   20.6317 H   0  0  0  0  0  0  0  0  0  0  0  0
    6.2393   -1.4274   21.2415 H   0  0  0  0  0  0  0  0  0  0  0  0
    7.7777   -1.5184   20.3861 H   0  0  0  0  0  0  0  0  0  0  0  0
    6.9303    0.7505   22.6340 N   0  0  0  0  0  0  0  0  0  0  0  0
    7.8428    1.6374   23.1101 N   0  0  0  0  0  0  0  0  0  0  0  0
    7.5847    2.5948   24.2073 C   0  0  0  0  0  0  0  0  0  0  0  0
    8.7623    3.2627   24.9260 C   0  0  0  0  0  0  0  0  0  0  0  0
    7.9149    2.2362   25.6596 C   0  0  0  0  0  0  0  0  0  0  0  0
    7.2446    2.6132   26.4386 H   0  0  0  0  0  0  0  0  0  0  0  0
    8.3488    1.2514   25.8592 H   0  0  0  0  0  0  0  0  0  0  0  0
    8.6496    4.3144   25.2083 H   0  0  0  0  0  0  0  0  0  0  0  0
    9.7770    2.9627   24.6575 H   0  0  0  0  0  0  0  0  0  0  0  0
    6.6968    3.2115   24.0334 H   0  0  0  0  0  0  0  0  0  0  0  0
   11.5027    1.7105   22.5531 C   0  0  0  0  0  0  0  0  0  0  0  0
    9.5619    4.3571   22.4987 H   0  0  0  0  0  0  0  0  0  0  0  0
   14.2878    3.5980   22.8982 H   0  0  0  0  0  0  0  0  0  0  0  0
   15.3463    1.3648   22.7405 H   0  0  0  0  0  0  0  0  0  0  0  0
   13.9186   -0.7252   22.5200 H   0  0  0  0  0  0  0  0  0  0  0  0
  1  2  1  0
  2  3  2  0
  3  4  1  0
  4  5  2  0
  5  6  1  0
  6  7  1  0
  7  8  2  0
  8  9  1  0
  9 10  1  0
 10 11  2  0
 11 12  1  0
 12 13  1  0
 13 14  1  0
 14 15  2  0
 15 16  1  0
 16 17  2  0
 17 18  1  0
 18 19  2  0
 19 20  1  0
 17 21  1  0
 16 22  1  0
 15 23  1  0
 13 24  1  0
 13 25  1  0
 12 26  2  0
 26 27  1  0
 27 28  1  0
 28 29  1  0
 29 30  1  0
 30 31  1  0
 30 32  1  0
 29 33  1  0
 29 34  1  0
 28 35  1  0
  9 36  2  0
  8 37  1  0
  5 38  1  0
  4 39  1  0
  3 40  1  0
 36  2  1  0
 36  6  1  0
 27 10  1  0
 30 28  1  0
 19 14  1  0
M  END
>  <cnnaffinity>  (1) 
-6.28732

>  <filename>  (1) 
Brc1cccn2ncc(-c3nc(Cc4cccnc4)nn3C3CC3)c12

$$$$
