
     RDKit          3D

 35 37  0  0  0  0  0  0  0  0999 V2000
    8.4399   -5.9742   23.5942 Br  0  0  0  0  0  0  0  0  0  0  0  0
    8.1489   -5.4913   25.4260 C   0  0  0  0  0  0  0  0  0  0  0  0
    9.1294   -5.7522   26.3061 N   0  0  0  0  0  0  0  0  0  0  0  0
    8.9550   -5.4474   27.6032 C   0  0  0  0  0  0  0  0  0  0  0  0
    7.7492   -4.9076   28.0573 C   0  0  0  0  0  0  0  0  0  0  0  0
    6.7297   -4.6077   27.1635 C   0  0  0  0  0  0  0  0  0  0  0  0
    6.9481   -4.8732   25.8124 C   0  0  0  0  0  0  0  0  0  0  0  0
    5.9498   -4.4409   24.7900 C   0  0  0  0  0  0  0  0  0  0  0  0
    6.7465   -3.7977   23.7326 N   0  0  0  0  0  4  0  0  0  0  0  0
    6.9873   -2.3437   23.9830 C   0  0  0  0  0  0  0  0  0  0  0  0
    7.5568   -1.6542   22.7688 C   0  0  0  0  0  0  0  0  0  0  0  0
    6.8006   -0.8874   22.0236 N   0  0  0  0  0  0  0  0  0  0  0  0
    7.4414   -0.5441   20.8499 C   0  0  0  0  0  0  0  0  0  0  0  0
    6.7333    0.1540   19.8002 C   0  0  0  0  0  0  0  0  0  0  0  0
    5.4834    0.7437   20.0198 C   0  0  0  0  0  0  0  0  0  0  0  0
    4.8625    1.3559   18.9385 C   0  0  0  0  0  0  0  0  0  0  0  0
    5.4857    1.3552   17.6884 C   0  0  0  0  0  0  0  0  0  0  0  0
    6.6795    0.7692   17.4800 N   0  0  0  0  0  0  0  0  0  0  0  0
    7.2878    0.1887   18.5222 C   0  0  0  0  0  0  0  0  0  0  0  0
    8.2467   -0.2937   18.3542 H   0  0  0  0  0  0  0  0  0  0  0  0
    4.9872    1.8418   16.8568 H   0  0  0  0  0  0  0  0  0  0  0  0
    3.9010    1.8417   19.0552 H   0  0  0  0  0  0  0  0  0  0  0  0
    5.0093    0.7270   21.0020 H   0  0  0  0  0  0  0  0  0  0  0  0
    8.7196   -1.0197   20.7359 C   0  0  0  0  0  0  0  0  0  0  0  0
    9.1646   -1.9640   22.1351 S   0  0  0  0  0  0  0  0  0  0  0  0
    9.3440   -0.8680   19.8640 H   0  0  0  0  0  0  0  0  0  0  0  0
    6.0480   -1.8358   24.2308 H   0  0  0  0  0  0  0  0  0  0  0  0
    7.6693   -2.2003   24.8295 H   0  0  0  0  0  0  0  0  0  0  0  0
    6.2540   -3.9037   22.8420 H   0  0  0  0  0  0  0  0  0  0  0  0
    7.6424   -4.2862   23.6676 H   0  0  0  0  0  0  0  0  0  0  0  0
    5.2289   -3.7413   25.2335 H   0  0  0  0  0  0  0  0  0  0  0  0
    5.3836   -5.3004   24.4088 H   0  0  0  0  0  0  0  0  0  0  0  0
    5.8060   -4.1563   27.5230 H   0  0  0  0  0  0  0  0  0  0  0  0
    7.5747   -4.7449   29.1078 H   0  0  0  0  0  0  0  0  0  0  0  0
    9.7533   -5.6165   28.3242 H   0  0  0  0  0  0  0  0  0  0  0  0
  1  2  1  0
  2  3  2  0
  3  4  1  0
  4  5  2  0
  5  6  1  0
  6  7  2  0
  7  8  1  0
  8  9  1  0
  9 10  1  0
 10 11  1  0
 11 12  2  0
 12 13  1  0
 13 14  1  0
 14 15  2  0
 15 16  1  0
 16 17  2  0
 17 18  1  0
 18 19  2  0
 19 20  1  0
 17 21  1  0
 16 22  1  0
 15 23  1  0
 13 24  2  0
 24 25  1  0
 24 26  1  0
 10 27  1  0
 10 28  1  0
  9 29  1  0
  9 30  1  0
  8 31  1  0
  8 32  1  0
  6 33  1  0
  5 34  1  0
  4 35  1  0
  7  2  1  0
 25 11  1  0
 19 14  1  0
M  CHG  1   9   1
M  END
>  <cnnaffinity>  (1) 
-5.45693

>  <filename>  (1) 
Brc1ncccc1C[NH2+]Cc1nc(-c2cccnc2)cs1

$$$$
