
     RDKit          3D

 31 33  0  0  0  0  0  0  0  0999 V2000
    6.0674   -5.1110   19.8772 Br  0  0  0  0  0  0  0  0  0  0  0  0
    6.2534   -5.2048   21.7790 C   0  0  0  0  0  0  0  0  0  0  0  0
    5.3619   -5.9556   22.4390 N   0  0  0  0  0  0  0  0  0  0  0  0
    5.5156   -6.1128   23.7592 C   0  0  0  0  0  0  0  0  0  0  0  0
    6.5477   -5.5132   24.4823 C   0  0  0  0  0  0  0  0  0  0  0  0
    7.4646   -4.7027   23.8165 C   0  0  0  0  0  0  0  0  0  0  0  0
    7.3026   -4.5441   22.4317 C   0  0  0  0  0  0  0  0  0  0  0  0
    8.2332   -3.7075   21.6117 C   0  0  0  0  0  0  0  0  0  0  0  0
    7.5072   -2.5474   21.0987 N   0  0  0  0  0  0  0  0  0  0  0  0
    7.5453   -1.3579   21.8043 C   0  0  0  0  0  0  0  0  0  0  0  0
    7.9915   -1.2512   23.0280 N   0  0  0  0  0  0  0  0  0  0  0  0
    7.8561    0.0588   23.4177 N   0  0  0  0  0  0  0  0  0  0  0  0
    7.3187    0.7180   22.4187 C   0  0  0  0  0  0  0  0  0  0  0  0
    7.1141   -0.1315   21.3436 N   0  0  0  0  0  0  0  0  0  0  0  0
    6.5392    0.2219   20.1030 C   0  0  0  0  0  0  0  0  0  0  0  0
    5.4066    1.0312   20.1223 C   0  0  0  0  0  0  0  0  0  0  0  0
    4.8547    1.4347   18.9056 C   0  0  0  0  0  0  0  0  0  0  0  0
    5.4490    1.0328   17.7044 C   0  0  0  0  0  0  0  0  0  0  0  0
    6.5275    0.2292   17.6616 N   0  0  0  0  0  0  0  0  0  0  0  0
    7.0497   -0.1786   18.8405 C   0  0  0  0  0  0  0  0  0  0  0  0
    7.9112   -0.8371   18.8237 H   0  0  0  0  0  0  0  0  0  0  0  0
    5.0278    1.3863   16.7692 H   0  0  0  0  0  0  0  0  0  0  0  0
    3.9711    2.0636   18.8770 H   0  0  0  0  0  0  0  0  0  0  0  0
    4.9638    1.3227   21.0736 H   0  0  0  0  0  0  0  0  0  0  0  0
    7.1045    1.7878   22.4390 H   0  0  0  0  0  0  0  0  0  0  0  0
    7.2531   -2.4972   20.1135 H   0  0  0  0  0  0  0  0  0  0  0  0
    9.1091   -3.4032   22.2033 H   0  0  0  0  0  0  0  0  0  0  0  0
    8.5782   -4.2915   20.7574 H   0  0  0  0  0  0  0  0  0  0  0  0
    8.2854   -4.2335   24.3589 H   0  0  0  0  0  0  0  0  0  0  0  0
    6.6179   -5.6912   25.5518 H   0  0  0  0  0  0  0  0  0  0  0  0
    4.8076   -6.7465   24.2744 H   0  0  0  0  0  0  0  0  0  0  0  0
  1  2  1  0
  2  3  2  0
  3  4  1  0
  4  5  2  0
  5  6  1  0
  6  7  2  0
  7  8  1  0
  8  9  1  0
  9 10  1  0
 10 11  2  0
 11 12  1  0
 12 13  2  0
 13 14  1  0
 14 15  1  0
 15 16  2  0
 16 17  1  0
 17 18  2  0
 18 19  1  0
 19 20  2  0
 20 21  1  0
 18 22  1  0
 17 23  1  0
 16 24  1  0
 13 25  1  0
  9 26  1  0
  8 27  1  0
  8 28  1  0
  6 29  1  0
  5 30  1  0
  4 31  1  0
  7  2  1  0
 14 10  1  0
 20 15  1  0
M  END
>  <cnnaffinity>  (1) 
-4.88449

>  <filename>  (1) 
Brc1ncccc1CNc1nncn1-c1cccnc1

$$$$
