
     RDKit          3D

 31 33  0  0  0  0  0  0  0  0999 V2000
    4.9627    1.8641   16.9565 H   0  0  0  0  0  0  0  0  0  0  0  0
    5.4376    1.3319   17.7764 C   0  0  0  0  0  0  0  0  0  0  0  0
    6.5999    0.6923   17.5514 N   0  0  0  0  0  0  0  0  0  0  0  0
    7.1761    0.0586   18.5943 C   0  0  0  0  0  0  0  0  0  0  0  0
    8.1116   -0.4621   18.4234 H   0  0  0  0  0  0  0  0  0  0  0  0
    6.6135    0.0278   19.8811 C   0  0  0  0  0  0  0  0  0  0  0  0
    7.2817   -0.7251   20.9970 C   0  0  0  0  0  0  0  0  0  0  0  0
    6.7541   -2.1499   21.2110 C   0  0  0  0  0  0  0  0  0  0  0  0
    6.9109   -2.7347   20.2995 H   0  0  0  0  0  0  0  0  0  0  0  0
    5.6757   -2.0903   21.3991 H   0  0  0  0  0  0  0  0  0  0  0  0
    7.4352   -2.8435   22.3655 C   0  0  0  0  0  0  0  0  0  0  0  0
    6.7306   -3.1198   23.5455 C   0  0  0  0  0  0  0  0  0  0  0  0
    5.6927   -2.8068   23.6103 H   0  0  0  0  0  0  0  0  0  0  0  0
    7.3622   -3.7610   24.6195 C   0  0  0  0  0  0  0  0  0  0  0  0
    6.7981   -3.9793   25.5264 H   0  0  0  0  0  0  0  0  0  0  0  0
    8.7133   -4.1208   24.5125 C   0  0  0  0  0  0  0  0  0  0  0  0
    9.5878   -5.0897   25.8992 Br  0  0  0  0  0  0  0  0  0  0  0  0
    9.4286   -3.8047   23.3527 C   0  0  0  0  0  0  0  0  0  0  0  0
   10.4852   -4.0404   23.3042 H   0  0  0  0  0  0  0  0  0  0  0  0
    8.7947   -3.1730   22.2846 C   0  0  0  0  0  0  0  0  0  0  0  0
    9.3744   -2.9278   21.3975 H   0  0  0  0  0  0  0  0  0  0  0  0
    7.6887    0.0735   22.2287 C   0  0  0  0  0  0  0  0  0  0  0  0
    7.4377    1.1384   22.2597 H   0  0  0  0  0  0  0  0  0  0  0  0
    7.6255   -0.4465   23.1906 H   0  0  0  0  0  0  0  0  0  0  0  0
    8.7510   -0.3901   21.2300 C   0  0  0  0  0  0  0  0  0  0  0  0
    9.2199    0.3671   20.5958 H   0  0  0  0  0  0  0  0  0  0  0  0
    9.4230   -1.1889   21.5400 H   0  0  0  0  0  0  0  0  0  0  0  0
    5.4042    0.6811   20.1057 C   0  0  0  0  0  0  0  0  0  0  0  0
    4.9438    0.6688   21.0932 H   0  0  0  0  0  0  0  0  0  0  0  0
    4.8114    1.3464   19.0312 C   0  0  0  0  0  0  0  0  0  0  0  0
    3.8765    1.8807   19.1593 H   0  0  0  0  0  0  0  0  0  0  0  0
  1  2  1  0
  2  3  2  0
  3  4  1  0
  4  5  1  0
  4  6  2  0
  6  7  1  0
  7  8  1  0
  8  9  1  0
  8 10  1  0
  8 11  1  0
 11 12  2  0
 12 13  1  0
 12 14  1  0
 14 15  1  0
 14 16  2  0
 16 17  1  0
 16 18  1  0
 18 19  1  0
 18 20  2  0
 20 21  1  0
  7 22  1  0
 22 23  1  0
 22 24  1  0
 22 25  1  0
 25 26  1  0
 25 27  1  0
  6 28  1  0
 28 29  1  0
 28 30  2  0
 30 31  1  0
 30  2  1  0
 25  7  1  0
 20 11  1  0
M  END
>  <cnnaffinity>  (1) 
-4.78395

>  <filename>  (1) 
Brc1ccc(CC2(c3cccnc3)CC2)cc1

$$$$
