
     RDKit          3D

 29 31  0  0  0  0  0  0  0  0999 V2000
   13.5634    2.0845   23.4849 Br  0  0  0  0  0  0  0  0  0  0  0  0
   12.5087    0.5135   23.2824 C   0  0  0  0  0  0  0  0  0  0  0  0
   12.7773   -0.3929   22.2626 C   0  0  0  0  0  0  0  0  0  0  0  0
   11.8834   -1.4412   22.0022 C   0  0  0  0  0  0  0  0  0  0  0  0
   10.7411   -1.6048   22.8107 C   0  0  0  0  0  0  0  0  0  0  0  0
    9.6601   -2.5623   22.4007 C   0  0  0  0  0  0  0  0  0  0  0  0
    8.4381   -1.7648   22.0866 C   0  0  0  0  0  0  0  0  0  0  0  0
    8.1871   -1.3502   20.8761 N   0  0  0  0  0  0  0  0  0  0  0  0
    7.0309   -0.6278   21.0352 C   0  0  0  0  0  0  0  0  0  0  0  0
    6.4291    0.0630   19.9215 C   0  0  0  0  0  0  0  0  0  0  0  0
    5.2321    0.7753   20.0401 C   0  0  0  0  0  0  0  0  0  0  0  0
    4.7529    1.4120   18.9006 C   0  0  0  0  0  0  0  0  0  0  0  0
    5.4682    1.3196   17.7041 C   0  0  0  0  0  0  0  0  0  0  0  0
    6.6193    0.6289   17.5990 N   0  0  0  0  0  0  0  0  0  0  0  0
    7.0934    0.0160   18.6944 C   0  0  0  0  0  0  0  0  0  0  0  0
    8.0288   -0.5300   18.5990 H   0  0  0  0  0  0  0  0  0  0  0  0
    5.0660    1.8256   16.8310 H   0  0  0  0  0  0  0  0  0  0  0  0
    3.8347    1.9890   18.9366 H   0  0  0  0  0  0  0  0  0  0  0  0
    4.6958    0.8408   20.9877 H   0  0  0  0  0  0  0  0  0  0  0  0
    6.5716   -0.6142   22.2589 N   0  0  0  0  0  0  0  0  0  0  0  0
    7.4983   -1.3851   22.9937 O   0  0  0  0  0  0  0  0  0  0  0  0
    9.4591   -3.3180   23.1688 H   0  0  0  0  0  0  0  0  0  0  0  0
    9.9547   -3.0665   21.4851 H   0  0  0  0  0  0  0  0  0  0  0  0
   10.5551   -0.7744   23.9285 C   0  0  0  0  0  0  0  0  0  0  0  0
   11.4342    0.2945   24.1404 C   0  0  0  0  0  0  0  0  0  0  0  0
   11.2814    0.9949   24.9518 H   0  0  0  0  0  0  0  0  0  0  0  0
    9.7058   -0.9233   24.5969 H   0  0  0  0  0  0  0  0  0  0  0  0
   12.0543   -2.0914   21.1462 H   0  0  0  0  0  0  0  0  0  0  0  0
   13.6673   -0.2238   21.6649 H   0  0  0  0  0  0  0  0  0  0  0  0
  1  2  1  0
  2  3  2  0
  3  4  1  0
  4  5  2  0
  5  6  1  0
  6  7  1  0
  7  8  2  0
  8  9  1  0
  9 10  1  0
 10 11  2  0
 11 12  1  0
 12 13  2  0
 13 14  1  0
 14 15  2  0
 15 16  1  0
 13 17  1  0
 12 18  1  0
 11 19  1  0
  9 20  2  0
 20 21  1  0
  6 22  1  0
  6 23  1  0
  5 24  1  0
 24 25  2  0
 25 26  1  0
 24 27  1  0
  4 28  1  0
  3 29  1  0
 25  2  1  0
 21  7  1  0
 15 10  1  0
M  END
>  <cnnaffinity>  (1) 
-5.28194

>  <filename>  (1) 
Brc1ccc(Cc2nc(-c3cccnc3)no2)cc1

$$$$
