
     RDKit          3D

 40 44  0  0  0  0  0  0  0  0999 V2000
   11.4470   -1.4323   22.2681 Br  0  0  0  0  0  0  0  0  0  0  0  0
   12.5978    0.0590   22.5775 C   0  0  0  0  0  0  0  0  0  0  0  0
   13.9110   -0.0265   22.9517 C   0  0  0  0  0  0  0  0  0  0  0  0
   14.4822    1.2251   23.0788 N   0  0  0  0  0  0  0  0  0  0  0  0
   13.5130    2.0637   22.8084 C   0  0  0  0  0  0  0  0  0  0  0  0
   13.5639    3.5234   22.7806 C   0  0  0  0  0  0  0  0  0  0  0  0
   12.3916    4.2218   22.5959 C   0  0  0  0  0  0  0  0  0  0  0  0
   11.1291    3.4918   22.4174 C   0  0  0  0  0  0  0  0  0  0  0  0
   11.1027    2.0967   22.3554 C   0  0  0  0  0  0  0  0  0  0  0  0
    9.8127    1.4024   22.2315 C   0  0  0  0  0  0  0  0  0  0  0  0
    9.5574    0.3804   21.4666 N   0  0  0  0  0  0  0  0  0  0  0  0
    8.1925    0.1794   21.6488 C   0  0  0  0  0  0  0  0  0  0  0  0
    7.4157   -0.8272   20.8323 C   0  0  0  0  0  0  0  0  0  0  0  0
    6.6633   -0.1241   19.7136 C   0  0  0  0  0  0  0  0  0  0  0  0
    5.4848    0.5580   20.0156 C   0  0  0  0  0  0  0  0  0  0  0  0
    4.8602    1.2727   18.9948 C   0  0  0  0  0  0  0  0  0  0  0  0
    5.4169    1.2847   17.7110 C   0  0  0  0  0  0  0  0  0  0  0  0
    6.5424    0.6135   17.4038 N   0  0  0  0  0  0  0  0  0  0  0  0
    7.1496   -0.0738   18.3901 C   0  0  0  0  0  0  0  0  0  0  0  0
    8.0668   -0.6043   18.1545 H   0  0  0  0  0  0  0  0  0  0  0  0
    4.9261    1.8669   16.9378 H   0  0  0  0  0  0  0  0  0  0  0  0
    3.9537    1.8353   19.1889 H   0  0  0  0  0  0  0  0  0  0  0  0
    5.0798    0.5446   21.0269 H   0  0  0  0  0  0  0  0  0  0  0  0
    8.1100   -1.5677   20.4256 H   0  0  0  0  0  0  0  0  0  0  0  0
    6.7004   -1.3501   21.4773 H   0  0  0  0  0  0  0  0  0  0  0  0
    7.6262    0.9764   22.5236 N   0  0  0  0  0  0  0  0  0  0  0  0
    8.6542    1.7691   22.9071 N   0  0  0  0  0  0  0  0  0  0  0  0
    8.5855    2.8449   23.9089 C   0  0  0  0  0  0  0  0  0  0  0  0
    9.8710    3.0170   24.7190 C   0  0  0  0  0  0  0  0  0  0  0  0
    8.5963    2.5527   25.4135 C   0  0  0  0  0  0  0  0  0  0  0  0
    8.5392    1.5094   25.7519 H   0  0  0  0  0  0  0  0  0  0  0  0
    8.1291    3.2834   26.0827 H   0  0  0  0  0  0  0  0  0  0  0  0
   10.6569    2.2704   24.5559 H   0  0  0  0  0  0  0  0  0  0  0  0
   10.2232    4.0401   24.8930 H   0  0  0  0  0  0  0  0  0  0  0  0
    8.0597    3.7458   23.5742 H   0  0  0  0  0  0  0  0  0  0  0  0
   12.3226    1.4127   22.5039 N   0  0  0  0  0  0  0  0  0  0  0  0
   10.2214    4.0781   22.3272 H   0  0  0  0  0  0  0  0  0  0  0  0
   12.4061    5.3091   22.5917 H   0  0  0  0  0  0  0  0  0  0  0  0
   14.5159    4.0309   22.8808 H   0  0  0  0  0  0  0  0  0  0  0  0
   14.4541   -0.9438   23.1470 H   0  0  0  0  0  0  0  0  0  0  0  0
  1  2  1  0
  2  3  2  0
  3  4  1  0
  4  5  2  0
  5  6  1  0
  6  7  2  0
  7  8  1  0
  8  9  2  0
  9 10  1  0
 10 11  2  0
 11 12  1  0
 12 13  1  0
 13 14  1  0
 14 15  2  0
 15 16  1  0
 16 17  2  0
 17 18  1  0
 18 19  2  0
 19 20  1  0
 17 21  1  0
 16 22  1  0
 15 23  1  0
 13 24  1  0
 13 25  1  0
 12 26  2  0
 26 27  1  0
 27 28  1  0
 28 29  1  0
 29 30  1  0
 30 31  1  0
 30 32  1  0
 29 33  1  0
 29 34  1  0
 28 35  1  0
  9 36  1  0
  8 37  1  0
  7 38  1  0
  6 39  1  0
  3 40  1  0
 36  2  1  0
 36  5  1  0
 27 10  1  0
 30 28  1  0
 19 14  1  0
M  END
>  <cnnaffinity>  (1) 
-6.58858

>  <filename>  (1) 
Brc1cnc2cccc(-c3nc(Cc4cccnc4)nn3C3CC3)n12

$$$$
