
     RDKit          3D

 25 26  0  0  0  0  0  0  0  0999 V2000
    6.6712    3.3165   27.1360 H   0  0  0  0  0  0  0  0  0  0  0  0
    6.5326    2.4835   26.4803 C   0  0  0  0  0  0  0  0  0  0  0  0
    6.3727    1.5365   25.7531 C   0  0  0  0  0  0  0  0  0  0  0  0
    6.1483    0.4068   24.8293 C   0  0  0  0  0  0  0  0  0  0  0  0
    6.9614   -0.3239   24.9372 H   0  0  0  0  0  0  0  0  0  0  0  0
    5.2092   -0.1067   25.0578 H   0  0  0  0  0  0  0  0  0  0  0  0
    6.0385    0.8383   23.4701 O   0  0  0  0  0  0  0  0  0  0  0  0
    7.2652    0.9645   22.8051 C   0  0  0  0  0  0  0  0  0  0  0  0
    7.1601    1.7373   22.0433 H   0  0  0  0  0  0  0  0  0  0  0  0
    8.0729    1.2404   23.4913 H   0  0  0  0  0  0  0  0  0  0  0  0
    7.6615   -0.2648   22.1584 N   0  0  0  0  0  0  0  0  0  0  0  0
    8.3475   -1.2216   22.8077 N   0  0  0  0  0  0  0  0  0  0  0  0
    8.5187   -2.1853   21.9728 N   0  0  0  0  0  0  0  0  0  0  0  0
    7.9594   -1.8912   20.7793 N   0  0  0  0  0  0  0  0  0  0  0  0
    7.3992   -0.7091   20.9124 C   0  0  0  0  0  0  0  0  0  0  0  0
    6.6466    0.0236   19.8982 C   0  0  0  0  0  0  0  0  0  0  0  0
    7.1643    0.0552   18.5956 C   0  0  0  0  0  0  0  0  0  0  0  0
    8.1114   -0.4365   18.3776 H   0  0  0  0  0  0  0  0  0  0  0  0
    6.5665    0.6772   17.5797 N   0  0  0  0  0  0  0  0  0  0  0  0
    5.4025    1.2938   17.8408 C   0  0  0  0  0  0  0  0  0  0  0  0
    4.9250    1.7816   16.9962 H   0  0  0  0  0  0  0  0  0  0  0  0
    4.7973    1.3123   19.1043 C   0  0  0  0  0  0  0  0  0  0  0  0
    3.8665    1.8469   19.2531 H   0  0  0  0  0  0  0  0  0  0  0  0
    5.4269    0.6646   20.1661 C   0  0  0  0  0  0  0  0  0  0  0  0
    5.0026    0.6470   21.1799 H   0  0  0  0  0  0  0  0  0  0  0  0
  1  2  1  0
  2  3  3  0
  3  4  1  0
  4  5  1  0
  4  6  1  0
  4  7  1  0
  7  8  1  0
  8  9  1  0
  8 10  1  0
  8 11  1  0
 11 12  1  0
 12 13  2  0
 13 14  1  0
 14 15  2  0
 15 16  1  0
 16 17  2  0
 17 18  1  0
 17 19  1  0
 19 20  2  0
 20 21  1  0
 20 22  1  0
 22 23  1  0
 22 24  2  0
 24 25  1  0
 15 11  1  0
 24 16  1  0
M  END
>  <cnnaffinity>  (1) 
-4.35497

>  <filename>  (1) 
C#CCOCn1nnnc1-c1cccnc1

$$$$
