
     RDKit          3D

 29 31  0  0  0  0  0  0  0  0999 V2000
    9.4089    5.2704   23.2416 H   0  0  0  0  0  0  0  0  0  0  0  0
    8.9758    4.3899   22.8152 C   0  0  0  0  0  0  0  0  0  0  0  0
    8.5045    3.3968   22.3284 C   0  0  0  0  0  0  0  0  0  0  0  0
    7.8967    2.2038   21.7285 C   0  0  0  0  0  0  0  0  0  0  0  0
    8.2562    2.0391   20.7050 H   0  0  0  0  0  0  0  0  0  0  0  0
    6.8080    2.3108   21.6839 H   0  0  0  0  0  0  0  0  0  0  0  0
    8.2383    1.0808   22.5451 O   0  0  0  0  0  0  0  0  0  0  0  0
    8.0035   -0.1359   22.0451 C   0  0  0  0  0  0  0  0  0  0  0  0
    7.3597   -0.6687   20.9307 C   0  0  0  0  0  0  0  0  0  0  0  0
    6.6124    0.0039   19.8783 C   0  0  0  0  0  0  0  0  0  0  0  0
    7.1300    0.0287   18.5766 C   0  0  0  0  0  0  0  0  0  0  0  0
    8.0817   -0.4555   18.3540 H   0  0  0  0  0  0  0  0  0  0  0  0
    6.5434    0.6648   17.5603 N   0  0  0  0  0  0  0  0  0  0  0  0
    5.3895    1.3074   17.8117 C   0  0  0  0  0  0  0  0  0  0  0  0
    4.9436    1.8238   16.9634 H   0  0  0  0  0  0  0  0  0  0  0  0
    4.7787    1.3274   19.0703 C   0  0  0  0  0  0  0  0  0  0  0  0
    3.8500    1.8694   19.2148 H   0  0  0  0  0  0  0  0  0  0  0  0
    5.3977    0.6608   20.1255 C   0  0  0  0  0  0  0  0  0  0  0  0
    4.9720    0.6515   21.1297 H   0  0  0  0  0  0  0  0  0  0  0  0
    7.5464   -2.0334   20.8816 N   0  0  0  0  0  0  0  0  0  0  0  0
    8.2090   -2.3018   21.9673 C   0  0  0  0  0  0  0  0  0  0  0  0
    8.5537   -1.2007   22.7044 N   0  0  0  0  0  0  0  0  0  0  0  0
    9.4578   -1.3592   23.8346 C   0  0  0  0  0  0  0  0  0  0  0  0
    8.9241   -1.2291   24.7874 H   0  0  0  0  0  0  0  0  0  0  0  0
   10.2444   -0.5902   23.7900 H   0  0  0  0  0  0  0  0  0  0  0  0
   10.0190   -2.8019   23.6844 C   0  0  0  0  0  0  0  0  0  0  0  0
   10.1306   -3.3148   24.6407 H   0  0  0  0  0  0  0  0  0  0  0  0
   10.9956   -2.7897   23.1913 H   0  0  0  0  0  0  0  0  0  0  0  0
    8.8254   -3.7758   22.6736 S   0  0  0  0  0  0  0  0  0  0  0  0
  1  2  1  0
  2  3  3  0
  3  4  1  0
  4  5  1  0
  4  6  1  0
  4  7  1  0
  7  8  1  0
  8  9  2  0
  9 10  1  0
 10 11  2  0
 11 12  1  0
 11 13  1  0
 13 14  2  0
 14 15  1  0
 14 16  1  0
 16 17  1  0
 16 18  2  0
 18 19  1  0
  9 20  1  0
 20 21  2  0
 21 22  1  0
 22 23  1  0
 23 24  1  0
 23 25  1  0
 23 26  1  0
 26 27  1  0
 26 28  1  0
 26 29  1  0
 22  8  1  0
 18 10  1  0
 29 21  1  0
M  END
>  <cnnaffinity>  (1) 
-4.90914

>  <filename>  (1) 
C#CCOc1c(-c2cccnc2)nc2n1CCS2

$$$$
