
     RDKit          3D

 21 21  0  0  0  0  0  0  0  0999 V2000
   12.4961    2.5619   21.4124 H   0  0  0  0  0  0  0  0  0  0  0  0
   11.9579    1.6375   21.4388 C   0  0  0  0  0  0  0  0  0  0  0  0
   11.2952    0.6370   21.5090 C   0  0  0  0  0  0  0  0  0  0  0  0
   10.4358   -0.5379   21.6348 C   0  0  0  0  0  0  0  0  0  0  0  0
    9.9171   -0.5127   22.6036 H   0  0  0  0  0  0  0  0  0  0  0  0
   11.0313   -1.4573   21.5876 H   0  0  0  0  0  0  0  0  0  0  0  0
    9.4976   -0.4985   20.5569 O   0  0  0  0  0  0  0  0  0  0  0  0
    8.4411   -1.4231   20.7975 N   0  0  0  0  0  0  0  0  0  0  0  0
    8.3854   -1.9710   19.9252 H   0  0  0  0  0  0  0  0  0  0  0  0
    7.2640   -0.6946   20.9492 N   0  0  0  0  0  0  0  0  0  0  0  0
    6.8676   -0.6637   21.8785 H   0  0  0  0  0  0  0  0  0  0  0  0
    6.6525   -0.0212   19.9056 C   0  0  0  0  0  0  0  0  0  0  0  0
    7.1809    0.0474   18.5886 C   0  0  0  0  0  0  0  0  0  0  0  0
    8.1436   -0.4079   18.3496 H   0  0  0  0  0  0  0  0  0  0  0  0
    6.5720    0.6755   17.5738 N   0  0  0  0  0  0  0  0  0  0  0  0
    5.4075    1.2958   17.8312 C   0  0  0  0  0  0  0  0  0  0  0  0
    4.9386    1.8024   16.9920 H   0  0  0  0  0  0  0  0  0  0  0  0
    4.8144    1.3030   19.0978 C   0  0  0  0  0  0  0  0  0  0  0  0
    3.8833    1.8381   19.2467 H   0  0  0  0  0  0  0  0  0  0  0  0
    5.4359    0.6380   20.1513 C   0  0  0  0  0  0  0  0  0  0  0  0
    5.0104    0.6334   21.1542 H   0  0  0  0  0  0  0  0  0  0  0  0
  1  2  1  0
  2  3  3  0
  3  4  1  0
  4  5  1  0
  4  6  1  0
  4  7  1  0
  7  8  1  0
  8  9  1  0
  8 10  1  0
 10 11  1  0
 10 12  1  0
 12 13  2  0
 13 14  1  0
 13 15  1  0
 15 16  2  0
 16 17  1  0
 16 18  1  0
 18 19  1  0
 18 20  2  0
 20 21  1  0
 20 12  1  0
M  END
>  <cnnaffinity>  (1) 
-4.45083

>  <filename>  (1) 
C#CCONNc1cccnc1

$$$$
