
     RDKit          3D

 25 26  0  0  0  0  0  0  0  0999 V2000
    4.9107    1.8746   16.9061 H   0  0  0  0  0  0  0  0  0  0  0  0
    5.3796    1.3644   17.7433 C   0  0  0  0  0  0  0  0  0  0  0  0
    6.5416    0.7432   17.4875 N   0  0  0  0  0  0  0  0  0  0  0  0
    7.1208    0.0799   18.4968 C   0  0  0  0  0  0  0  0  0  0  0  0
    8.0711   -0.4033   18.2792 H   0  0  0  0  0  0  0  0  0  0  0  0
    6.5681   -0.0105   19.7958 C   0  0  0  0  0  0  0  0  0  0  0  0
    7.1847   -0.8080   20.8158 C   0  0  0  0  0  0  0  0  0  0  0  0
    7.7110   -1.4698   21.6761 C   0  0  0  0  0  0  0  0  0  0  0  0
    8.4773   -2.0407   22.7824 C   0  0  1  0  0  0  0  0  0  0  0  0
    7.8303   -2.6846   23.3961 H   0  0  0  0  0  0  0  0  0  0  0  0
    9.6246   -2.8213   22.3116 N   0  0  0  0  0  0  0  0  0  0  0  0
   10.0329   -2.2811   21.5538 H   0  0  0  0  0  0  0  0  0  0  0  0
   10.5907   -2.8576   23.4213 C   0  0  0  0  0  0  0  0  0  0  0  0
   11.6010   -2.8334   22.9985 H   0  0  0  0  0  0  0  0  0  0  0  0
   10.4918   -3.8105   23.9601 H   0  0  0  0  0  0  0  0  0  0  0  0
   10.2613   -1.6677   24.3709 C   0  0  0  0  0  0  0  0  0  0  0  0
    9.9146   -2.0640   25.3287 H   0  0  0  0  0  0  0  0  0  0  0  0
   11.1087   -1.0064   24.5917 H   0  0  0  0  0  0  0  0  0  0  0  0
    9.1049   -0.9437   23.6637 C   0  0  0  0  0  0  0  0  0  0  0  0
    8.3732   -0.4950   24.3426 H   0  0  0  0  0  0  0  0  0  0  0  0
    9.4823   -0.1579   22.9995 H   0  0  0  0  0  0  0  0  0  0  0  0
    5.3809    0.6911   20.0523 C   0  0  0  0  0  0  0  0  0  0  0  0
    4.9598    0.7083   21.0606 H   0  0  0  0  0  0  0  0  0  0  0  0
    4.7680    1.3731   19.0027 C   0  0  0  0  0  0  0  0  0  0  0  0
    3.8318    1.8975   19.1458 H   0  0  0  0  0  0  0  0  0  0  0  0
  1  2  1  0
  2  3  2  0
  3  4  1  0
  4  5  1  0
  4  6  2  0
  6  7  1  0
  7  8  3  0
  8  9  1  0
  9 10  1  1
  9 11  1  0
 11 12  1  0
 11 13  1  0
 13 14  1  0
 13 15  1  0
 13 16  1  0
 16 17  1  0
 16 18  1  0
 16 19  1  0
 19 20  1  0
 19 21  1  0
  6 22  1  0
 22 23  1  0
 22 24  2  0
 24 25  1  0
 24  2  1  0
 19  9  1  0
M  END
>  <cnnaffinity>  (1) 
-4.0421

>  <filename>  (1) 
C(#C[C@@H]1CCCN1)c1cccnc1

$$$$
