
     RDKit          3D

 27 29  0  0  0  0  0  0  0  0999 V2000
    4.9246    1.8738   16.8738 H   0  0  0  0  0  0  0  0  0  0  0  0
    5.3744    1.3554   17.7165 C   0  0  0  0  0  0  0  0  0  0  0  0
    6.5289    0.7160   17.4663 N   0  0  0  0  0  0  0  0  0  0  0  0
    7.1279    0.0989   18.4917 C   0  0  0  0  0  0  0  0  0  0  0  0
    8.0573   -0.4196   18.2548 H   0  0  0  0  0  0  0  0  0  0  0  0
    6.6206    0.0814   19.8119 C   0  0  0  0  0  0  0  0  0  0  0  0
    7.3309   -0.5809   20.8779 C   0  0  0  0  0  0  0  0  0  0  0  0
    7.9236   -1.1451   21.7732 C   0  0  0  0  0  0  0  0  0  0  0  0
    8.5404   -1.8293   22.8869 C   0  0  0  0  0  0  0  0  0  0  0  0
    7.8200   -1.9639   24.1172 C   0  0  0  0  0  0  0  0  0  0  0  0
    6.8715   -1.4532   24.2372 H   0  0  0  0  0  0  0  0  0  0  0  0
    8.2924   -2.7523   25.1548 C   0  0  0  0  0  0  0  0  0  0  0  0
    7.7311   -2.8551   26.0788 H   0  0  0  0  0  0  0  0  0  0  0  0
    9.5086   -3.4473   24.9991 C   0  0  0  0  0  0  0  0  0  0  0  0
   10.2115   -4.4602   25.7393 C   0  0  0  0  0  0  0  0  0  0  0  0
    9.8933   -4.9311   26.6599 H   0  0  0  0  0  0  0  0  0  0  0  0
   11.3415   -4.7491   25.0364 C   0  0  0  0  0  0  0  0  0  0  0  0
   12.1030   -5.4835   25.2410 H   0  0  0  0  0  0  0  0  0  0  0  0
   11.4097   -3.9451   23.9168 N   0  0  0  0  0  0  0  0  0  0  0  0
   12.0677   -3.9900   23.1548 H   0  0  0  0  0  0  0  0  0  0  0  0
   10.2722   -3.1933   23.8362 C   0  0  0  0  0  0  0  0  0  0  0  0
    9.8063   -2.4168   22.7711 C   0  0  0  0  0  0  0  0  0  0  0  0
   10.4106   -2.3041   21.8783 H   0  0  0  0  0  0  0  0  0  0  0  0
    5.3852    0.7226   20.0350 C   0  0  0  0  0  0  0  0  0  0  0  0
    4.9290    0.7063   21.0250 H   0  0  0  0  0  0  0  0  0  0  0  0
    4.7592    1.3742   18.9709 C   0  0  0  0  0  0  0  0  0  0  0  0
    3.8248    1.9101   19.1026 H   0  0  0  0  0  0  0  0  0  0  0  0
  1  2  1  0
  2  3  2  0
  3  4  1  0
  4  5  1  0
  4  6  2  0
  6  7  1  0
  7  8  3  0
  8  9  1  0
  9 10  2  0
 10 11  1  0
 10 12  1  0
 12 13  1  0
 12 14  2  0
 14 15  1  0
 15 16  1  0
 15 17  2  0
 17 18  1  0
 17 19  1  0
 19 20  1  0
 19 21  1  0
 21 22  2  0
 22 23  1  0
  6 24  1  0
 24 25  1  0
 24 26  2  0
 26 27  1  0
 26  2  1  0
 22  9  1  0
 21 14  1  0
M  END
>  <cnnaffinity>  (1) 
-4.79199

>  <filename>  (1) 
C(#Cc1ccc2cc[nH]c2c1)c1cccnc1

$$$$
