
     RDKit          3D

 29 31  0  0  0  0  0  0  0  0999 V2000
    4.9180    1.7864   16.9898 H   0  0  0  0  0  0  0  0  0  0  0  0
    5.3966    1.2964   17.8330 C   0  0  0  0  0  0  0  0  0  0  0  0
    6.5603    0.6809   17.5662 N   0  0  0  0  0  0  0  0  0  0  0  0
    7.1703    0.0656   18.5855 C   0  0  0  0  0  0  0  0  0  0  0  0
    8.1175   -0.4198   18.3581 H   0  0  0  0  0  0  0  0  0  0  0  0
    6.6574    0.0104   19.9015 C   0  0  0  0  0  0  0  0  0  0  0  0
    7.3570   -0.6832   20.9393 C   0  0  0  0  0  0  0  0  0  0  0  0
    7.9440   -1.2678   21.8182 C   0  0  0  0  0  0  0  0  0  0  0  0
    8.6395   -1.9578   22.8563 C   0  0  0  0  0  0  0  0  0  0  0  0
    9.8456   -2.5760   22.5611 C   0  0  0  0  0  0  0  0  0  0  0  0
   10.2392   -2.5224   21.5477 H   0  0  0  0  0  0  0  0  0  0  0  0
   10.5615   -3.2662   23.5678 C   0  0  0  0  0  0  0  0  0  0  0  0
   11.5121   -3.7269   23.3212 H   0  0  0  0  0  0  0  0  0  0  0  0
   10.0637   -3.3398   24.8499 C   0  0  0  0  0  0  0  0  0  0  0  0
   10.6101   -3.8751   25.6239 H   0  0  0  0  0  0  0  0  0  0  0  0
    8.8322   -2.7135   25.1951 C   0  0  0  0  0  0  0  0  0  0  0  0
    8.3095   -2.7717   26.5230 C   0  0  0  0  0  0  0  0  0  0  0  0
    8.8817   -3.3149   27.2732 H   0  0  0  0  0  0  0  0  0  0  0  0
    7.1162   -2.1609   26.8355 C   0  0  0  0  0  0  0  0  0  0  0  0
    6.7150   -2.2053   27.8427 H   0  0  0  0  0  0  0  0  0  0  0  0
    6.3794   -1.4593   25.8449 C   0  0  0  0  0  0  0  0  0  0  0  0
    5.4375   -0.9844   26.1144 H   0  0  0  0  0  0  0  0  0  0  0  0
    6.8543   -1.3811   24.5521 C   0  0  0  0  0  0  0  0  0  0  0  0
    6.2985   -0.8456   23.7827 H   0  0  0  0  0  0  0  0  0  0  0  0
    8.0921   -2.0036   24.1879 C   0  0  0  0  0  0  0  0  0  0  0  0
    5.4345    0.6565   20.1541 C   0  0  0  0  0  0  0  0  0  0  0  0
    5.0054    0.6372   21.1581 H   0  0  0  0  0  0  0  0  0  0  0  0
    4.8002    1.3142   19.0998 C   0  0  0  0  0  0  0  0  0  0  0  0
    3.8682    1.8471   19.2508 H   0  0  0  0  0  0  0  0  0  0  0  0
  1  2  1  0
  2  3  2  0
  3  4  1  0
  4  5  1  0
  4  6  2  0
  6  7  1  0
  7  8  3  0
  8  9  1  0
  9 10  2  0
 10 11  1  0
 10 12  1  0
 12 13  1  0
 12 14  2  0
 14 15  1  0
 14 16  1  0
 16 17  2  0
 17 18  1  0
 17 19  1  0
 19 20  1  0
 19 21  2  0
 21 22  1  0
 21 23  1  0
 23 24  1  0
 23 25  2  0
  6 26  1  0
 26 27  1  0
 26 28  2  0
 28 29  1  0
 28  2  1  0
 25  9  1  0
 25 16  1  0
M  END
>  <cnnaffinity>  (1) 
-4.8398

>  <filename>  (1) 
C(#Cc1cccc2ccccc12)c1cccnc1

$$$$
