
     RDKit          3D

 27 29  0  0  0  0  0  0  0  0999 V2000
    4.9126    1.7792   16.9973 H   0  0  0  0  0  0  0  0  0  0  0  0
    5.3995    1.2940   17.8389 C   0  0  0  0  0  0  0  0  0  0  0  0
    6.5654    0.6813   17.5692 N   0  0  0  0  0  0  0  0  0  0  0  0
    7.1754    0.0649   18.5882 C   0  0  0  0  0  0  0  0  0  0  0  0
    8.1223   -0.4261   18.3677 H   0  0  0  0  0  0  0  0  0  0  0  0
    6.6596    0.0095   19.9023 C   0  0  0  0  0  0  0  0  0  0  0  0
    7.3581   -0.6842   20.9433 C   0  0  0  0  0  0  0  0  0  0  0  0
    7.9581   -1.2725   21.8095 C   0  0  0  0  0  0  0  0  0  0  0  0
    8.6456   -1.9586   22.8492 C   0  0  0  0  0  0  0  0  0  0  0  0
    9.8630   -2.6039   22.6152 C   0  0  0  0  0  0  0  0  0  0  0  0
   10.2906   -2.5753   21.6165 H   0  0  0  0  0  0  0  0  0  0  0  0
   10.5292   -3.2789   23.6591 C   0  0  0  0  0  0  0  0  0  0  0  0
   11.4755   -3.7653   23.4592 H   0  0  0  0  0  0  0  0  0  0  0  0
   10.0010   -3.3317   24.9504 C   0  0  0  0  0  0  0  0  0  0  0  0
   10.5029   -3.8501   25.7642 H   0  0  0  0  0  0  0  0  0  0  0  0
    8.7843   -2.6784   25.1747 C   0  0  0  0  0  0  0  0  0  0  0  0
    8.0874   -1.9905   24.1541 C   0  0  0  0  0  0  0  0  0  0  0  0
    6.8995   -1.4581   24.7427 C   0  0  0  0  0  0  0  0  0  0  0  0
    6.1608   -0.8797   24.2033 H   0  0  0  0  0  0  0  0  0  0  0  0
    6.8982   -1.8180   26.0581 C   0  0  0  0  0  0  0  0  0  0  0  0
    6.1645   -1.6009   26.8293 H   0  0  0  0  0  0  0  0  0  0  0  0
    8.0370   -2.5552   26.3213 N   0  0  0  0  0  0  0  0  0  0  0  0
    8.3066   -2.9557   27.2015 H   0  0  0  0  0  0  0  0  0  0  0  0
    5.4371    0.6549   20.1576 C   0  0  0  0  0  0  0  0  0  0  0  0
    5.0087    0.6311   21.1625 H   0  0  0  0  0  0  0  0  0  0  0  0
    4.8008    1.3137   19.1050 C   0  0  0  0  0  0  0  0  0  0  0  0
    3.8682    1.8472   19.2592 H   0  0  0  0  0  0  0  0  0  0  0  0
  1  2  1  0
  2  3  2  0
  3  4  1  0
  4  5  1  0
  4  6  2  0
  6  7  1  0
  7  8  3  0
  8  9  1  0
  9 10  2  0
 10 11  1  0
 10 12  1  0
 12 13  1  0
 12 14  2  0
 14 15  1  0
 14 16  1  0
 16 17  2  0
 17 18  1  0
 18 19  1  0
 18 20  2  0
 20 21  1  0
 20 22  1  0
 22 23  1  0
  6 24  1  0
 24 25  1  0
 24 26  2  0
 26 27  1  0
 26  2  1  0
 17  9  1  0
 22 16  1  0
M  END
>  <cnnaffinity>  (1) 
-4.76969

>  <filename>  (1) 
C(#Cc1cccc2[nH]ccc12)c1cccnc1

$$$$
