
     RDKit          3D

 32 34  0  0  0  0  0  0  0  0999 V2000
    4.9859    1.8186   16.9320 H   0  0  0  0  0  0  0  0  0  0  0  0
    5.4397    1.3125   17.7813 C   0  0  0  0  0  0  0  0  0  0  0  0
    6.5946    0.6721   17.5342 N   0  0  0  0  0  0  0  0  0  0  0  0
    7.1813    0.0348   18.5550 C   0  0  0  0  0  0  0  0  0  0  0  0
    8.1164   -0.4763   18.3260 H   0  0  0  0  0  0  0  0  0  0  0  0
    6.6649    0.0043   19.8679 C   0  0  0  0  0  0  0  0  0  0  0  0
    7.3679   -0.6718   20.9295 C   0  0  0  0  0  0  0  0  0  0  0  0
    7.9686   -1.2396   21.8158 C   0  0  0  0  0  0  0  0  0  0  0  0
    8.6033   -1.9824   22.8584 C   0  0  0  0  0  0  0  0  0  0  0  0
    8.1165   -2.9880   23.6775 C   0  0  0  0  0  0  0  0  0  0  0  0
    6.7183   -3.5475   23.6182 C   0  0  0  0  0  0  0  0  0  0  0  0
    6.5456   -4.1962   24.4869 H   0  0  0  0  0  0  0  0  0  0  0  0
    5.9915   -2.7220   23.6726 H   0  0  0  0  0  0  0  0  0  0  0  0
    6.5093   -4.3221   22.3367 C   0  0  0  0  0  0  0  0  0  0  0  0
    6.9765   -5.6409   22.2310 C   0  0  0  0  0  0  0  0  0  0  0  0
    7.4606   -6.1312   23.0751 H   0  0  0  0  0  0  0  0  0  0  0  0
    6.8618   -6.3894   21.1310 N   0  0  0  0  0  0  0  0  0  0  0  0
    6.2513   -5.8461   20.0729 C   0  0  0  0  0  0  0  0  0  0  0  0
    6.1444   -6.4937   19.2057 H   0  0  0  0  0  0  0  0  0  0  0  0
    5.7666   -4.5367   20.0514 C   0  0  0  0  0  0  0  0  0  0  0  0
    5.2824   -4.1452   19.1642 H   0  0  0  0  0  0  0  0  0  0  0  0
    5.9079   -3.7598   21.2022 C   0  0  0  0  0  0  0  0  0  0  0  0
    5.5807   -2.7198   21.2134 H   0  0  0  0  0  0  0  0  0  0  0  0
    9.2169   -3.3512   24.4813 C   0  0  0  0  0  0  0  0  0  0  0  0
    9.2503   -4.1185   25.2436 H   0  0  0  0  0  0  0  0  0  0  0  0
   10.2953   -2.6337   24.2009 N   0  0  0  0  0  0  0  0  0  0  0  0
    9.9016   -1.8140   23.2173 N   0  0  0  0  0  0  0  0  0  0  0  0
   10.5307   -1.1209   22.8393 H   0  0  0  0  0  0  0  0  0  0  0  0
    5.4472    0.6734   20.0966 C   0  0  0  0  0  0  0  0  0  0  0  0
    5.0107    0.6845   21.0943 H   0  0  0  0  0  0  0  0  0  0  0  0
    4.8238    1.3337   19.0358 C   0  0  0  0  0  0  0  0  0  0  0  0
    3.8867    1.8672   19.1684 H   0  0  0  0  0  0  0  0  0  0  0  0
  1  2  1  0
  2  3  2  0
  3  4  1  0
  4  5  1  0
  4  6  2  0
  6  7  1  0
  7  8  3  0
  8  9  1  0
  9 10  2  0
 10 11  1  0
 11 12  1  0
 11 13  1  0
 11 14  1  0
 14 15  2  0
 15 16  1  0
 15 17  1  0
 17 18  2  0
 18 19  1  0
 18 20  1  0
 20 21  1  0
 20 22  2  0
 22 23  1  0
 10 24  1  0
 24 25  1  0
 24 26  2  0
 26 27  1  0
 27 28  1  0
  6 29  1  0
 29 30  1  0
 29 31  2  0
 31 32  1  0
 31  2  1  0
 27  9  1  0
 22 14  1  0
M  END
>  <cnnaffinity>  (1) 
-5.72641

>  <filename>  (1) 
C(#Cc1[nH]ncc1Cc1cccnc1)c1cccnc1

$$$$
