
     RDKit          3D

 19 20  0  0  0  0  0  0  0  0999 V2000
   11.2446   -3.5476   23.8973 H   0  0  0  0  0  0  0  0  0  0  0  0
   10.2704   -3.0742   23.8565 C   0  0  0  0  0  0  0  0  0  0  0  0
    9.8542   -2.4749   22.6959 N   0  0  0  0  0  0  0  0  0  0  0  0
    8.6634   -1.9614   22.8447 C   0  0  0  0  0  0  0  0  0  0  0  0
    7.9559   -1.2727   21.8205 C   0  0  0  0  0  0  0  0  0  0  0  0
    7.3567   -0.6842   20.9475 C   0  0  0  0  0  0  0  0  0  0  0  0
    6.6612    0.0075   19.9061 C   0  0  0  0  0  0  0  0  0  0  0  0
    7.1808    0.0613   18.5949 C   0  0  0  0  0  0  0  0  0  0  0  0
    8.1275   -0.4322   18.3766 H   0  0  0  0  0  0  0  0  0  0  0  0
    6.5684    0.6807   17.5785 N   0  0  0  0  0  0  0  0  0  0  0  0
    5.4007    1.2919   17.8437 C   0  0  0  0  0  0  0  0  0  0  0  0
    4.9096    1.7742   17.0031 H   0  0  0  0  0  0  0  0  0  0  0  0
    4.8024    1.3130   19.1091 C   0  0  0  0  0  0  0  0  0  0  0  0
    3.8692    1.8470   19.2638 H   0  0  0  0  0  0  0  0  0  0  0  0
    5.4395    0.6534   20.1599 C   0  0  0  0  0  0  0  0  0  0  0  0
    5.0098    0.6289   21.1613 H   0  0  0  0  0  0  0  0  0  0  0  0
    7.9713   -2.1901   24.4323 S   0  0  0  0  0  0  0  0  0  0  0  0
    9.3953   -3.0249   24.8991 C   0  0  0  0  0  0  0  0  0  0  0  0
    9.5334   -3.4359   25.8897 H   0  0  0  0  0  0  0  0  0  0  0  0
  1  2  1  0
  2  3  1  0
  3  4  2  0
  4  5  1  0
  5  6  3  0
  6  7  1  0
  7  8  2  0
  8  9  1  0
  8 10  1  0
 10 11  2  0
 11 12  1  0
 11 13  1  0
 13 14  1  0
 13 15  2  0
 15 16  1  0
  4 17  1  0
 17 18  1  0
 18 19  1  0
 18  2  2  0
 15  7  1  0
M  END
>  <cnnaffinity>  (1) 
-4.48263

>  <filename>  (1) 
C(#Cc1nccs1)c1cccnc1

$$$$
