
     RDKit          3D

 26 28  0  0  0  0  0  0  0  0999 V2000
    4.9200    1.7892   16.9882 H   0  0  0  0  0  0  0  0  0  0  0  0
    5.3954    1.2961   17.8333 C   0  0  0  0  0  0  0  0  0  0  0  0
    6.5591    0.6794   17.5715 N   0  0  0  0  0  0  0  0  0  0  0  0
    7.1707    0.0628   18.5888 C   0  0  0  0  0  0  0  0  0  0  0  0
    8.1181   -0.4195   18.3556 H   0  0  0  0  0  0  0  0  0  0  0  0
    6.6598    0.0072   19.9057 C   0  0  0  0  0  0  0  0  0  0  0  0
    7.3589   -0.6861   20.9453 C   0  0  0  0  0  0  0  0  0  0  0  0
    7.9469   -1.2710   21.8232 C   0  0  0  0  0  0  0  0  0  0  0  0
    8.6337   -1.9552   22.8721 C   0  0  0  0  0  0  0  0  0  0  0  0
    9.8577   -2.5950   22.5971 C   0  0  0  0  0  0  0  0  0  0  0  0
   10.2657   -2.5627   21.5947 H   0  0  0  0  0  0  0  0  0  0  0  0
   10.5569   -3.2841   23.5966 C   0  0  0  0  0  0  0  0  0  0  0  0
   11.5084   -3.7780   23.4342 H   0  0  0  0  0  0  0  0  0  0  0  0
    9.9709   -3.3228   24.8398 C   0  0  0  0  0  0  0  0  0  0  0  0
    8.7766   -2.6538   25.1378 C   0  0  0  0  0  0  0  0  0  0  0  0
    8.0733   -1.9711   24.1751 C   0  0  0  0  0  0  0  0  0  0  0  0
    7.1303   -1.4817   24.4007 H   0  0  0  0  0  0  0  0  0  0  0  0
    8.4508   -2.8680   26.4411 O   0  0  0  0  0  0  0  0  0  0  0  0
    9.5234   -3.6371   26.9748 C   0  0  0  0  0  0  0  0  0  0  0  0
    9.1057   -4.5256   27.4476 H   0  0  0  0  0  0  0  0  0  0  0  0
   10.0959   -3.0094   27.6542 H   0  0  0  0  0  0  0  0  0  0  0  0
   10.3781   -4.0379   25.9153 O   0  0  0  0  0  0  0  0  0  0  0  0
    5.4361    0.6548   20.1556 C   0  0  0  0  0  0  0  0  0  0  0  0
    5.0059    0.6384   21.1570 H   0  0  0  0  0  0  0  0  0  0  0  0
    4.8020    1.3130   19.0999 C   0  0  0  0  0  0  0  0  0  0  0  0
    3.8702    1.8458   19.2473 H   0  0  0  0  0  0  0  0  0  0  0  0
  1  2  1  0
  2  3  2  0
  3  4  1  0
  4  5  1  0
  4  6  2  0
  6  7  1  0
  7  8  3  0
  8  9  1  0
  9 10  2  0
 10 11  1  0
 10 12  1  0
 12 13  1  0
 12 14  2  0
 14 15  1  0
 15 16  2  0
 16 17  1  0
 15 18  1  0
 18 19  1  0
 19 20  1  0
 19 21  1  0
 19 22  1  0
  6 23  1  0
 23 24  1  0
 23 25  2  0
 25 26  1  0
 25  2  1  0
 16  9  1  0
 22 14  1  0
M  END
>  <cnnaffinity>  (1) 
-4.60446

>  <filename>  (1) 
C(#Cc1ccc2c(c1)OCO2)c1cccnc1

$$$$
