
     RDKit          3D

 28 30  0  0  0  0  0  0  0  0999 V2000
    1.6857    1.8345   24.2264 H   0  0  0  0  0  0  0  0  0  0  0  0
    2.5781    1.9846   24.8300 C   0  0  0  0  0  0  0  0  0  0  0  0
    3.7283    1.9885   24.1560 N   0  0  0  0  0  0  0  0  0  0  0  0
    4.8786    2.1129   24.8408 C   0  0  0  0  0  0  0  0  0  0  0  0
    6.0792    1.9255   24.0438 C   0  0  0  0  0  0  0  0  0  0  0  0
    7.0214    1.6616   23.3388 C   0  0  0  0  0  0  0  0  0  0  0  0
    8.1451    1.5599   22.5495 N   0  0  0  0  0  0  0  0  0  0  0  0
    9.1401    2.5041   22.5176 N   0  0  0  0  0  0  0  0  0  0  0  0
   10.0251    2.0564   21.7212 N   0  0  0  0  0  0  0  0  0  0  0  0
    9.6914    0.8493   21.2027 N   0  0  0  0  0  0  0  0  0  0  0  0
    8.5203    0.5583   21.7157 C   0  0  0  0  0  0  0  0  0  0  0  0
    7.5347   -0.8154   21.2014 S   0  0  0  0  0  0  0  0  0  0  0  0
    6.6291   -0.0040   19.8816 C   0  0  0  0  0  0  0  0  0  0  0  0
    7.1439    0.0333   18.5688 C   0  0  0  0  0  0  0  0  0  0  0  0
    8.0935   -0.4551   18.3395 H   0  0  0  0  0  0  0  0  0  0  0  0
    6.5385    0.6646   17.5567 N   0  0  0  0  0  0  0  0  0  0  0  0
    5.3840    1.2989   17.8137 C   0  0  0  0  0  0  0  0  0  0  0  0
    4.9258    1.8230   16.9745 H   0  0  0  0  0  0  0  0  0  0  0  0
    4.7882    1.3105   19.0767 C   0  0  0  0  0  0  0  0  0  0  0  0
    3.8615    1.8488   19.2246 H   0  0  0  0  0  0  0  0  0  0  0  0
    5.4132    0.6426   20.1324 C   0  0  0  0  0  0  0  0  0  0  0  0
    4.9726    0.6287   21.1311 H   0  0  0  0  0  0  0  0  0  0  0  0
    4.9023    2.3340   26.2308 C   0  0  0  0  0  0  0  0  0  0  0  0
    5.8452    2.4372   26.7564 H   0  0  0  0  0  0  0  0  0  0  0  0
    3.6813    2.3650   26.9141 C   0  0  0  0  0  0  0  0  0  0  0  0
    3.6490    2.5190   27.9896 H   0  0  0  0  0  0  0  0  0  0  0  0
    2.4921    2.1445   26.2125 C   0  0  0  0  0  0  0  0  0  0  0  0
    1.5212    2.0779   26.6997 H   0  0  0  0  0  0  0  0  0  0  0  0
  1  2  1  0
  2  3  2  0
  3  4  1  0
  4  5  1  0
  5  6  3  0
  6  7  1  0
  7  8  1  0
  8  9  2  0
  9 10  1  0
 10 11  2  0
 11 12  1  0
 12 13  1  0
 13 14  2  0
 14 15  1  0
 14 16  1  0
 16 17  2  0
 17 18  1  0
 17 19  1  0
 19 20  1  0
 19 21  2  0
 21 22  1  0
  4 23  2  0
 23 24  1  0
 23 25  1  0
 25 26  1  0
 25 27  2  0
 27 28  1  0
 27  2  1  0
 11  7  1  0
 21 13  1  0
M  END
>  <cnnaffinity>  (1) 
-4.73217

>  <filename>  (1) 
C(#Cn1nnnc1Sc1cccnc1)c1ccccn1

$$$$
