
     RDKit          3D

 31 32  0  0  0  0  0  0  0  0999 V2000
    6.6944   -1.0223   21.8104 H   0  0  0  0  0  0  0  0  0  0  0  0
    7.3459   -0.6918   20.9950 C   0  0  0  0  0  0  0  0  0  0  0  0
    8.6613   -0.8951   21.0558 C   0  0  0  0  0  0  0  0  0  0  0  0
    9.3005   -0.4855   20.2674 H   0  0  0  0  0  0  0  0  0  0  0  0
    9.3235   -1.6088   22.2107 C   0  0  0  0  0  0  0  0  0  0  0  0
   10.4007   -1.6234   22.0046 H   0  0  0  0  0  0  0  0  0  0  0  0
    8.8449   -3.0724   22.3191 C   0  0  0  0  0  0  0  0  0  0  0  0
    9.0211   -3.5802   21.3667 H   0  0  0  0  0  0  0  0  0  0  0  0
    7.7562   -3.0954   22.4590 H   0  0  0  0  0  0  0  0  0  0  0  0
    9.5250   -3.7975   23.4811 C   0  0  0  0  0  0  0  0  0  0  0  0
    9.1517   -4.8247   23.5562 H   0  0  0  0  0  0  0  0  0  0  0  0
   10.6012   -3.8562   23.2770 H   0  0  0  0  0  0  0  0  0  0  0  0
    9.3298   -3.0509   24.8055 C   0  0  0  0  0  0  0  0  0  0  0  0
    9.8664   -3.5642   25.6100 H   0  0  0  0  0  0  0  0  0  0  0  0
    8.2656   -3.0717   25.0702 H   0  0  0  0  0  0  0  0  0  0  0  0
    9.7831   -1.5893   24.7102 C   0  0  0  0  0  0  0  0  0  0  0  0
   10.8636   -1.5557   24.5506 H   0  0  0  0  0  0  0  0  0  0  0  0
    9.5966   -1.0625   25.6516 H   0  0  0  0  0  0  0  0  0  0  0  0
    9.1115   -0.8600   23.5476 C   0  0  0  0  0  0  0  0  0  0  0  0
    8.0373   -0.7696   23.7542 H   0  0  0  0  0  0  0  0  0  0  0  0
    9.4899    0.1653   23.4618 H   0  0  0  0  0  0  0  0  0  0  0  0
    6.6492    0.0035   19.9015 C   0  0  0  0  0  0  0  0  0  0  0  0
    7.1706    0.0698   18.5976 C   0  0  0  0  0  0  0  0  0  0  0  0
    8.1130   -0.4259   18.3706 H   0  0  0  0  0  0  0  0  0  0  0  0
    6.5653    0.6809   17.5734 N   0  0  0  0  0  0  0  0  0  0  0  0
    5.3998    1.2951   17.8366 C   0  0  0  0  0  0  0  0  0  0  0  0
    4.9155    1.7805   16.9945 H   0  0  0  0  0  0  0  0  0  0  0  0
    4.7981    1.3147   19.1027 C   0  0  0  0  0  0  0  0  0  0  0  0
    3.8668    1.8491   19.2561 H   0  0  0  0  0  0  0  0  0  0  0  0
    5.4278    0.6457   20.1493 C   0  0  0  0  0  0  0  0  0  0  0  0
    5.0058    0.6305   21.1600 H   0  0  0  0  0  0  0  0  0  0  0  0
  1  2  1  0
  2  3  2  3
  3  4  1  0
  3  5  1  0
  5  6  1  0
  5  7  1  0
  7  8  1  0
  7  9  1  0
  7 10  1  0
 10 11  1  0
 10 12  1  0
 10 13  1  0
 13 14  1  0
 13 15  1  0
 13 16  1  0
 16 17  1  0
 16 18  1  0
 16 19  1  0
 19 20  1  0
 19 21  1  0
  2 22  1  0
 22 23  2  0
 23 24  1  0
 23 25  1  0
 25 26  2  0
 26 27  1  0
 26 28  1  0
 28 29  1  0
 28 30  2  0
 30 31  1  0
 19  5  1  0
 30 22  1  0
M  END
>  <cnnaffinity>  (1) 
-4.44218

>  <filename>  (1) 
C(=CC1CCCCC1)c1cccnc1

$$$$
