
     RDKit          3D

 34 36  0  0  0  0  0  0  0  0999 V2000
    7.8628    2.0545   21.2066 H   0  0  0  0  0  0  0  0  0  0  0  0
    7.4512    2.1075   22.2116 C   0  0  0  0  0  0  0  0  0  0  0  0
    7.2026    0.9604   22.8519 C   0  0  0  0  0  0  0  0  0  0  0  0
    6.8740    0.9551   23.8916 H   0  0  0  0  0  0  0  0  0  0  0  0
    7.4053   -0.3113   22.2977 N   0  0  0  0  0  0  0  0  0  0  0  0
    7.3756   -0.7126   20.9647 C   0  0  0  0  0  0  0  0  0  0  0  0
    6.6522    0.0400   19.9276 C   0  0  0  0  0  0  0  0  0  0  0  0
    7.1741    0.0548   18.6299 C   0  0  0  0  0  0  0  0  0  0  0  0
    8.1138   -0.4392   18.3904 H   0  0  0  0  0  0  0  0  0  0  0  0
    6.5778    0.6658   17.6027 N   0  0  0  0  0  0  0  0  0  0  0  0
    5.4139    1.2884   17.8447 C   0  0  0  0  0  0  0  0  0  0  0  0
    4.9305    1.7759   16.9985 H   0  0  0  0  0  0  0  0  0  0  0  0
    4.7984    1.3079   19.1029 C   0  0  0  0  0  0  0  0  0  0  0  0
    3.8678    1.8451   19.2530 H   0  0  0  0  0  0  0  0  0  0  0  0
    5.4185    0.6571   20.1626 C   0  0  0  0  0  0  0  0  0  0  0  0
    4.9828    0.6440   21.1655 H   0  0  0  0  0  0  0  0  0  0  0  0
    7.9533   -1.8213   20.7094 N   0  0  0  0  0  0  0  0  0  0  0  0
    8.4438   -2.3682   21.9697 C   0  0  0  0  0  0  0  0  0  0  0  0
    9.5295   -2.4819   21.9122 H   0  0  0  0  0  0  0  0  0  0  0  0
    8.0398   -3.3710   22.1367 H   0  0  0  0  0  0  0  0  0  0  0  0
    8.0185   -1.3856   23.0747 C   0  0  0  0  0  0  0  0  0  0  0  0
    7.3048   -1.8255   23.7843 H   0  0  0  0  0  0  0  0  0  0  0  0
    8.8741   -1.0192   23.6566 H   0  0  0  0  0  0  0  0  0  0  0  0
    7.2191    3.4657   22.7568 C   0  0  0  0  0  0  0  0  0  0  0  0
    7.9078    4.5498   22.1851 C   0  0  0  0  0  0  0  0  0  0  0  0
    8.5699    4.3470   21.3572 H   0  0  0  0  0  0  0  0  0  0  0  0
    7.7572    5.8554   22.6594 C   0  0  0  0  0  0  0  0  0  0  0  0
    8.3048    6.6724   22.1922 H   0  0  0  0  0  0  0  0  0  0  0  0
    6.8833    6.1002   23.7258 C   0  0  0  0  0  0  0  0  0  0  0  0
    6.7493    7.1126   24.0966 H   0  0  0  0  0  0  0  0  0  0  0  0
    6.1763    5.0372   24.3024 C   0  0  0  0  0  0  0  0  0  0  0  0
    5.4902    5.2231   25.1239 H   0  0  0  0  0  0  0  0  0  0  0  0
    6.3428    3.7305   23.8253 C   0  0  0  0  0  0  0  0  0  0  0  0
    5.7719    2.9176   24.2624 H   0  0  0  0  0  0  0  0  0  0  0  0
  1  2  1  0
  2  3  2  3
  3  4  1  0
  3  5  1  0
  5  6  1  0
  6  7  1  0
  7  8  2  0
  8  9  1  0
  8 10  1  0
 10 11  2  0
 11 12  1  0
 11 13  1  0
 13 14  1  0
 13 15  2  0
 15 16  1  0
  6 17  2  0
 17 18  1  0
 18 19  1  0
 18 20  1  0
 18 21  1  0
 21 22  1  0
 21 23  1  0
  2 24  1  0
 24 25  2  0
 25 26  1  0
 25 27  1  0
 27 28  1  0
 27 29  2  0
 29 30  1  0
 29 31  1  0
 31 32  1  0
 31 33  2  0
 33 34  1  0
 21  5  1  0
 33 24  1  0
 15  7  1  0
M  END
>  <cnnaffinity>  (1) 
-4.69572

>  <filename>  (1) 
C(=CN1CCN=C1c1cccnc1)c1ccccc1

$$$$
