
     RDKit          3D

 32 34  0  0  0  0  0  0  0  0999 V2000
    7.0079   -3.4360   25.0093 C   0  0  0  0  0  0  0  0  0  0  0  0
    6.5977   -3.0627   23.7927 C   0  0  0  0  0  0  0  0  0  0  0  0
    7.3586   -2.2083   22.8718 C   0  0  0  0  0  0  0  0  0  0  0  0
    8.7508   -2.0012   22.9503 C   0  0  0  0  0  0  0  0  0  0  0  0
    9.4509   -1.2174   22.1225 N   0  0  0  0  0  0  0  0  0  0  0  0
    8.7653   -0.5881   21.1619 C   0  0  0  0  0  0  0  0  0  0  0  0
    7.3759   -0.7075   20.9785 C   0  0  0  0  0  0  0  0  0  0  0  0
    6.6604    0.0149   19.8979 C   0  0  0  0  0  0  0  0  0  0  0  0
    5.4373    0.6509   20.1517 C   0  0  0  0  0  0  0  0  0  0  0  0
    4.8024    1.3175   19.1043 C   0  0  0  0  0  0  0  0  0  0  0  0
    5.4006    1.2951   17.8367 C   0  0  0  0  0  0  0  0  0  0  0  0
    6.5640    0.6809   17.5651 N   0  0  0  0  0  0  0  0  0  0  0  0
    7.1730    0.0717   18.5888 C   0  0  0  0  0  0  0  0  0  0  0  0
    8.1152   -0.4301   18.3738 H   0  0  0  0  0  0  0  0  0  0  0  0
    4.9084    1.7779   16.9986 H   0  0  0  0  0  0  0  0  0  0  0  0
    3.8671    1.8481   19.2628 H   0  0  0  0  0  0  0  0  0  0  0  0
    5.0135    0.6324   21.1588 H   0  0  0  0  0  0  0  0  0  0  0  0
    6.6768   -1.5370   21.8556 C   0  0  0  0  0  0  0  0  0  0  0  0
    5.6021   -1.6638   21.7309 H   0  0  0  0  0  0  0  0  0  0  0  0
    9.3261    0.0640   20.4945 H   0  0  0  0  0  0  0  0  0  0  0  0
    9.3304   -2.5228   23.7015 H   0  0  0  0  0  0  0  0  0  0  0  0
    5.6293   -3.4103   23.4300 H   0  0  0  0  0  0  0  0  0  0  0  0
    6.2597   -4.2967   25.9390 C   0  0  0  0  0  0  0  0  0  0  0  0
    6.9262   -4.9406   26.9767 C   0  0  0  0  0  0  0  0  0  0  0  0
    6.1838   -5.7635   27.8297 C   0  0  0  0  0  0  0  0  0  0  0  0
    4.8619   -5.9441   27.6923 N   0  0  0  0  0  0  0  0  0  0  0  0
    4.2064   -5.3224   26.7047 N   0  0  0  0  0  0  0  0  0  0  0  0
    4.8673   -4.5300   25.8534 C   0  0  0  0  0  0  0  0  0  0  0  0
    4.2607   -4.0442   25.0948 H   0  0  0  0  0  0  0  0  0  0  0  0
    6.6660   -6.2844   28.6497 H   0  0  0  0  0  0  0  0  0  0  0  0
    7.9966   -4.8202   27.1187 H   0  0  0  0  0  0  0  0  0  0  0  0
    7.9670   -3.0862   25.3834 H   0  0  0  0  0  0  0  0  0  0  0  0
  1  2  2  3
  2  3  1  0
  3  4  2  0
  4  5  1  0
  5  6  2  0
  6  7  1  0
  7  8  1  0
  8  9  2  0
  9 10  1  0
 10 11  2  0
 11 12  1  0
 12 13  2  0
 13 14  1  0
 11 15  1  0
 10 16  1  0
  9 17  1  0
  7 18  2  0
 18 19  1  0
  6 20  1  0
  4 21  1  0
  2 22  1  0
  1 23  1  0
 23 24  2  0
 24 25  1  0
 25 26  2  0
 26 27  1  0
 27 28  2  0
 28 29  1  0
 25 30  1  0
 24 31  1  0
  1 32  1  0
 18  3  1  0
 28 23  1  0
 13  8  1  0
M  END
>  <cnnaffinity>  (1) 
-5.10328

>  <filename>  (1) 
C(=Cc1cncc(-c2cccnc2)c1)c1ccnnc1

$$$$
