
     RDKit          3D

 33 36  0  0  0  0  0  0  0  0999 V2000
    7.3724   -0.7578   20.9392 C   0  0  0  0  0  0  0  0  0  0  0  0
    7.7110   -0.2770   22.1442 C   0  0  0  0  0  0  0  0  0  0  0  0
    7.5635    1.0895   22.6131 C   0  0  0  0  0  0  0  0  0  0  0  0
    7.6674    1.4807   23.8474 N   0  0  0  0  0  0  0  0  0  0  0  0
    7.4766    2.8368   23.7352 C   0  0  0  0  0  0  0  0  0  0  0  0
    7.5129    3.7468   24.9132 C   0  0  0  0  0  0  0  0  0  0  0  0
    7.7451    3.2844   26.2218 C   0  0  0  0  0  0  0  0  0  0  0  0
    7.7576    4.1834   27.3029 C   0  0  0  0  0  0  0  0  0  0  0  0
    7.5840    5.5123   27.2006 N   0  0  0  0  0  0  0  0  0  0  0  0
    7.3661    5.9288   25.9544 C   0  0  0  0  0  0  0  0  0  0  0  0
    7.3100    5.1397   24.7739 C   0  0  0  0  0  0  0  0  0  0  0  0
    7.0426    6.0455   23.6908 C   0  0  0  0  0  0  0  0  0  0  0  0
    6.9492    7.2980   24.2254 C   0  0  0  0  0  0  0  0  0  0  0  0
    7.1458    7.2222   25.5874 N   0  0  0  0  0  0  0  0  0  0  0  0
    7.1351    7.9468   26.2806 H   0  0  0  0  0  0  0  0  0  0  0  0
    6.7540    8.2465   23.7372 H   0  0  0  0  0  0  0  0  0  0  0  0
    6.9416    5.7460   22.6583 H   0  0  0  0  0  0  0  0  0  0  0  0
    7.9018    3.7861   28.3055 H   0  0  0  0  0  0  0  0  0  0  0  0
    7.9119    2.2297   26.4074 H   0  0  0  0  0  0  0  0  0  0  0  0
    7.2739    3.2505   22.5079 N   0  0  0  0  0  0  0  0  0  0  0  0
    7.3348    2.0955   21.7619 O   0  0  0  0  0  0  0  0  0  0  0  0
    8.1264   -0.9076   22.9205 H   0  0  0  0  0  0  0  0  0  0  0  0
    6.6370   -0.0145   19.8904 C   0  0  0  0  0  0  0  0  0  0  0  0
    5.4183    0.6333   20.1349 C   0  0  0  0  0  0  0  0  0  0  0  0
    4.7899    1.3009   19.0815 C   0  0  0  0  0  0  0  0  0  0  0  0
    5.3930    1.3000   17.8223 C   0  0  0  0  0  0  0  0  0  0  0  0
    6.5599    0.6859   17.5651 N   0  0  0  0  0  0  0  0  0  0  0  0
    7.1530    0.0552   18.5821 C   0  0  0  0  0  0  0  0  0  0  0  0
    8.1082   -0.4194   18.3545 H   0  0  0  0  0  0  0  0  0  0  0  0
    4.9260    1.8046   16.9777 H   0  0  0  0  0  0  0  0  0  0  0  0
    3.8688    1.8458   19.2391 H   0  0  0  0  0  0  0  0  0  0  0  0
    5.0041    0.6490   21.1444 H   0  0  0  0  0  0  0  0  0  0  0  0
    7.6664   -1.7848   20.6971 H   0  0  0  0  0  0  0  0  0  0  0  0
  1  2  2  3
  2  3  1  0
  3  4  2  0
  4  5  1  0
  5  6  1  0
  6  7  2  0
  7  8  1  0
  8  9  2  0
  9 10  1  0
 10 11  2  0
 11 12  1  0
 12 13  2  0
 13 14  1  0
 14 15  1  0
 13 16  1  0
 12 17  1  0
  8 18  1  0
  7 19  1  0
  5 20  2  0
 20 21  1  0
  2 22  1  0
  1 23  1  0
 23 24  2  0
 24 25  1  0
 25 26  2  0
 26 27  1  0
 27 28  2  0
 28 29  1  0
 26 30  1  0
 25 31  1  0
 24 32  1  0
  1 33  1  0
 21  3  1  0
 28 23  1  0
 11  6  1  0
 14 10  1  0
M  END
>  <cnnaffinity>  (1) 
-5.05928

>  <filename>  (1) 
C(=Cc1nc(-c2ccnc3[nH]ccc23)no1)c1cccnc1

$$$$
