
     RDKit          3D

 34 35  0  0  0  0  0  0  0  0999 V2000
    8.5255   -0.8374   20.6345 H   0  0  0  0  0  0  0  0  0  0  0  0
    7.4582   -0.7435   20.8469 C   0  0  0  0  0  0  0  0  0  0  0  0
    6.9368   -1.3226   21.9356 C   0  0  0  0  0  0  0  0  0  0  0  0
    5.8559   -1.2808   22.0655 H   0  0  0  0  0  0  0  0  0  0  0  0
    7.6941   -1.9833   23.0600 C   0  0  0  0  0  0  0  0  0  0  0  0
    8.7287   -2.2248   22.7661 H   0  0  0  0  0  0  0  0  0  0  0  0
    7.2153   -2.9421   23.3014 H   0  0  0  0  0  0  0  0  0  0  0  0
    7.7400   -1.1535   24.3562 C   0  0  0  0  0  0  0  0  0  0  0  0
    6.7061   -0.9090   24.6605 H   0  0  0  0  0  0  0  0  0  0  0  0
    8.4902    0.1774   24.1734 C   0  0  0  0  0  0  0  0  0  0  0  0
    9.4996   -0.0352   23.7894 H   0  0  0  0  0  0  0  0  0  0  0  0
    7.9978    0.7709   23.3930 H   0  0  0  0  0  0  0  0  0  0  0  0
    8.5699    0.9773   25.4805 C   0  0  0  0  0  0  0  0  0  0  0  0
    7.5592    1.3210   25.7453 H   0  0  0  0  0  0  0  0  0  0  0  0
    9.1747    1.8804   25.3319 H   0  0  0  0  0  0  0  0  0  0  0  0
    9.1347    0.1470   26.6450 C   0  0  0  0  0  0  0  0  0  0  0  0
   10.2171    0.0106   26.5129 H   0  0  0  0  0  0  0  0  0  0  0  0
    8.9996    0.6868   27.5837 H   0  0  0  0  0  0  0  0  0  0  0  0
    8.4424   -1.2133   26.7995 C   0  0  0  0  0  0  0  0  0  0  0  0
    8.9518   -1.8021   27.5706 H   0  0  0  0  0  0  0  0  0  0  0  0
    7.4175   -1.0385   27.1584 H   0  0  0  0  0  0  0  0  0  0  0  0
    8.3707   -1.9898   25.4831 C   0  0  0  0  0  0  0  0  0  0  0  0
    7.7983   -2.9175   25.6188 H   0  0  0  0  0  0  0  0  0  0  0  0
    9.3749   -2.3088   25.1651 H   0  0  0  0  0  0  0  0  0  0  0  0
    6.6869    0.0189   19.8273 C   0  0  0  0  0  0  0  0  0  0  0  0
    7.1800    0.1008   18.5100 C   0  0  0  0  0  0  0  0  0  0  0  0
    8.1337   -0.3689   18.2603 H   0  0  0  0  0  0  0  0  0  0  0  0
    6.5578    0.7196   17.4998 N   0  0  0  0  0  0  0  0  0  0  0  0
    5.3913    1.3259   17.7818 C   0  0  0  0  0  0  0  0  0  0  0  0
    4.9125    1.8393   16.9517 H   0  0  0  0  0  0  0  0  0  0  0  0
    4.8016    1.3235   19.0478 C   0  0  0  0  0  0  0  0  0  0  0  0
    3.8554    1.8355   19.2038 H   0  0  0  0  0  0  0  0  0  0  0  0
    5.4611    0.6615   20.0895 C   0  0  0  0  0  0  0  0  0  0  0  0
    5.0457    0.6657   21.0973 H   0  0  0  0  0  0  0  0  0  0  0  0
  1  2  1  0
  2  3  2  3
  3  4  1  0
  3  5  1  0
  5  6  1  0
  5  7  1  0
  5  8  1  0
  8  9  1  0
  8 10  1  0
 10 11  1  0
 10 12  1  0
 10 13  1  0
 13 14  1  0
 13 15  1  0
 13 16  1  0
 16 17  1  0
 16 18  1  0
 16 19  1  0
 19 20  1  0
 19 21  1  0
 19 22  1  0
 22 23  1  0
 22 24  1  0
  2 25  1  0
 25 26  2  0
 26 27  1  0
 26 28  1  0
 28 29  2  0
 29 30  1  0
 29 31  1  0
 31 32  1  0
 31 33  2  0
 33 34  1  0
 22  8  1  0
 33 25  1  0
M  END
>  <cnnaffinity>  (1) 
-4.52554

>  <filename>  (1) 
C(=Cc1cccnc1)CC1CCCCC1

$$$$
