
     RDKit          3D

 32 34  0  0  0  0  0  0  0  0999 V2000
    7.5300   -2.0058   25.2659 H   0  0  0  0  0  0  0  0  0  0  0  0
    6.9555   -1.3924   24.5702 C   0  0  0  0  0  0  0  0  0  0  0  0
    5.8457   -0.7496   24.9679 C   0  0  0  0  0  0  0  0  0  0  0  0
    5.3424   -0.0716   24.2762 H   0  0  0  0  0  0  0  0  0  0  0  0
    5.1909   -0.8415   26.2899 C   0  0  0  0  0  0  0  0  0  0  0  0
    3.7983   -0.6366   26.4000 C   0  0  0  0  0  0  0  0  0  0  0  0
    3.2170   -0.4682   25.4962 H   0  0  0  0  0  0  0  0  0  0  0  0
    3.1705   -0.6461   27.6491 C   0  0  0  0  0  0  0  0  0  0  0  0
    2.0966   -0.4761   27.7233 H   0  0  0  0  0  0  0  0  0  0  0  0
    3.9304   -0.8605   28.8067 C   0  0  0  0  0  0  0  0  0  0  0  0
    3.4521   -0.8623   29.7850 H   0  0  0  0  0  0  0  0  0  0  0  0
    5.3090   -1.0734   28.7096 C   0  0  0  0  0  0  0  0  0  0  0  0
    5.9001   -1.2263   29.6104 H   0  0  0  0  0  0  0  0  0  0  0  0
    5.9312   -1.0779   27.4592 C   0  0  0  0  0  0  0  0  0  0  0  0
    7.0059   -1.2165   27.3714 H   0  0  0  0  0  0  0  0  0  0  0  0
    7.4951   -1.3646   23.1939 C   0  0  0  0  0  0  0  0  0  0  0  0
    6.8331   -0.7133   22.2389 N   0  0  0  0  0  0  0  0  0  0  0  0
    7.3842   -0.7125   21.0058 C   0  0  0  0  0  0  0  0  0  0  0  0
    6.6561   -0.0019   19.9385 C   0  0  0  0  0  0  0  0  0  0  0  0
    7.1885    0.0329   18.6401 C   0  0  0  0  0  0  0  0  0  0  0  0
    8.1365   -0.4471   18.4105 H   0  0  0  0  0  0  0  0  0  0  0  0
    6.5871    0.6463   17.6169 N   0  0  0  0  0  0  0  0  0  0  0  0
    5.4272    1.2690   17.8599 C   0  0  0  0  0  0  0  0  0  0  0  0
    4.9688    1.7686   17.0109 H   0  0  0  0  0  0  0  0  0  0  0  0
    4.8166    1.2969   19.1175 C   0  0  0  0  0  0  0  0  0  0  0  0
    3.8837    1.8335   19.2493 H   0  0  0  0  0  0  0  0  0  0  0  0
    5.4359    0.6488   20.1806 C   0  0  0  0  0  0  0  0  0  0  0  0
    4.9916    0.6463   21.1770 H   0  0  0  0  0  0  0  0  0  0  0  0
    8.5402   -1.3168   20.6939 N   0  0  0  0  0  0  0  0  0  0  0  0
    9.2201   -1.9780   21.6526 N   0  0  0  0  0  0  0  0  0  0  0  0
    8.7252   -2.0137   22.8849 C   0  0  0  0  0  0  0  0  0  0  0  0
    9.2997   -2.5510   23.6389 H   0  0  0  0  0  0  0  0  0  0  0  0
  1  2  1  0
  2  3  2  3
  3  4  1  0
  3  5  1  0
  5  6  2  0
  6  7  1  0
  6  8  1  0
  8  9  1  0
  8 10  2  0
 10 11  1  0
 10 12  1  0
 12 13  1  0
 12 14  2  0
 14 15  1  0
  2 16  1  0
 16 17  2  0
 17 18  1  0
 18 19  1  0
 19 20  2  0
 20 21  1  0
 20 22  1  0
 22 23  2  0
 23 24  1  0
 23 25  1  0
 25 26  1  0
 25 27  2  0
 27 28  1  0
 18 29  2  0
 29 30  1  0
 30 31  2  0
 31 32  1  0
 14  5  1  0
 31 16  1  0
 27 19  1  0
M  END
>  <cnnaffinity>  (1) 
-4.84379

>  <filename>  (1) 
C(=Cc1cnnc(-c2cccnc2)n1)c1ccccc1

$$$$
