
     RDKit          3D

 29 31  0  0  0  0  0  0  0  0999 V2000
    6.6698   -1.3250   21.6395 H   0  0  0  0  0  0  0  0  0  0  0  0
    7.3205   -0.7235   21.0033 C   0  0  0  0  0  0  0  0  0  0  0  0
    8.6055   -0.5449   21.3493 C   0  0  0  0  0  0  0  0  0  0  0  0
    9.3718   -1.1746   22.4418 C   0  0  0  0  0  0  0  0  0  0  0  0
    8.8664   -2.3637   23.1533 C   0  0  0  0  0  0  0  0  0  0  0  0
    9.3788   -2.6574   24.7731 S   0  0  0  0  0  0  0  0  0  0  0  0
    8.5208   -4.1453   24.8334 C   0  0  0  0  0  0  0  0  0  0  0  0
    8.5473   -4.7538   25.7279 H   0  0  0  0  0  0  0  0  0  0  0  0
    7.8762   -4.4160   23.6616 C   0  0  0  0  0  0  0  0  0  0  0  0
    7.2892   -5.3146   23.4878 H   0  0  0  0  0  0  0  0  0  0  0  0
    8.0733   -3.3882   22.6948 C   0  0  0  0  0  0  0  0  0  0  0  0
    7.6766   -3.4278   21.6841 H   0  0  0  0  0  0  0  0  0  0  0  0
   10.4851   -0.5880   22.7100 N   0  0  0  0  0  0  0  0  0  0  0  0
   10.6876    0.5119   21.7606 C   0  0  0  0  0  0  0  0  0  0  0  0
   10.7163    1.4534   22.3183 H   0  0  0  0  0  0  0  0  0  0  0  0
   11.6629    0.3940   21.2820 H   0  0  0  0  0  0  0  0  0  0  0  0
    9.5084    0.5042   20.7539 C   0  0  0  0  0  0  0  0  0  0  0  0
    9.7562    0.1703   19.7457 H   0  0  0  0  0  0  0  0  0  0  0  0
    9.0237    1.4806   20.6437 H   0  0  0  0  0  0  0  0  0  0  0  0
    6.6427   -0.0181   19.8986 C   0  0  0  0  0  0  0  0  0  0  0  0
    7.1631    0.0637   18.5915 C   0  0  0  0  0  0  0  0  0  0  0  0
    8.1081   -0.4281   18.3714 H   0  0  0  0  0  0  0  0  0  0  0  0
    6.5623    0.6862   17.5687 N   0  0  0  0  0  0  0  0  0  0  0  0
    5.3986    1.2998   17.8336 C   0  0  0  0  0  0  0  0  0  0  0  0
    4.9156    1.7875   16.9905 H   0  0  0  0  0  0  0  0  0  0  0  0
    4.7994    1.3129   19.1001 C   0  0  0  0  0  0  0  0  0  0  0  0
    3.8696    1.8485   19.2538 H   0  0  0  0  0  0  0  0  0  0  0  0
    5.4215    0.6329   20.1465 C   0  0  0  0  0  0  0  0  0  0  0  0
    5.0078    0.6225   21.1572 H   0  0  0  0  0  0  0  0  0  0  0  0
  1  2  1  0
  2  3  2  3
  3  4  1  0
  4  5  1  0
  5  6  1  0
  6  7  1  0
  7  8  1  0
  7  9  2  0
  9 10  1  0
  9 11  1  0
 11 12  1  0
  4 13  2  0
 13 14  1  0
 14 15  1  0
 14 16  1  0
 14 17  1  0
 17 18  1  0
 17 19  1  0
  2 20  1  0
 20 21  2  0
 21 22  1  0
 21 23  1  0
 23 24  2  0
 24 25  1  0
 24 26  1  0
 26 27  1  0
 26 28  2  0
 28 29  1  0
 17  3  1  0
 28 20  1  0
 11  5  2  0
M  END
>  <cnnaffinity>  (1) 
-5.12882

>  <filename>  (1) 
C(=C1CCN=C1c1cccs1)c1cccnc1

$$$$
