
     RDKit          3D

 33 35  0  0  0  0  0  0  0  0999 V2000
    6.4651   -1.2005   21.6023 H   0  0  0  0  0  0  0  0  0  0  0  0
    7.0870   -0.5506   20.9786 C   0  0  0  0  0  0  0  0  0  0  0  0
    8.3554   -0.2991   21.3546 C   0  0  0  0  0  0  0  0  0  0  0  0
    9.0889   -0.9783   22.4301 C   0  0  0  0  0  0  0  0  0  0  0  0
    8.4844   -2.0244   23.1167 N   0  0  0  0  0  0  0  0  0  0  0  0
    7.6675   -1.7723   23.6523 H   0  0  0  0  0  0  0  0  0  0  0  0
    9.1460   -2.8474   24.0023 C   0  0  0  0  0  0  0  0  0  0  0  0
    8.3555   -3.1082   25.0438 N   0  0  0  0  0  0  0  0  0  0  0  0
    8.8391   -3.9506   25.9684 C   0  0  0  0  0  0  0  0  0  0  0  0
    8.1782   -4.1696   26.8066 H   0  0  0  0  0  0  0  0  0  0  0  0
   10.1026   -4.5422   25.8978 C   0  0  0  0  0  0  0  0  0  0  0  0
   10.4479   -5.1739   26.7117 H   0  0  0  0  0  0  0  0  0  0  0  0
   10.8983   -4.2797   24.7777 C   0  0  0  0  0  0  0  0  0  0  0  0
   11.8767   -4.7476   24.6712 H   0  0  0  0  0  0  0  0  0  0  0  0
   10.4102   -3.4172   23.7953 C   0  0  0  0  0  0  0  0  0  0  0  0
   10.9529   -3.1539   22.8977 H   0  0  0  0  0  0  0  0  0  0  0  0
   10.2693   -0.5520   22.6621 N   0  0  0  0  0  0  0  0  0  0  0  0
   10.5465    0.5635   21.7488 C   0  0  0  0  0  0  0  0  0  0  0  0
   11.4475    0.3279   21.1668 H   0  0  0  0  0  0  0  0  0  0  0  0
   10.7768    1.4679   22.3267 H   0  0  0  0  0  0  0  0  0  0  0  0
    9.2970    0.7752   20.8536 C   0  0  0  0  0  0  0  0  0  0  0  0
    8.8564    1.7678   20.9912 H   0  0  0  0  0  0  0  0  0  0  0  0
    9.5137    0.6576   19.7892 H   0  0  0  0  0  0  0  0  0  0  0  0
    6.4064    0.0266   19.8065 C   0  0  0  0  0  0  0  0  0  0  0  0
    6.9920    0.0464   18.5249 C   0  0  0  0  0  0  0  0  0  0  0  0
    7.9033   -0.5223   18.3496 H   0  0  0  0  0  0  0  0  0  0  0  0
    6.4981    0.7126   17.4737 N   0  0  0  0  0  0  0  0  0  0  0  0
    5.3548    1.3878   17.6614 C   0  0  0  0  0  0  0  0  0  0  0  0
    4.9965    1.9660   16.8111 H   0  0  0  0  0  0  0  0  0  0  0  0
    4.6342    1.3637   18.8612 C   0  0  0  0  0  0  0  0  0  0  0  0
    3.7128    1.9329   18.9351 H   0  0  0  0  0  0  0  0  0  0  0  0
    5.1517    0.6479   19.9430 C   0  0  0  0  0  0  0  0  0  0  0  0
    4.6096    0.5953   20.8878 H   0  0  0  0  0  0  0  0  0  0  0  0
  1  2  1  0
  2  3  2  3
  3  4  1  0
  4  5  1  0
  5  6  1  0
  5  7  1  0
  7  8  2  0
  8  9  1  0
  9 10  1  0
  9 11  2  0
 11 12  1  0
 11 13  1  0
 13 14  1  0
 13 15  2  0
 15 16  1  0
  4 17  2  0
 17 18  1  0
 18 19  1  0
 18 20  1  0
 18 21  1  0
 21 22  1  0
 21 23  1  0
  2 24  1  0
 24 25  2  0
 25 26  1  0
 25 27  1  0
 27 28  2  0
 28 29  1  0
 28 30  1  0
 30 31  1  0
 30 32  2  0
 32 33  1  0
 21  3  1  0
 32 24  1  0
 15  7  1  0
M  END
>  <cnnaffinity>  (1) 
-4.83533

>  <filename>  (1) 
C(=C1CCN=C1Nc1ccccn1)c1cccnc1

$$$$
