
     RDKit          3D

 26 27  0  0  0  0  0  0  0  0999 V2000
    8.5087   -0.8208   20.7712 H   0  0  0  0  0  0  0  0  0  0  0  0
    7.4399   -0.7122   20.9541 C   0  0  0  0  0  0  0  0  0  0  0  0
    6.8974   -1.2626   22.0415 C   0  0  0  0  0  0  0  0  0  0  0  0
    5.8231   -1.2202   22.1801 H   0  0  0  0  0  0  0  0  0  0  0  0
    7.6220   -1.9340   23.0093 N   0  0  0  0  0  0  0  0  0  0  0  0
    8.6209   -1.8301   22.9481 H   0  0  0  0  0  0  0  0  0  0  0  0
    7.1312   -2.6371   24.0865 C   0  0  0  0  0  0  0  0  0  0  0  0
    5.8429   -3.1764   24.0783 C   0  0  0  0  0  0  0  0  0  0  0  0
    5.2038   -3.0853   23.2130 H   0  0  0  0  0  0  0  0  0  0  0  0
    5.4114   -3.8663   25.1985 C   0  0  0  0  0  0  0  0  0  0  0  0
    4.4118   -4.2917   25.2074 H   0  0  0  0  0  0  0  0  0  0  0  0
    6.1483   -4.0579   26.2988 N   0  0  0  0  0  0  0  0  0  0  0  0
    7.3843   -3.5407   26.2840 C   0  0  0  0  0  0  0  0  0  0  0  0
    7.9759   -3.7049   27.1805 H   0  0  0  0  0  0  0  0  0  0  0  0
    7.9275   -2.8375   25.2169 C   0  0  0  0  0  0  0  0  0  0  0  0
    8.9334   -2.4420   25.2747 H   0  0  0  0  0  0  0  0  0  0  0  0
    6.6727    0.0079   19.9113 C   0  0  0  0  0  0  0  0  0  0  0  0
    7.1776    0.0724   18.5956 C   0  0  0  0  0  0  0  0  0  0  0  0
    8.1215   -0.4247   18.3706 H   0  0  0  0  0  0  0  0  0  0  0  0
    6.5682    0.6792   17.5722 N   0  0  0  0  0  0  0  0  0  0  0  0
    5.4008    1.2921   17.8399 C   0  0  0  0  0  0  0  0  0  0  0  0
    4.9103    1.7778   16.9998 H   0  0  0  0  0  0  0  0  0  0  0  0
    4.8062    1.3094   19.1067 C   0  0  0  0  0  0  0  0  0  0  0  0
    3.8719    1.8438   19.2625 H   0  0  0  0  0  0  0  0  0  0  0  0
    5.4408    0.6441   20.1572 C   0  0  0  0  0  0  0  0  0  0  0  0
    5.0079    0.6381   21.1585 H   0  0  0  0  0  0  0  0  0  0  0  0
  1  2  1  0
  2  3  2  3
  3  4  1  0
  3  5  1  0
  5  6  1  0
  5  7  1  0
  7  8  2  0
  8  9  1  0
  8 10  1  0
 10 11  1  0
 10 12  2  0
 12 13  1  0
 13 14  1  0
 13 15  2  0
 15 16  1  0
  2 17  1  0
 17 18  2  0
 18 19  1  0
 18 20  1  0
 20 21  2  0
 21 22  1  0
 21 23  1  0
 23 24  1  0
 23 25  2  0
 25 26  1  0
 15  7  1  0
 25 17  1  0
M  END
>  <cnnaffinity>  (1) 
-4.58633

>  <filename>  (1) 
C(=Cc1cccnc1)Nc1ccncc1

$$$$
