
     RDKit          3D

 41 43  0  0  0  0  0  0  0  0999 V2000
    5.9993   -2.9286   25.1476 H   0  0  0  0  0  0  0  0  0  0  0  0
    7.0689   -2.9890   25.3553 C   0  0  0  0  0  0  0  0  0  0  0  0
    7.4495   -4.0464   26.3189 C   0  0  0  0  0  0  0  0  0  0  0  0
    8.6524   -3.9836   27.0320 C   0  0  0  0  0  0  0  0  0  0  0  0
    9.2905   -3.1121   26.9205 H   0  0  0  0  0  0  0  0  0  0  0  0
    9.0083   -4.9986   27.9179 C   0  0  0  0  0  0  0  0  0  0  0  0
    9.9673   -4.9615   28.4209 H   0  0  0  0  0  0  0  0  0  0  0  0
    8.1339   -6.0665   28.1445 C   0  0  0  0  0  0  0  0  0  0  0  0
    8.3824   -6.8217   28.8809 H   0  0  0  0  0  0  0  0  0  0  0  0
    6.9346   -6.1541   27.4342 C   0  0  0  0  0  0  0  0  0  0  0  0
    6.2571   -6.9922   27.5936 H   0  0  0  0  0  0  0  0  0  0  0  0
    6.6024   -5.1520   26.5208 C   0  0  0  0  0  0  0  0  0  0  0  0
    5.6819   -5.2193   25.9509 H   0  0  0  0  0  0  0  0  0  0  0  0
    7.9002   -2.1895   24.6749 C   0  0  0  0  0  0  0  0  0  0  0  0
    8.9407   -2.1061   24.9957 H   0  0  0  0  0  0  0  0  0  0  0  0
    7.4713   -1.4930   23.3967 C   0  0  2  0  0  0  0  0  0  0  0  0
    6.4797   -1.0443   23.6012 H   0  0  0  0  0  0  0  0  0  0  0  0
    7.2938   -2.4785   22.2173 C   0  0  0  0  0  0  0  0  0  0  0  0
    6.6763   -3.3314   22.5202 H   0  0  0  0  0  0  0  0  0  0  0  0
    8.2809   -2.8898   21.9504 H   0  0  0  0  0  0  0  0  0  0  0  0
    6.6706   -1.7721   21.0131 C   0  0  0  0  0  0  0  0  0  0  0  0
    6.5661   -2.4659   20.1719 H   0  0  0  0  0  0  0  0  0  0  0  0
    5.6501   -1.4534   21.2712 H   0  0  0  0  0  0  0  0  0  0  0  0
    7.4775   -0.5319   20.5596 C   0  0  1  0  0  0  0  0  0  0  0  0
    8.4318   -0.8951   20.1488 H   0  0  0  0  0  0  0  0  0  0  0  0
    6.7121    0.1959   19.4622 C   0  0  0  0  0  0  0  0  0  0  0  0
    7.1525    0.2315   18.1266 C   0  0  0  0  0  0  0  0  0  0  0  0
    8.0858   -0.2581   17.8451 H   0  0  0  0  0  0  0  0  0  0  0  0
    6.5034    0.8452   17.1261 N   0  0  0  0  0  0  0  0  0  0  0  0
    5.3567    1.4699   17.4325 C   0  0  0  0  0  0  0  0  0  0  0  0
    4.8607    1.9909   16.6180 H   0  0  0  0  0  0  0  0  0  0  0  0
    4.8033    1.4799   18.7173 C   0  0  0  0  0  0  0  0  0  0  0  0
    3.8692    2.0001   18.9080 H   0  0  0  0  0  0  0  0  0  0  0  0
    5.4895    0.8275   19.7413 C   0  0  0  0  0  0  0  0  0  0  0  0
    5.0825    0.8144   20.7570 H   0  0  0  0  0  0  0  0  0  0  0  0
    7.8366    0.3987   21.7479 C   0  0  0  0  0  0  0  0  0  0  0  0
    6.9346    0.9389   22.0711 H   0  0  0  0  0  0  0  0  0  0  0  0
    8.5457    1.1647   21.4110 H   0  0  0  0  0  0  0  0  0  0  0  0
    8.4235   -0.3753   22.9418 C   0  0  0  0  0  0  0  0  0  0  0  0
    9.3827   -0.8330   22.6460 H   0  0  0  0  0  0  0  0  0  0  0  0
    8.6396    0.3056   23.7736 H   0  0  0  0  0  0  0  0  0  0  0  0
  1  2  1  0
  2  3  1  0
  3  4  2  0
  4  5  1  0
  4  6  1  0
  6  7  1  0
  6  8  2  0
  8  9  1  0
  8 10  1  0
 10 11  1  0
 10 12  2  0
 12 13  1  0
  2 14  2  3
 14 15  1  0
 14 16  1  0
 16 17  1  1
 16 18  1  0
 18 19  1  0
 18 20  1  0
 18 21  1  0
 21 22  1  0
 21 23  1  0
 21 24  1  0
 24 25  1  6
 24 26  1  0
 26 27  2  0
 27 28  1  0
 27 29  1  0
 29 30  2  0
 30 31  1  0
 30 32  1  0
 32 33  1  0
 32 34  2  0
 34 35  1  0
 24 36  1  0
 36 37  1  0
 36 38  1  0
 36 39  1  0
 39 40  1  0
 39 41  1  0
 12  3  1  0
 39 16  1  0
 34 26  1  0
M  END
>  <cnnaffinity>  (1) 
-5.15744

>  <filename>  (1) 
C(=C[C@H]1CC[C@H](c2cccnc2)CC1)c1ccccc1

$$$$
