
     RDKit          3D

 39 41  0  0  0  0  0  0  0  0999 V2000
    8.2850    2.0190   22.1507 H   0  0  0  0  0  0  0  0  0  0  0  0
    9.1103    1.3371   21.9375 C   0  0  0  0  0  0  0  0  0  0  0  0
    8.8766    0.1269   21.4215 C   0  0  0  0  0  0  0  0  0  0  0  0
    9.7337   -0.5238   21.2259 H   0  0  0  0  0  0  0  0  0  0  0  0
    7.5233   -0.5416   21.1617 C   0  0  0  0  0  0  0  0  0  0  0  0
    6.7231    0.1789   20.0502 C   0  0  0  0  0  0  0  0  0  0  0  0
    7.2487    0.2009   18.7431 C   0  0  0  0  0  0  0  0  0  0  0  0
    8.2195   -0.2543   18.5503 H   0  0  0  0  0  0  0  0  0  0  0  0
    6.6467    0.7280   17.6678 N   0  0  0  0  0  0  0  0  0  0  0  0
    5.4475    1.2961   17.8608 C   0  0  0  0  0  0  0  0  0  0  0  0
    4.9843    1.7388   16.9810 H   0  0  0  0  0  0  0  0  0  0  0  0
    4.8126    1.3339   19.1054 C   0  0  0  0  0  0  0  0  0  0  0  0
    3.8450    1.8169   19.2023 H   0  0  0  0  0  0  0  0  0  0  0  0
    5.4600    0.7748   20.2142 C   0  0  0  0  0  0  0  0  0  0  0  0
    4.9750    0.8030   21.1911 H   0  0  0  0  0  0  0  0  0  0  0  0
    6.7067   -0.6940   22.4665 C   0  0  0  0  0  0  0  0  0  0  0  0
    6.4442    0.2802   22.8897 H   0  0  0  0  0  0  0  0  0  0  0  0
    5.7971   -1.2188   22.1656 H   0  0  0  0  0  0  0  0  0  0  0  0
    7.4334   -1.5639   23.4845 C   0  0  0  0  0  0  0  0  0  0  0  0
    8.4039   -1.1104   23.7537 H   0  0  0  0  0  0  0  0  0  0  0  0
    6.8511   -1.6831   24.4017 H   0  0  0  0  0  0  0  0  0  0  0  0
    7.6085   -2.8729   22.9727 O   0  0  0  0  0  0  0  0  0  0  0  0
    8.3378   -2.9411   21.7630 C   0  0  0  0  0  0  0  0  0  0  0  0
    8.2387   -3.9822   21.4353 H   0  0  0  0  0  0  0  0  0  0  0  0
    9.4089   -2.7584   21.9512 H   0  0  0  0  0  0  0  0  0  0  0  0
    7.8097   -1.9948   20.6776 C   0  0  0  0  0  0  0  0  0  0  0  0
    6.8964   -2.4153   20.2381 H   0  0  0  0  0  0  0  0  0  0  0  0
    8.5632   -1.8922   19.8965 H   0  0  0  0  0  0  0  0  0  0  0  0
   10.4627    1.8615   22.2575 C   0  0  0  0  0  0  0  0  0  0  0  0
   11.6168    1.0528   22.1748 C   0  0  0  0  0  0  0  0  0  0  0  0
   11.5267   -0.0053   21.9425 H   0  0  0  0  0  0  0  0  0  0  0  0
   12.8861    1.5929   22.3930 C   0  0  0  0  0  0  0  0  0  0  0  0
   13.7636    0.9659   22.2438 H   0  0  0  0  0  0  0  0  0  0  0  0
   13.0304    2.9403   22.7335 C   0  0  0  0  0  0  0  0  0  0  0  0
   14.0170    3.3777   22.8846 H   0  0  0  0  0  0  0  0  0  0  0  0
   11.8934    3.7425   22.8695 C   0  0  0  0  0  0  0  0  0  0  0  0
   12.0106    4.7792   23.1705 H   0  0  0  0  0  0  0  0  0  0  0  0
   10.6199    3.2150   22.6174 C   0  0  0  0  0  0  0  0  0  0  0  0
    9.7383    3.8442   22.7179 H   0  0  0  0  0  0  0  0  0  0  0  0
  1  2  1  0
  2  3  2  3
  3  4  1  0
  3  5  1  0
  5  6  1  0
  6  7  2  0
  7  8  1  0
  7  9  1  0
  9 10  2  0
 10 11  1  0
 10 12  1  0
 12 13  1  0
 12 14  2  0
 14 15  1  0
  5 16  1  0
 16 17  1  0
 16 18  1  0
 16 19  1  0
 19 20  1  0
 19 21  1  0
 19 22  1  0
 22 23  1  0
 23 24  1  0
 23 25  1  0
 23 26  1  0
 26 27  1  0
 26 28  1  0
  2 29  1  0
 29 30  2  0
 30 31  1  0
 30 32  1  0
 32 33  1  0
 32 34  2  0
 34 35  1  0
 34 36  1  0
 36 37  1  0
 36 38  2  0
 38 39  1  0
 26  5  1  0
 38 29  1  0
 14  6  1  0
M  END
>  <cnnaffinity>  (1) 
-4.86746

>  <filename>  (1) 
C(=CC1(c2cccnc2)CCOCC1)c1ccccc1

$$$$
