
     RDKit          3D

 35 37  0  0  0  0  0  0  0  0999 V2000
    8.5384    2.1526   23.6947 H   0  0  0  0  0  0  0  0  0  0  0  0
    9.1004    2.1520   22.7624 C   0  0  0  0  0  0  0  0  0  0  0  0
    8.7626    1.2749   21.8049 C   0  0  0  0  0  0  0  0  0  0  0  0
    9.1105    1.4115   20.7753 H   0  0  0  0  0  0  0  0  0  0  0  0
    7.9688    0.1771   22.0274 N   0  0  0  0  0  0  0  0  0  0  0  0
    7.4579   -0.1738   23.3463 C   0  0  0  0  0  0  0  0  0  0  0  0
    8.2462   -0.1111   24.1099 H   0  0  0  0  0  0  0  0  0  0  0  0
    6.6246    0.4830   23.6409 H   0  0  0  0  0  0  0  0  0  0  0  0
    7.0126   -1.6015   23.0834 C   0  0  0  0  0  0  0  0  0  0  0  0
    6.1844   -1.9419   23.7014 H   0  0  0  0  0  0  0  0  0  0  0  0
    7.8678   -2.2878   23.2088 H   0  0  0  0  0  0  0  0  0  0  0  0
    6.5611   -1.5732   21.7363 O   0  0  0  0  0  0  0  0  0  0  0  0
    7.4052   -0.6981   21.0182 C   0  0  1  0  0  0  0  0  0  0  0  0
    8.1934   -1.3051   20.5321 H   0  0  0  0  0  0  0  0  0  0  0  0
    6.6277    0.0230   19.9373 C   0  0  0  0  0  0  0  0  0  0  0  0
    7.1757    0.0550   18.6595 C   0  0  0  0  0  0  0  0  0  0  0  0
    8.1138   -0.4599   18.4468 H   0  0  0  0  0  0  0  0  0  0  0  0
    6.6120    0.6689   17.6078 N   0  0  0  0  0  0  0  0  0  0  0  0
    5.4478    1.2972   17.8183 C   0  0  0  0  0  0  0  0  0  0  0  0
    5.0063    1.7972   16.9531 H   0  0  0  0  0  0  0  0  0  0  0  0
    4.8039    1.3195   19.0601 C   0  0  0  0  0  0  0  0  0  0  0  0
    3.8614    1.8477   19.1576 H   0  0  0  0  0  0  0  0  0  0  0  0
    5.4003    0.6699   20.1425 C   0  0  0  0  0  0  0  0  0  0  0  0
    4.9081    0.6527   21.1151 H   0  0  0  0  0  0  0  0  0  0  0  0
   10.1405    3.1848   22.6448 C   0  0  0  0  0  0  0  0  0  0  0  0
   11.2434    3.0582   21.7802 C   0  0  0  0  0  0  0  0  0  0  0  0
   11.3595    2.1508   21.1880 H   0  0  0  0  0  0  0  0  0  0  0  0
   12.1866    4.0843   21.6744 C   0  0  0  0  0  0  0  0  0  0  0  0
   13.0225    3.9775   20.9860 H   0  0  0  0  0  0  0  0  0  0  0  0
   12.0396    5.2445   22.4438 C   0  0  0  0  0  0  0  0  0  0  0  0
   12.7679    6.0489   22.3920 H   0  0  0  0  0  0  0  0  0  0  0  0
   10.9405    5.3881   23.2977 C   0  0  0  0  0  0  0  0  0  0  0  0
   10.8252    6.2902   23.8921 H   0  0  0  0  0  0  0  0  0  0  0  0
   10.0053    4.3588   23.4092 C   0  0  0  0  0  0  0  0  0  0  0  0
    9.1601    4.4550   24.0893 H   0  0  0  0  0  0  0  0  0  0  0  0
  1  2  1  0
  2  3  2  3
  3  4  1  0
  3  5  1  0
  5  6  1  0
  6  7  1  0
  6  8  1  0
  6  9  1  0
  9 10  1  0
  9 11  1  0
  9 12  1  0
 12 13  1  0
 13 14  1  6
 13 15  1  0
 15 16  2  0
 16 17  1  0
 16 18  1  0
 18 19  2  0
 19 20  1  0
 19 21  1  0
 21 22  1  0
 21 23  2  0
 23 24  1  0
  2 25  1  0
 25 26  2  0
 26 27  1  0
 26 28  1  0
 28 29  1  0
 28 30  2  0
 30 31  1  0
 30 32  1  0
 32 33  1  0
 32 34  2  0
 34 35  1  0
 13  5  1  0
 23 15  1  0
 34 25  1  0
M  END
>  <cnnaffinity>  (1) 
-4.72991

>  <filename>  (1) 
C(=CN1CCO[C@H]1c1cccnc1)c1ccccc1

$$$$
