
     RDKit          3D

 38 41  0  0  0  0  0  0  0  0999 V2000
    9.3780    0.8642   20.2893 H   0  0  0  0  0  0  0  0  0  0  0  0
    9.6550    0.0358   20.9417 C   0  0  0  0  0  0  0  0  0  0  0  0
    8.7028   -0.8349   21.3454 C   0  0  0  0  0  0  0  0  0  0  0  0
    7.2579   -0.8363   21.0184 C   0  0  0  0  0  0  0  0  0  0  0  0
    6.6346   -0.0372   19.9381 C   0  0  0  0  0  0  0  0  0  0  0  0
    7.2346    0.0163   18.6773 C   0  0  0  0  0  0  0  0  0  0  0  0
    8.1885   -0.4839   18.4968 H   0  0  0  0  0  0  0  0  0  0  0  0
    6.7008    0.6536   17.6276 N   0  0  0  0  0  0  0  0  0  0  0  0
    5.5402    1.2966   17.8191 C   0  0  0  0  0  0  0  0  0  0  0  0
    5.1265    1.8071   16.9504 H   0  0  0  0  0  0  0  0  0  0  0  0
    4.8614    1.3117   19.0420 C   0  0  0  0  0  0  0  0  0  0  0  0
    3.9276    1.8548   19.1309 H   0  0  0  0  0  0  0  0  0  0  0  0
    5.4086    0.6199   20.1200 C   0  0  0  0  0  0  0  0  0  0  0  0
    4.9082    0.5813   21.0886 H   0  0  0  0  0  0  0  0  0  0  0  0
    6.5606   -1.6105   21.7640 N   0  0  0  0  0  0  0  0  0  0  0  0
    7.4198   -2.2332   22.7750 C   0  0  0  0  0  0  0  0  0  0  0  0
    7.1304   -1.8360   23.7540 H   0  0  0  0  0  0  0  0  0  0  0  0
    7.2277   -3.3094   22.8029 H   0  0  0  0  0  0  0  0  0  0  0  0
    8.8893   -1.8770   22.4277 C   0  0  0  0  0  0  0  0  0  0  0  0
    9.4195   -2.7545   22.0375 H   0  0  0  0  0  0  0  0  0  0  0  0
    9.4582   -1.4940   23.2858 H   0  0  0  0  0  0  0  0  0  0  0  0
   11.0544    0.0151   21.3961 C   0  0  0  0  0  0  0  0  0  0  0  0
   11.8078   -1.1535   21.4211 C   0  0  0  0  0  0  0  0  0  0  0  0
   11.3754   -2.0614   21.0138 H   0  0  0  0  0  0  0  0  0  0  0  0
   13.1345   -1.1985   21.9224 C   0  0  0  0  0  0  0  0  0  0  0  0
   13.6722   -2.1439   21.9330 H   0  0  0  0  0  0  0  0  0  0  0  0
   13.7289   -0.0468   22.3786 C   0  0  0  0  0  0  0  0  0  0  0  0
   14.7497   -0.0436   22.7596 H   0  0  0  0  0  0  0  0  0  0  0  0
   13.0168    1.1900   22.3439 C   0  0  0  0  0  0  0  0  0  0  0  0
   13.6459    2.3924   22.7572 C   0  0  0  0  0  0  0  0  0  0  0  0
   14.7053    2.3186   22.9113 H   0  0  0  0  0  0  0  0  0  0  0  0
   12.9899    3.5967   22.7870 C   0  0  0  0  0  0  0  0  0  0  0  0
   13.4871    4.4974   23.1397 H   0  0  0  0  0  0  0  0  0  0  0  0
   11.6430    3.6523   22.3471 C   0  0  0  0  0  0  0  0  0  0  0  0
   11.1216    4.6051   22.3427 H   0  0  0  0  0  0  0  0  0  0  0  0
   11.0020    2.5100   21.9092 C   0  0  0  0  0  0  0  0  0  0  0  0
    9.9630    2.5648   21.6010 H   0  0  0  0  0  0  0  0  0  0  0  0
   11.6672    1.2434   21.8653 C   0  0  0  0  0  0  0  0  0  0  0  0
  1  2  1  0
  2  3  2  3
  3  4  1  0
  4  5  1  0
  5  6  2  0
  6  7  1  0
  6  8  1  0
  8  9  2  0
  9 10  1  0
  9 11  1  0
 11 12  1  0
 11 13  2  0
 13 14  1  0
  4 15  2  0
 15 16  1  0
 16 17  1  0
 16 18  1  0
 16 19  1  0
 19 20  1  0
 19 21  1  0
  2 22  1  0
 22 23  2  0
 23 24  1  0
 23 25  1  0
 25 26  1  0
 25 27  2  0
 27 28  1  0
 27 29  1  0
 29 30  2  0
 30 31  1  0
 30 32  1  0
 32 33  1  0
 32 34  2  0
 34 35  1  0
 34 36  1  0
 36 37  1  0
 36 38  2  0
 19  3  1  0
 38 22  1  0
 13  5  1  0
 38 29  1  0
M  END
>  <cnnaffinity>  (1) 
-6.21132

>  <filename>  (1) 
C(=C1CCN=C1c1cccnc1)c1cccc2ccccc12

$$$$
