
     RDKit          3D

 41 44  0  0  0  0  0  0  0  0999 V2000
    5.2512   -2.3215   21.1760 H   0  0  0  0  0  0  0  0  0  0  0  0
    5.9824   -2.4375   21.9831 C   0  0  0  0  0  0  0  0  0  0  0  0
    7.1005   -1.6923   22.0044 C   0  0  0  0  0  0  0  0  0  0  0  0
    7.5535   -0.7290   20.9931 C   0  0  0  0  0  0  0  0  0  0  0  0
    6.6977   -0.0721   19.9722 C   0  0  0  0  0  0  0  0  0  0  0  0
    7.2443    0.0057   18.6857 C   0  0  0  0  0  0  0  0  0  0  0  0
    8.2033   -0.4682   18.4904 H   0  0  0  0  0  0  0  0  0  0  0  0
    6.6554    0.6074   17.6499 N   0  0  0  0  0  0  0  0  0  0  0  0
    5.4825    1.2152   17.8907 C   0  0  0  0  0  0  0  0  0  0  0  0
    5.0267    1.7214   17.0413 H   0  0  0  0  0  0  0  0  0  0  0  0
    4.8569    1.2234   19.1430 C   0  0  0  0  0  0  0  0  0  0  0  0
    3.9233    1.7672   19.2639 H   0  0  0  0  0  0  0  0  0  0  0  0
    5.4699    0.5614   20.2113 C   0  0  0  0  0  0  0  0  0  0  0  0
    5.0061    0.5642   21.2034 H   0  0  0  0  0  0  0  0  0  0  0  0
    8.8135   -0.4794   21.0361 N   0  0  0  0  0  0  0  0  0  0  0  0
    9.4158   -1.2198   22.1429 C   0  0  0  0  0  0  0  0  0  0  0  0
   10.0164   -0.5493   22.7604 H   0  0  0  0  0  0  0  0  0  0  0  0
   10.0776   -1.9850   21.7220 H   0  0  0  0  0  0  0  0  0  0  0  0
    8.2703   -1.8521   22.9585 C   0  0  0  0  0  0  0  0  0  0  0  0
    8.4653   -2.8906   23.2388 H   0  0  0  0  0  0  0  0  0  0  0  0
    8.1033   -1.2743   23.8743 H   0  0  0  0  0  0  0  0  0  0  0  0
    5.7037   -3.3679   23.0047 N   0  0  0  0  0  0  0  0  0  0  0  0
    4.8224   -4.4830   22.6566 C   0  0  0  0  0  0  0  0  0  0  0  0
    5.2402   -5.0183   21.7939 H   0  0  0  0  0  0  0  0  0  0  0  0
    3.8294   -4.1089   22.3399 H   0  0  0  0  0  0  0  0  0  0  0  0
    4.6258   -5.4789   23.8005 C   0  0  0  0  0  0  0  0  0  0  0  0
    4.0001   -6.7132   23.5485 C   0  0  0  0  0  0  0  0  0  0  0  0
    3.6403   -6.9466   22.5470 H   0  0  0  0  0  0  0  0  0  0  0  0
    3.8237   -7.6507   24.5716 C   0  0  0  0  0  0  0  0  0  0  0  0
    3.3360   -8.6009   24.3684 H   0  0  0  0  0  0  0  0  0  0  0  0
    4.2584   -7.3572   25.8692 C   0  0  0  0  0  0  0  0  0  0  0  0
    4.1155   -8.0794   26.6715 H   0  0  0  0  0  0  0  0  0  0  0  0
    4.8597   -6.1241   26.1360 C   0  0  0  0  0  0  0  0  0  0  0  0
    5.1756   -5.8930   27.1534 H   0  0  0  0  0  0  0  0  0  0  0  0
    5.0427   -5.1740   25.1160 C   0  0  0  0  0  0  0  0  0  0  0  0
    5.6794   -3.8236   25.4115 C   0  0  0  0  0  0  0  0  0  0  0  0
    5.3213   -3.4398   26.3762 H   0  0  0  0  0  0  0  0  0  0  0  0
    6.7710   -3.9368   25.4842 H   0  0  0  0  0  0  0  0  0  0  0  0
    5.3424   -2.8099   24.3229 C   0  0  0  0  0  0  0  0  0  0  0  0
    5.8445   -1.8506   24.4861 H   0  0  0  0  0  0  0  0  0  0  0  0
    4.2542   -2.6163   24.3679 H   0  0  0  0  0  0  0  0  0  0  0  0
  1  2  1  0
  2  3  2  3
  3  4  1  0
  4  5  1  0
  5  6  2  0
  6  7  1  0
  6  8  1  0
  8  9  2  0
  9 10  1  0
  9 11  1  0
 11 12  1  0
 11 13  2  0
 13 14  1  0
  4 15  2  0
 15 16  1  0
 16 17  1  0
 16 18  1  0
 16 19  1  0
 19 20  1  0
 19 21  1  0
  2 22  1  0
 22 23  1  0
 23 24  1  0
 23 25  1  0
 23 26  1  0
 26 27  2  0
 27 28  1  0
 27 29  1  0
 29 30  1  0
 29 31  2  0
 31 32  1  0
 31 33  1  0
 33 34  1  0
 33 35  2  0
 35 36  1  0
 36 37  1  0
 36 38  1  0
 36 39  1  0
 39 40  1  0
 39 41  1  0
 19  3  1  0
 39 22  1  0
 13  5  1  0
 35 26  1  0
M  END
>  <cnnaffinity>  (1) 
-5.14377

>  <filename>  (1) 
C(=C1CCN=C1c1cccnc1)N1CCc2ccccc2C1

$$$$
