
     RDKit          3D

 31 33  0  0  0  0  0  0  0  0999 V2000
    7.0035   -0.2968   22.0608 H   0  0  0  0  0  0  0  0  0  0  0  0
    7.3098   -0.6069   21.0552 C   0  0  0  0  0  0  0  0  0  0  0  0
    8.2338   -1.5658   20.9083 C   0  0  0  0  0  0  0  0  0  0  0  0
    8.6487   -1.7485   19.9160 H   0  0  0  0  0  0  0  0  0  0  0  0
    8.8643   -2.3296   22.0026 C   0  0  0  0  0  0  0  0  0  0  0  0
   10.2446   -2.4160   21.9736 C   0  0  0  0  0  0  0  0  0  0  0  0
   10.7647   -2.0140   21.1126 H   0  0  0  0  0  0  0  0  0  0  0  0
   10.9881   -2.9676   23.0428 C   0  0  0  0  0  0  0  0  0  0  0  0
   12.0732   -3.0061   22.9544 H   0  0  0  0  0  0  0  0  0  0  0  0
   10.3351   -3.4491   24.1552 C   0  0  0  0  0  0  0  0  0  0  0  0
   10.8948   -3.8533   24.9986 H   0  0  0  0  0  0  0  0  0  0  0  0
    8.9051   -3.4488   24.2155 C   0  0  0  0  0  0  0  0  0  0  0  0
    8.1955   -3.9656   25.3492 C   0  0  0  0  0  0  0  0  0  0  0  0
    8.7735   -4.3480   26.1881 H   0  0  0  0  0  0  0  0  0  0  0  0
    6.8207   -3.9846   25.3869 C   0  0  0  0  0  0  0  0  0  0  0  0
    6.2968   -4.3857   26.2517 H   0  0  0  0  0  0  0  0  0  0  0  0
    6.0692   -3.4918   24.2888 C   0  0  0  0  0  0  0  0  0  0  0  0
    4.9829   -3.5054   24.3244 H   0  0  0  0  0  0  0  0  0  0  0  0
    6.7193   -2.9871   23.1833 C   0  0  0  0  0  0  0  0  0  0  0  0
    6.1529   -2.6188   22.3385 H   0  0  0  0  0  0  0  0  0  0  0  0
    8.1513   -2.9145   23.1128 C   0  0  0  0  0  0  0  0  0  0  0  0
    6.6356    0.0607   19.9254 C   0  0  0  0  0  0  0  0  0  0  0  0
    7.1406    0.0677   18.6079 C   0  0  0  0  0  0  0  0  0  0  0  0
    8.0898   -0.4078   18.3590 H   0  0  0  0  0  0  0  0  0  0  0  0
    6.5392    0.6664   17.5746 N   0  0  0  0  0  0  0  0  0  0  0  0
    5.3812    1.3047   17.8114 C   0  0  0  0  0  0  0  0  0  0  0  0
    4.9360    1.8130   16.9561 H   0  0  0  0  0  0  0  0  0  0  0  0
    4.7733    1.3421   19.0714 C   0  0  0  0  0  0  0  0  0  0  0  0
    3.8328    1.8681   19.1980 H   0  0  0  0  0  0  0  0  0  0  0  0
    5.4109    0.7081   20.1376 C   0  0  0  0  0  0  0  0  0  0  0  0
    4.9800    0.6959   21.1374 H   0  0  0  0  0  0  0  0  0  0  0  0
  1  2  1  0
  2  3  2  3
  3  4  1  0
  3  5  1  0
  5  6  2  0
  6  7  1  0
  6  8  1  0
  8  9  1  0
  8 10  2  0
 10 11  1  0
 10 12  1  0
 12 13  2  0
 13 14  1  0
 13 15  1  0
 15 16  1  0
 15 17  2  0
 17 18  1  0
 17 19  1  0
 19 20  1  0
 19 21  2  0
  2 22  1  0
 22 23  2  0
 23 24  1  0
 23 25  1  0
 25 26  2  0
 26 27  1  0
 26 28  1  0
 28 29  1  0
 28 30  2  0
 30 31  1  0
 21  5  1  0
 30 22  1  0
 21 12  1  0
M  END
>  <cnnaffinity>  (1) 
-4.93951

>  <filename>  (1) 
C(=Cc1cccc2ccccc12)c1cccnc1

$$$$
