
     RDKit          3D

 26 27  0  0  0  0  0  0  0  0999 V2000
    6.8978   -0.6918   21.9720 H   0  0  0  0  0  0  0  0  0  0  0  0
    7.3852   -0.7049   20.9934 C   0  0  0  0  0  0  0  0  0  0  0  0
    8.5021   -1.3150   20.7918 N   0  0  0  0  0  0  0  0  0  0  0  0
    9.1414   -2.0190   21.7456 N   0  0  0  0  0  0  0  0  0  0  0  0
   10.0395   -2.3715   21.4397 H   0  0  0  0  0  0  0  0  0  0  0  0
    8.8697   -1.9411   23.1757 C   0  0  0  0  0  0  0  0  0  0  0  0
    9.5180   -2.6814   23.6457 H   0  0  0  0  0  0  0  0  0  0  0  0
    7.8365   -2.2743   23.3376 H   0  0  0  0  0  0  0  0  0  0  0  0
    9.0288   -0.5813   23.8132 C   0  0  0  0  0  0  0  0  0  0  0  0
   10.5150    0.2840   23.7156 S   0  0  0  0  0  0  0  0  0  0  0  0
    9.8589    1.6006   24.6056 C   0  0  0  0  0  0  0  0  0  0  0  0
   10.4832    2.4559   24.8132 H   0  0  0  0  0  0  0  0  0  0  0  0
    8.5613    1.3950   24.9567 C   0  0  0  0  0  0  0  0  0  0  0  0
    7.9635    2.1047   25.5184 H   0  0  0  0  0  0  0  0  0  0  0  0
    8.0841    0.1279   24.4950 C   0  0  0  0  0  0  0  0  0  0  0  0
    7.0775   -0.2421   24.6620 H   0  0  0  0  0  0  0  0  0  0  0  0
    6.6805   -0.0023   19.9187 C   0  0  0  0  0  0  0  0  0  0  0  0
    7.1908    0.0464   18.6096 C   0  0  0  0  0  0  0  0  0  0  0  0
    8.1325   -0.4297   18.3612 H   0  0  0  0  0  0  0  0  0  0  0  0
    6.5731    0.6634   17.5957 N   0  0  0  0  0  0  0  0  0  0  0  0
    5.4114    1.2814   17.8528 C   0  0  0  0  0  0  0  0  0  0  0  0
    4.9350    1.7750   17.0056 H   0  0  0  0  0  0  0  0  0  0  0  0
    4.8170    1.2985   19.1179 C   0  0  0  0  0  0  0  0  0  0  0  0
    3.8860    1.8336   19.2578 H   0  0  0  0  0  0  0  0  0  0  0  0
    5.4535    0.6407   20.1681 C   0  0  0  0  0  0  0  0  0  0  0  0
    4.9992    0.6391   21.1600 H   0  0  0  0  0  0  0  0  0  0  0  0
  1  2  1  0
  2  3  2  3
  3  4  1  0
  4  5  1  0
  4  6  1  0
  6  7  1  0
  6  8  1  0
  6  9  1  0
  9 10  1  0
 10 11  1  0
 11 12  1  0
 11 13  2  0
 13 14  1  0
 13 15  1  0
 15 16  1  0
  2 17  1  0
 17 18  2  0
 18 19  1  0
 18 20  1  0
 20 21  2  0
 21 22  1  0
 21 23  1  0
 23 24  1  0
 23 25  2  0
 25 26  1  0
 15  9  2  0
 25 17  1  0
M  END
>  <cnnaffinity>  (1) 
-4.51635

>  <filename>  (1) 
C(=NNCc1cccs1)c1cccnc1

$$$$
