
     RDKit          3D

 38 40  0  0  0  0  0  0  0  0999 V2000
    7.4025   -0.6337   21.0110 C   0  0  0  0  0  0  0  0  0  0  0  0
    7.5739   -0.2858   22.2344 N   0  0  0  0  0  0  0  0  0  0  0  0
    6.9712    0.9128   22.5528 O   0  0  0  0  0  0  0  0  0  0  0  0
    7.1788    1.2649   23.9224 C   0  0  0  0  0  0  0  0  0  0  0  0
    6.2786    0.4311   24.8390 C   0  0  0  0  0  0  0  0  0  0  0  0
    6.4286    0.9364   26.1680 O   0  0  0  0  0  0  0  0  0  0  0  0
    5.7539    0.3734   27.2159 C   0  0  0  0  0  0  0  0  0  0  0  0
    4.8844   -0.6954   27.0854 C   0  0  0  0  0  0  0  0  0  0  0  0
    4.2204   -1.2338   28.2215 C   0  0  0  0  0  0  0  0  0  0  0  0
    4.4225   -0.7069   29.4708 C   0  0  0  0  0  0  0  0  0  0  0  0
    5.3076    0.3988   29.6561 C   0  0  0  0  0  0  0  0  0  0  0  0
    5.5265    0.9587   30.9543 C   0  0  0  0  0  0  0  0  0  0  0  0
    6.3778    2.0246   31.1276 C   0  0  0  0  0  0  0  0  0  0  0  0
    7.0532    2.5846   30.0125 C   0  0  0  0  0  0  0  0  0  0  0  0
    6.8680    2.0648   28.7465 C   0  0  0  0  0  0  0  0  0  0  0  0
    5.9904    0.9594   28.5259 C   0  0  0  0  0  0  0  0  0  0  0  0
    7.3832    2.4791   27.8874 H   0  0  0  0  0  0  0  0  0  0  0  0
    7.7156    3.4304   30.1699 H   0  0  0  0  0  0  0  0  0  0  0  0
    6.5396    2.4420   32.1201 H   0  0  0  0  0  0  0  0  0  0  0  0
    5.0056    0.5200   31.8018 H   0  0  0  0  0  0  0  0  0  0  0  0
    3.9200   -1.1177   30.3426 H   0  0  0  0  0  0  0  0  0  0  0  0
    3.5448   -2.0785   28.0885 H   0  0  0  0  0  0  0  0  0  0  0  0
    4.7040   -1.1336   26.1092 H   0  0  0  0  0  0  0  0  0  0  0  0
    6.5713   -0.6265   24.7815 H   0  0  0  0  0  0  0  0  0  0  0  0
    5.2348    0.5223   24.5033 H   0  0  0  0  0  0  0  0  0  0  0  0
    8.2408    1.1755   24.1858 H   0  0  0  0  0  0  0  0  0  0  0  0
    6.8827    2.3194   23.9362 H   0  0  0  0  0  0  0  0  0  0  0  0
    6.6493    0.0411   19.9347 C   0  0  0  0  0  0  0  0  0  0  0  0
    5.4186    0.6768   20.1598 C   0  0  0  0  0  0  0  0  0  0  0  0
    4.7879    1.3076   19.0906 C   0  0  0  0  0  0  0  0  0  0  0  0
    5.4004    1.2843   17.8348 C   0  0  0  0  0  0  0  0  0  0  0  0
    6.5625    0.6574   17.6017 N   0  0  0  0  0  0  0  0  0  0  0  0
    7.1651    0.0554   18.6300 C   0  0  0  0  0  0  0  0  0  0  0  0
    8.1110   -0.4298   18.3901 H   0  0  0  0  0  0  0  0  0  0  0  0
    4.9470    1.7878   16.9813 H   0  0  0  0  0  0  0  0  0  0  0  0
    3.8595    1.8461   19.2247 H   0  0  0  0  0  0  0  0  0  0  0  0
    4.9781    0.6743   21.1533 H   0  0  0  0  0  0  0  0  0  0  0  0
    7.9050   -1.5776   20.7931 H   0  0  0  0  0  0  0  0  0  0  0  0
  1  2  2  3
  2  3  1  0
  3  4  1  0
  4  5  1  0
  5  6  1  0
  6  7  1  0
  7  8  2  0
  8  9  1  0
  9 10  2  0
 10 11  1  0
 11 12  2  0
 12 13  1  0
 13 14  2  0
 14 15  1  0
 15 16  2  0
 15 17  1  0
 14 18  1  0
 13 19  1  0
 12 20  1  0
 10 21  1  0
  9 22  1  0
  8 23  1  0
  5 24  1  0
  5 25  1  0
  4 26  1  0
  4 27  1  0
  1 28  1  0
 28 29  2  0
 29 30  1  0
 30 31  2  0
 31 32  1  0
 32 33  2  0
 33 34  1  0
 31 35  1  0
 30 36  1  0
 29 37  1  0
  1 38  1  0
 16  7  1  0
 33 28  1  0
 16 11  1  0
M  END
>  <cnnaffinity>  (1) 
-4.58066

>  <filename>  (1) 
C(=NOCCOc1cccc2ccccc12)c1cccnc1

$$$$
