
     RDKit          3D

 26 28  0  0  0  0  0  0  0  0999 V2000
    6.5916   -0.6004   21.9809 H   0  0  0  0  0  0  0  0  0  0  0  0
    7.1868   -0.4868   21.0581 C   0  0  0  0  0  0  0  0  0  0  0  0
    8.4295   -0.7912   21.0018 N   0  0  0  0  0  0  0  0  0  0  0  0
    8.9770   -1.4445   22.0949 C   0  0  0  0  0  0  0  0  0  0  0  0
    8.3286   -1.7828   23.1641 N   0  0  0  0  0  0  0  0  0  0  0  0
    9.1234   -2.5859   23.9494 C   0  0  0  0  0  0  0  0  0  0  0  0
    8.6846   -3.2294   25.1141 C   0  0  0  0  0  0  0  0  0  0  0  0
    7.6707   -3.0318   25.4445 H   0  0  0  0  0  0  0  0  0  0  0  0
    9.5434   -4.1114   25.7684 C   0  0  0  0  0  0  0  0  0  0  0  0
    9.2056   -4.6355   26.6585 H   0  0  0  0  0  0  0  0  0  0  0  0
   10.8336   -4.3592   25.2651 C   0  0  0  0  0  0  0  0  0  0  0  0
   11.4870   -5.0471   25.7974 H   0  0  0  0  0  0  0  0  0  0  0  0
   11.2774   -3.7293   24.1022 C   0  0  0  0  0  0  0  0  0  0  0  0
   12.2683   -3.8710   23.6989 H   0  0  0  0  0  0  0  0  0  0  0  0
   10.4262   -2.8308   23.4553 C   0  0  0  0  0  0  0  0  0  0  0  0
   10.6450   -1.9597   21.9638 S   0  0  0  0  0  0  0  0  0  0  0  0
    6.4864    0.0869   19.9139 C   0  0  0  0  0  0  0  0  0  0  0  0
    7.0867    0.0636   18.6390 C   0  0  0  0  0  0  0  0  0  0  0  0
    8.0320   -0.4573   18.5122 H   0  0  0  0  0  0  0  0  0  0  0  0
    6.5651    0.6623   17.5685 N   0  0  0  0  0  0  0  0  0  0  0  0
    5.4091    1.3213   17.7351 C   0  0  0  0  0  0  0  0  0  0  0  0
    5.0145    1.8172   16.8496 H   0  0  0  0  0  0  0  0  0  0  0  0
    4.7168    1.3837   18.9508 C   0  0  0  0  0  0  0  0  0  0  0  0
    3.7940    1.9503   19.0072 H   0  0  0  0  0  0  0  0  0  0  0  0
    5.2535    0.7426   20.0655 C   0  0  0  0  0  0  0  0  0  0  0  0
    4.7503    0.7808   21.0370 H   0  0  0  0  0  0  0  0  0  0  0  0
  1  2  1  0
  2  3  2  3
  3  4  1  0
  4  5  2  0
  5  6  1  0
  6  7  2  0
  7  8  1  0
  7  9  1  0
  9 10  1  0
  9 11  2  0
 11 12  1  0
 11 13  1  0
 13 14  1  0
 13 15  2  0
 15 16  1  0
  2 17  1  0
 17 18  2  0
 18 19  1  0
 18 20  1  0
 20 21  2  0
 21 22  1  0
 21 23  1  0
 23 24  1  0
 23 25  2  0
 25 26  1  0
 16  4  1  0
 25 17  1  0
 15  6  1  0
M  END
>  <cnnaffinity>  (1) 
-5.04404

>  <filename>  (1) 
C(=Nc1nc2ccccc2s1)c1cccnc1

$$$$
