
     RDKit          3D

 41 44  0  0  0  0  0  0  0  0999 V2000
    7.1465    0.9186   22.4530 H   0  0  0  0  0  0  0  0  0  0  0  0
    7.5498   -0.0736   22.2407 C   0  0  0  0  0  0  0  0  0  0  0  0
    7.3938   -0.6133   21.0252 C   0  0  0  0  0  0  0  0  0  0  0  0
    6.6694    0.0761   19.9168 C   0  0  0  0  0  0  0  0  0  0  0  0
    7.1577    0.0775   18.5958 C   0  0  0  0  0  0  0  0  0  0  0  0
    8.0953   -0.4284   18.3593 H   0  0  0  0  0  0  0  0  0  0  0  0
    6.5487    0.6699   17.5600 N   0  0  0  0  0  0  0  0  0  0  0  0
    5.3891    1.2991   17.8085 C   0  0  0  0  0  0  0  0  0  0  0  0
    4.9345    1.8124   16.9627 H   0  0  0  0  0  0  0  0  0  0  0  0
    4.7818    1.3232   19.0696 C   0  0  0  0  0  0  0  0  0  0  0  0
    3.8439    1.8519   19.2092 H   0  0  0  0  0  0  0  0  0  0  0  0
    5.4325    0.7010   20.1375 C   0  0  0  0  0  0  0  0  0  0  0  0
    4.9940    0.6684   21.1356 H   0  0  0  0  0  0  0  0  0  0  0  0
    7.9074   -2.0030   20.6954 C   0  0  0  0  0  0  0  0  0  0  0  0
    8.8801   -1.9126   20.1872 H   0  0  0  0  0  0  0  0  0  0  0  0
    7.2036   -2.4400   19.9813 H   0  0  0  0  0  0  0  0  0  0  0  0
    8.0409   -2.9142   21.9160 C   0  0  0  0  0  0  0  0  0  0  0  0
    8.5810   -3.8300   21.6449 H   0  0  0  0  0  0  0  0  0  0  0  0
    7.0500   -3.2401   22.2474 H   0  0  0  0  0  0  0  0  0  0  0  0
    8.7948   -2.1942   23.0590 C   0  0  2  0  0  0  0  0  0  0  0  0
    9.8122   -2.0292   22.6661 H   0  0  0  0  0  0  0  0  0  0  0  0
    8.9328   -3.0753   24.2969 C   0  0  0  0  0  0  0  0  0  0  0  0
   10.1957   -3.5100   24.6608 C   0  0  0  0  0  0  0  0  0  0  0  0
   11.0493   -3.1866   24.0691 H   0  0  0  0  0  0  0  0  0  0  0  0
   10.4196   -4.3542   25.7786 C   0  0  0  0  0  0  0  0  0  0  0  0
   11.4306   -4.6713   26.0203 H   0  0  0  0  0  0  0  0  0  0  0  0
    9.3596   -4.7640   26.5474 C   0  0  0  0  0  0  0  0  0  0  0  0
    9.5135   -5.4023   27.4135 H   0  0  0  0  0  0  0  0  0  0  0  0
    8.0298   -4.3611   26.2194 C   0  0  0  0  0  0  0  0  0  0  0  0
    6.9243   -4.8099   27.0064 C   0  0  0  0  0  0  0  0  0  0  0  0
    7.1333   -5.4582   27.8535 H   0  0  0  0  0  0  0  0  0  0  0  0
    5.6368   -4.4445   26.7038 C   0  0  0  0  0  0  0  0  0  0  0  0
    4.8074   -4.7959   27.3112 H   0  0  0  0  0  0  0  0  0  0  0  0
    5.3850   -3.6022   25.5929 C   0  0  0  0  0  0  0  0  0  0  0  0
    4.3655   -3.3107   25.3549 H   0  0  0  0  0  0  0  0  0  0  0  0
    6.4295   -3.1483   24.8159 C   0  0  0  0  0  0  0  0  0  0  0  0
    6.2082   -2.5014   23.9766 H   0  0  0  0  0  0  0  0  0  0  0  0
    7.7982   -3.5083   25.0865 C   0  0  0  0  0  0  0  0  0  0  0  0
    8.2305   -0.7770   23.3932 C   0  0  0  0  0  0  0  0  0  0  0  0
    7.5360   -0.8113   24.2437 H   0  0  0  0  0  0  0  0  0  0  0  0
    9.0560   -0.1474   23.7523 H   0  0  0  0  0  0  0  0  0  0  0  0
  1  2  1  0
  2  3  2  0
  3  4  1  0
  4  5  2  0
  5  6  1  0
  5  7  1  0
  7  8  2  0
  8  9  1  0
  8 10  1  0
 10 11  1  0
 10 12  2  0
 12 13  1  0
  3 14  1  0
 14 15  1  0
 14 16  1  0
 14 17  1  0
 17 18  1  0
 17 19  1  0
 17 20  1  0
 20 21  1  6
 20 22  1  0
 22 23  2  0
 23 24  1  0
 23 25  1  0
 25 26  1  0
 25 27  2  0
 27 28  1  0
 27 29  1  0
 29 30  2  0
 30 31  1  0
 30 32  1  0
 32 33  1  0
 32 34  2  0
 34 35  1  0
 34 36  1  0
 36 37  1  0
 36 38  2  0
 20 39  1  0
 39 40  1  0
 39 41  1  0
 39  2  1  0
 12  4  1  0
 38 22  1  0
 38 29  1  0
M  END
>  <cnnaffinity>  (1) 
-5.14546

>  <filename>  (1) 
C1=C(c2cccnc2)CC[C@H](c2cccc3ccccc23)C1

$$$$
