
     RDKit          3D

 38 41  0  0  0  0  0  0  0  0999 V2000
    6.6284   -2.2211   19.5383 H   0  0  0  0  0  0  0  0  0  0  0  0
    7.0046   -1.8102   20.4757 C   0  0  0  0  0  0  0  0  0  0  0  0
    6.8066   -0.5122   20.7427 C   0  0  0  0  0  0  0  0  0  0  0  0
    6.2824    0.3764   19.6756 C   0  0  0  0  0  0  0  0  0  0  0  0
    6.8751    0.3495   18.3962 C   0  0  0  0  0  0  0  0  0  0  0  0
    7.7331   -0.3019   18.2289 H   0  0  0  0  0  0  0  0  0  0  0  0
    6.4735    1.0863   17.3556 N   0  0  0  0  0  0  0  0  0  0  0  0
    5.4221    1.8969   17.5589 C   0  0  0  0  0  0  0  0  0  0  0  0
    5.1082    2.4901   16.7030 H   0  0  0  0  0  0  0  0  0  0  0  0
    4.7480    2.0001   18.7810 C   0  0  0  0  0  0  0  0  0  0  0  0
    3.9034    2.6741   18.8692 H   0  0  0  0  0  0  0  0  0  0  0  0
    5.1925    1.2358   19.8630 C   0  0  0  0  0  0  0  0  0  0  0  0
    4.6973    1.2874   20.8350 H   0  0  0  0  0  0  0  0  0  0  0  0
    7.0927    0.0661   22.1245 C   0  0  0  0  0  0  0  0  0  0  0  0
    7.3398    1.1301   22.0412 H   0  0  0  0  0  0  0  0  0  0  0  0
    6.1753   -0.0039   22.7326 H   0  0  0  0  0  0  0  0  0  0  0  0
    8.2219   -0.7081   22.8281 C   0  0  0  0  0  0  0  0  0  0  0  0
    8.3498   -0.3623   23.8615 H   0  0  0  0  0  0  0  0  0  0  0  0
    9.1759   -0.5158   22.3158 H   0  0  0  0  0  0  0  0  0  0  0  0
    7.9034   -2.2218   22.8322 C   0  0  2  0  0  0  0  0  0  0  0  0
    6.9193   -2.3116   23.3145 H   0  0  0  0  0  0  0  0  0  0  0  0
    8.9055   -3.0344   23.6308 C   0  0  0  0  0  0  0  0  0  0  0  0
   10.2473   -2.9662   23.4444 C   0  0  0  0  0  0  0  0  0  0  0  0
   10.7632   -2.3055   22.7588 H   0  0  0  0  0  0  0  0  0  0  0  0
   11.1585   -4.0919   24.4022 S   0  0  0  0  0  0  0  0  0  0  0  0
    9.7083   -4.6980   25.1446 C   0  0  0  0  0  0  0  0  0  0  0  0
    9.6166   -5.6953   26.1355 C   0  0  0  0  0  0  0  0  0  0  0  0
   10.4995   -6.2298   26.4748 H   0  0  0  0  0  0  0  0  0  0  0  0
    8.3598   -5.9935   26.6474 C   0  0  0  0  0  0  0  0  0  0  0  0
    8.2647   -6.7509   27.4202 H   0  0  0  0  0  0  0  0  0  0  0  0
    7.2085   -5.3200   26.1923 C   0  0  0  0  0  0  0  0  0  0  0  0
    6.2377   -5.5775   26.6111 H   0  0  0  0  0  0  0  0  0  0  0  0
    7.3110   -4.3404   25.2158 C   0  0  0  0  0  0  0  0  0  0  0  0
    6.4282   -3.7939   24.8892 H   0  0  0  0  0  0  0  0  0  0  0  0
    8.5691   -4.0179   24.6560 C   0  0  0  0  0  0  0  0  0  0  0  0
    7.7352   -2.7623   21.3865 C   0  0  0  0  0  0  0  0  0  0  0  0
    7.2063   -3.7245   21.3867 H   0  0  0  0  0  0  0  0  0  0  0  0
    8.7241   -2.9725   20.9551 H   0  0  0  0  0  0  0  0  0  0  0  0
  1  2  1  0
  2  3  2  0
  3  4  1  0
  4  5  2  0
  5  6  1  0
  5  7  1  0
  7  8  2  0
  8  9  1  0
  8 10  1  0
 10 11  1  0
 10 12  2  0
 12 13  1  0
  3 14  1  0
 14 15  1  0
 14 16  1  0
 14 17  1  0
 17 18  1  0
 17 19  1  0
 17 20  1  0
 20 21  1  1
 20 22  1  0
 22 23  2  0
 23 24  1  0
 23 25  1  0
 25 26  1  0
 26 27  2  0
 27 28  1  0
 27 29  1  0
 29 30  1  0
 29 31  2  0
 31 32  1  0
 31 33  1  0
 33 34  1  0
 33 35  2  0
 20 36  1  0
 36 37  1  0
 36 38  1  0
 36  2  1  0
 12  4  1  0
 35 22  1  0
 35 26  1  0
M  END
>  <cnnaffinity>  (1) 
-5.54323

>  <filename>  (1) 
C1=C(c2cccnc2)CC[C@H](c2csc3ccccc23)C1

$$$$
