
     RDKit          3D

 35 38  0  0  0  0  0  0  0  0999 V2000
    6.7399    0.4242   22.8020 H   0  0  0  0  0  0  0  0  0  0  0  0
    7.3404   -0.3404   22.3175 C   0  0  0  0  0  0  0  0  0  0  0  0
    7.4149   -0.5839   21.0043 C   0  0  0  0  0  0  0  0  0  0  0  0
    6.6815    0.0853   19.9034 C   0  0  0  0  0  0  0  0  0  0  0  0
    7.1624    0.0848   18.5751 C   0  0  0  0  0  0  0  0  0  0  0  0
    8.0934   -0.4252   18.3281 H   0  0  0  0  0  0  0  0  0  0  0  0
    6.5446    0.6700   17.5410 N   0  0  0  0  0  0  0  0  0  0  0  0
    5.3880    1.3030   17.7949 C   0  0  0  0  0  0  0  0  0  0  0  0
    4.9272    1.8171   16.9546 H   0  0  0  0  0  0  0  0  0  0  0  0
    4.7846    1.3281   19.0571 C   0  0  0  0  0  0  0  0  0  0  0  0
    3.8432    1.8558   19.1975 H   0  0  0  0  0  0  0  0  0  0  0  0
    5.4375    0.7064   20.1210 C   0  0  0  0  0  0  0  0  0  0  0  0
    4.9759    0.6659   21.1085 H   0  0  0  0  0  0  0  0  0  0  0  0
    8.2539   -1.8175   20.7524 C   0  0  0  0  0  0  0  0  0  0  0  0
    7.5938   -2.5271   20.2536 H   0  0  0  0  0  0  0  0  0  0  0  0
    9.1007   -1.6405   20.0810 H   0  0  0  0  0  0  0  0  0  0  0  0
    8.6490   -2.3523   22.1431 C   0  0  0  0  0  0  0  0  0  0  0  0
    9.7188   -2.5315   22.2609 H   0  0  0  0  0  0  0  0  0  0  0  0
    8.1540   -3.3146   22.3183 H   0  0  0  0  0  0  0  0  0  0  0  0
    8.1520   -1.2940   23.1696 C   0  0  2  0  0  0  0  0  0  0  0  0
    9.0039   -0.7356   23.5917 H   0  0  0  0  0  0  0  0  0  0  0  0
    7.4068   -1.9014   24.3439 C   0  0  0  0  0  0  0  0  0  0  0  0
    7.7891   -1.8001   25.6352 C   0  0  0  0  0  0  0  0  0  0  0  0
    8.6844   -1.3205   26.0077 H   0  0  0  0  0  0  0  0  0  0  0  0
    6.7100   -2.5439   26.7666 S   0  0  0  0  0  0  0  0  0  0  0  0
    5.6683   -3.0658   25.4733 C   0  0  0  0  0  0  0  0  0  0  0  0
    4.4488   -3.7632   25.5956 C   0  0  0  0  0  0  0  0  0  0  0  0
    4.0399   -4.0107   26.5730 H   0  0  0  0  0  0  0  0  0  0  0  0
    3.7542   -4.1010   24.4408 C   0  0  0  0  0  0  0  0  0  0  0  0
    2.7878   -4.5970   24.5147 H   0  0  0  0  0  0  0  0  0  0  0  0
    4.2762   -3.7713   23.1705 C   0  0  0  0  0  0  0  0  0  0  0  0
    3.7436   -4.0838   22.2778 H   0  0  0  0  0  0  0  0  0  0  0  0
    5.4626   -3.0578   23.0500 C   0  0  0  0  0  0  0  0  0  0  0  0
    5.8160   -2.7148   22.0785 H   0  0  0  0  0  0  0  0  0  0  0  0
    6.1756   -2.6736   24.2152 C   0  0  0  0  0  0  0  0  0  0  0  0
  1  2  1  0
  2  3  2  0
  3  4  1  0
  4  5  2  0
  5  6  1  0
  5  7  1  0
  7  8  2  0
  8  9  1  0
  8 10  1  0
 10 11  1  0
 10 12  2  0
 12 13  1  0
  3 14  1  0
 14 15  1  0
 14 16  1  0
 14 17  1  0
 17 18  1  0
 17 19  1  0
 17 20  1  0
 20 21  1  1
 20 22  1  0
 22 23  2  0
 23 24  1  0
 23 25  1  0
 25 26  1  0
 26 27  2  0
 27 28  1  0
 27 29  1  0
 29 30  1  0
 29 31  2  0
 31 32  1  0
 31 33  1  0
 33 34  1  0
 33 35  2  0
 20  2  1  0
 35 22  1  0
 12  4  1  0
 35 26  1  0
M  END
>  <cnnaffinity>  (1) 
-5.07093

>  <filename>  (1) 
C1=C(c2cccnc2)CC[C@@H]1c1csc2ccccc12

$$$$
