
     RDKit          3D

 38 40  0  0  0  0  0  0  0  0999 V2000
    4.9219    1.7990   16.9780 H   0  0  0  0  0  0  0  0  0  0  0  0
    5.3907    1.3023   17.8263 C   0  0  0  0  0  0  0  0  0  0  0  0
    6.5528    0.6841   17.5698 N   0  0  0  0  0  0  0  0  0  0  0  0
    7.1473    0.0589   18.5950 C   0  0  0  0  0  0  0  0  0  0  0  0
    8.1014   -0.4177   18.3679 H   0  0  0  0  0  0  0  0  0  0  0  0
    6.6276   -0.0140   19.8987 C   0  0  0  0  0  0  0  0  0  0  0  0
    7.4050   -0.7148   20.9921 C   0  0  0  0  0  0  0  0  0  0  0  0
    7.7652   -1.6909   20.6450 H   0  0  0  0  0  0  0  0  0  0  0  0
    6.7470   -0.9332   21.8445 H   0  0  0  0  0  0  0  0  0  0  0  0
    8.5824    0.1040   21.4509 C   0  0  0  0  0  0  0  0  0  0  0  0
    9.8931    0.0993   20.9302 C   0  0  0  0  0  0  0  0  0  0  0  0
   10.2946   -0.5301   20.1421 H   0  0  0  0  0  0  0  0  0  0  0  0
   10.6743    0.9991   21.5133 N   0  0  0  0  0  0  0  0  0  0  0  0
    9.8627    1.5872   22.4118 N   0  0  0  0  0  0  0  0  0  0  0  0
   10.2432    2.2905   23.0276 H   0  0  0  0  0  0  0  0  0  0  0  0
    8.5946    1.0976   22.4124 C   0  0  0  0  0  0  0  0  0  0  0  0
    7.5303    1.5422   23.3669 C   0  0  0  0  0  0  0  0  0  0  0  0
    7.6446    2.6012   23.6323 H   0  0  0  0  0  0  0  0  0  0  0  0
    6.5513    1.4653   22.8787 H   0  0  0  0  0  0  0  0  0  0  0  0
    7.4947    0.6827   24.6426 C   0  0  0  0  0  0  0  0  0  0  0  0
    8.4619    0.6914   25.1625 H   0  0  0  0  0  0  0  0  0  0  0  0
    7.2735   -0.3543   24.3778 H   0  0  0  0  0  0  0  0  0  0  0  0
    6.4433    1.0375   25.5272 O   0  0  0  0  0  0  0  0  0  0  0  0
    6.5198    2.1581   26.2995 C   0  0  0  0  0  0  0  0  0  0  0  0
    7.6424    2.9898   26.4143 C   0  0  0  0  0  0  0  0  0  0  0  0
    8.5435    2.7671   25.8537 H   0  0  0  0  0  0  0  0  0  0  0  0
    7.5841    4.1065   27.2617 C   0  0  0  0  0  0  0  0  0  0  0  0
    8.4542    4.7519   27.3481 H   0  0  0  0  0  0  0  0  0  0  0  0
    6.4308    4.3969   27.9878 C   0  0  0  0  0  0  0  0  0  0  0  0
    6.3900    5.2631   28.6424 H   0  0  0  0  0  0  0  0  0  0  0  0
    5.3128    3.5590   27.8668 C   0  0  0  0  0  0  0  0  0  0  0  0
    4.4074    3.7717   28.4280 H   0  0  0  0  0  0  0  0  0  0  0  0
    5.3575    2.4477   27.0296 C   0  0  0  0  0  0  0  0  0  0  0  0
    4.5145    1.7721   26.9138 H   0  0  0  0  0  0  0  0  0  0  0  0
    5.4216    0.6481   20.1398 C   0  0  0  0  0  0  0  0  0  0  0  0
    4.9851    0.6433   21.1419 H   0  0  0  0  0  0  0  0  0  0  0  0
    4.7908    1.3188   19.0886 C   0  0  0  0  0  0  0  0  0  0  0  0
    3.8636    1.8523   19.2386 H   0  0  0  0  0  0  0  0  0  0  0  0
  1  2  1  0
  2  3  2  0
  3  4  1  0
  4  5  1  0
  4  6  2  0
  6  7  1  0
  7  8  1  0
  7  9  1  0
  7 10  1  0
 10 11  1  0
 11 12  1  0
 11 13  2  0
 13 14  1  0
 14 15  1  0
 14 16  1  0
 16 17  1  0
 17 18  1  0
 17 19  1  0
 17 20  1  0
 20 21  1  0
 20 22  1  0
 20 23  1  0
 23 24  1  0
 24 25  2  0
 25 26  1  0
 25 27  1  0
 27 28  1  0
 27 29  2  0
 29 30  1  0
 29 31  1  0
 31 32  1  0
 31 33  2  0
 33 34  1  0
  6 35  1  0
 35 36  1  0
 35 37  2  0
 37 38  1  0
 37  2  1  0
 16 10  2  0
 33 24  1  0
M  END
>  <cnnaffinity>  (1) 
-5.16285

>  <filename>  (1) 
c1ccc(OCCc2[nH]ncc2Cc2cccnc2)cc1

$$$$
