
     RDKit          3D

 32 34  0  0  0  0  0  0  0  0999 V2000
   13.0025    5.5450   23.4916 C   0  0  0  0  0  0  0  0  0  0  0  0
   13.3653    4.3682   22.8284 C   0  0  0  0  0  0  0  0  0  0  0  0
   12.3565    3.4630   22.5045 C   0  0  0  0  0  0  0  0  0  0  0  0
   11.0247    3.7603   22.8569 C   0  0  0  0  0  0  0  0  0  0  0  0
    9.9465    2.8624   22.5398 N   0  0  0  0  0  0  0  0  0  0  0  0
    8.6264    3.0461   22.8497 C   0  0  0  0  0  0  0  0  0  0  0  0
    7.9364    1.9623   22.3930 C   0  0  0  0  0  0  0  0  0  0  0  0
    8.9152    1.1390   21.8007 C   0  0  0  0  0  0  0  0  0  0  0  0
    8.7387   -0.0815   21.2213 N   0  0  0  0  0  0  0  0  0  0  0  0
    7.4459   -0.6859   20.9974 C   0  0  0  0  0  0  0  0  0  0  0  0
    6.6537    0.0207   19.9210 C   0  0  0  0  0  0  0  0  0  0  0  0
    5.4267    0.6577   20.1554 C   0  0  0  0  0  0  0  0  0  0  0  0
    4.7947    1.3115   19.0953 C   0  0  0  0  0  0  0  0  0  0  0  0
    5.3995    1.2941   17.8366 C   0  0  0  0  0  0  0  0  0  0  0  0
    6.5657    0.6811   17.5900 N   0  0  0  0  0  0  0  0  0  0  0  0
    7.1736    0.0791   18.6198 C   0  0  0  0  0  0  0  0  0  0  0  0
    8.1202   -0.4077   18.3794 H   0  0  0  0  0  0  0  0  0  0  0  0
    4.9373    1.7893   16.9844 H   0  0  0  0  0  0  0  0  0  0  0  0
    3.8660    1.8463   19.2336 H   0  0  0  0  0  0  0  0  0  0  0  0
    4.9771    0.6469   21.1520 H   0  0  0  0  0  0  0  0  0  0  0  0
    6.8548   -0.7006   21.9277 H   0  0  0  0  0  0  0  0  0  0  0  0
    7.6073   -1.7406   20.7361 H   0  0  0  0  0  0  0  0  0  0  0  0
    9.6121   -0.4620   20.9062 H   0  0  0  0  0  0  0  0  0  0  0  0
   10.1286    1.6601   21.8799 N   0  0  0  0  0  0  0  0  0  0  0  0
    6.8901    1.7113   22.4108 H   0  0  0  0  0  0  0  0  0  0  0  0
    8.3110    3.9399   23.3649 H   0  0  0  0  0  0  0  0  0  0  0  0
   10.6896    4.8807   23.5150 N   0  0  0  0  0  0  0  0  0  0  0  0
   11.6643    5.7438   23.8099 C   0  0  0  0  0  0  0  0  0  0  0  0
   11.3647    6.6522   24.3313 H   0  0  0  0  0  0  0  0  0  0  0  0
   12.5469    2.5362   21.9843 H   0  0  0  0  0  0  0  0  0  0  0  0
   14.4056    4.1636   22.5639 H   0  0  0  0  0  0  0  0  0  0  0  0
   13.7121    6.3161   23.7513 H   0  0  0  0  0  0  0  0  0  0  0  0
  1  2  2  0
  2  3  1  0
  3  4  2  0
  4  5  1  0
  5  6  1  0
  6  7  2  0
  7  8  1  0
  8  9  1  0
  9 10  1  0
 10 11  1  0
 11 12  2  0
 12 13  1  0
 13 14  2  0
 14 15  1  0
 15 16  2  0
 16 17  1  0
 14 18  1  0
 13 19  1  0
 12 20  1  0
 10 21  1  0
 10 22  1  0
  9 23  1  0
  8 24  2  0
  7 25  1  0
  6 26  1  0
  4 27  1  0
 27 28  2  0
 28 29  1  0
  3 30  1  0
  2 31  1  0
  1 32  1  0
 28  1  1  0
 24  5  1  0
 16 11  1  0
M  END
>  <cnnaffinity>  (1) 
-4.67484

>  <filename>  (1) 
c1ccc(-n2ccc(NCc3cccnc3)n2)nc1

$$$$
