
     RDKit          3D

 41 44  0  0  0  0  0  0  0  0999 V2000
   10.3036    6.0301   26.3010 H   0  0  0  0  0  0  0  0  0  0  0  0
    9.3734    5.4838   26.4350 C   0  0  0  0  0  0  0  0  0  0  0  0
    9.1425    4.4949   25.5645 N   0  0  0  0  0  0  0  0  0  0  0  0
    8.0073    3.7989   25.7222 C   0  0  0  0  0  0  0  0  0  0  0  0
    7.7330    2.7707   24.8232 N   0  0  0  0  0  0  0  0  0  0  0  0
    7.3615    1.4192   25.2787 C   0  0  0  0  0  0  0  0  0  0  0  0
    8.2443    0.7693   25.3927 H   0  0  0  0  0  0  0  0  0  0  0  0
    6.8752    1.4523   26.2560 H   0  0  0  0  0  0  0  0  0  0  0  0
    6.4054    0.7327   24.2874 C   0  0  0  0  0  0  0  0  0  0  0  0
    6.1988   -0.3044   24.5702 H   0  0  0  0  0  0  0  0  0  0  0  0
    5.4394    1.2559   24.2914 H   0  0  0  0  0  0  0  0  0  0  0  0
    6.9452    0.7583   22.9368 N   0  0  0  0  0  0  0  0  0  0  0  0
    7.4154   -0.3547   22.2840 C   0  0  0  0  0  0  0  0  0  0  0  0
    7.3804   -0.7096   20.9453 C   0  0  0  0  0  0  0  0  0  0  0  0
    6.6557   -0.0049   19.8964 C   0  0  0  0  0  0  0  0  0  0  0  0
    7.1747    0.0457   18.5957 C   0  0  0  0  0  0  0  0  0  0  0  0
    8.1232   -0.4363   18.3744 H   0  0  0  0  0  0  0  0  0  0  0  0
    6.5719    0.6753   17.5845 N   0  0  0  0  0  0  0  0  0  0  0  0
    5.4067    1.2906   17.8439 C   0  0  0  0  0  0  0  0  0  0  0  0
    4.9201    1.7773   17.0018 H   0  0  0  0  0  0  0  0  0  0  0  0
    4.8064    1.3096   19.1084 C   0  0  0  0  0  0  0  0  0  0  0  0
    3.8738    1.8426   19.2592 H   0  0  0  0  0  0  0  0  0  0  0  0
    5.4396    0.6541   20.1580 C   0  0  0  0  0  0  0  0  0  0  0  0
    5.0096    0.6348   21.1623 H   0  0  0  0  0  0  0  0  0  0  0  0
    8.0988   -1.8628   20.7449 N   0  0  0  0  0  0  0  0  0  0  0  0
    8.5262   -2.2226   21.9232 C   0  0  0  0  0  0  0  0  0  0  0  0
    9.1250   -3.1036   22.1239 H   0  0  0  0  0  0  0  0  0  0  0  0
    8.1351   -1.3535   22.8976 N   0  0  0  0  0  0  0  0  0  0  0  0
    8.3896   -1.3738   23.8647 H   0  0  0  0  0  0  0  0  0  0  0  0
    7.2996    2.1002   22.4669 C   0  0  0  0  0  0  0  0  0  0  0  0
    7.7582    2.0221   21.4759 H   0  0  0  0  0  0  0  0  0  0  0  0
    6.3901    2.7076   22.3459 H   0  0  0  0  0  0  0  0  0  0  0  0
    8.2585    2.8050   23.4498 C   0  0  0  0  0  0  0  0  0  0  0  0
    8.3882    3.8413   23.1274 H   0  0  0  0  0  0  0  0  0  0  0  0
    9.2444    2.3206   23.3788 H   0  0  0  0  0  0  0  0  0  0  0  0
    7.0619    4.1006   26.7281 C   0  0  0  0  0  0  0  0  0  0  0  0
    6.1398    3.5349   26.7606 H   0  0  0  0  0  0  0  0  0  0  0  0
    7.3104    5.1533   27.5984 C   0  0  0  0  0  0  0  0  0  0  0  0
    6.5897    5.4108   28.3745 H   0  0  0  0  0  0  0  0  0  0  0  0
    8.5071    5.8612   27.4583 C   0  0  0  0  0  0  0  0  0  0  0  0
    8.7472    6.6874   28.1150 H   0  0  0  0  0  0  0  0  0  0  0  0
  1  2  1  0
  2  3  2  0
  3  4  1  0
  4  5  1  0
  5  6  1  0
  6  7  1  0
  6  8  1  0
  6  9  1  0
  9 10  1  0
  9 11  1  0
  9 12  1  0
 12 13  1  0
 13 14  2  0
 14 15  1  0
 15 16  2  0
 16 17  1  0
 16 18  1  0
 18 19  2  0
 19 20  1  0
 19 21  1  0
 21 22  1  0
 21 23  2  0
 23 24  1  0
 14 25  1  0
 25 26  2  0
 26 27  1  0
 26 28  1  0
 28 29  1  0
 12 30  1  0
 30 31  1  0
 30 32  1  0
 30 33  1  0
 33 34  1  0
 33 35  1  0
  4 36  2  0
 36 37  1  0
 36 38  1  0
 38 39  1  0
 38 40  2  0
 40 41  1  0
 40  2  1  0
 33  5  1  0
 28 13  1  0
 23 15  1  0
M  END
>  <cnnaffinity>  (1) 
-5.20191

>  <filename>  (1) 
c1ccc(N2CCN(c3[nH]cnc3-c3cccnc3)CC2)nc1

$$$$
