
     RDKit          3D

 49 52  0  0  0  0  0  0  0  0999 V2000
    4.5682    4.0135   28.2123 H   0  0  0  0  0  0  0  0  0  0  0  0
    4.7716    4.4677   27.2399 C   0  0  0  0  0  0  0  0  0  0  0  0
    5.2260    3.6290   26.3093 N   0  0  0  0  0  0  0  0  0  0  0  0
    5.5541    4.1488   25.1184 C   0  0  0  0  0  0  0  0  0  0  0  0
    6.1141    3.2667   24.2154 N   0  0  0  0  0  0  0  0  0  0  0  0
    5.5586    1.9231   24.0251 C   0  0  0  0  0  0  0  0  0  0  0  0
    4.8129    1.9304   23.2076 H   0  0  0  0  0  0  0  0  0  0  0  0
    5.0638    1.5992   24.9453 H   0  0  0  0  0  0  0  0  0  0  0  0
    6.6590    0.9149   23.6767 C   0  0  0  0  0  0  0  0  0  0  0  0
    6.1859   -0.0609   23.5160 H   0  0  0  0  0  0  0  0  0  0  0  0
    7.3311    0.8303   24.5508 H   0  0  0  0  0  0  0  0  0  0  0  0
    7.4081    1.3141   22.4703 N   0  0  0  0  0  0  0  0  0  0  0  0
    8.2744    0.2480   21.9048 C   0  0  2  0  0  0  0  0  0  0  0  0
    7.3914   -0.6891   21.0120 C   0  0  0  0  0  0  0  0  0  0  0  0
    8.0305   -1.4830   20.6070 H   0  0  0  0  0  0  0  0  0  0  0  0
    6.6705   -1.1844   21.6742 H   0  0  0  0  0  0  0  0  0  0  0  0
    6.6412   -0.0168   19.8761 C   0  0  0  0  0  0  0  0  0  0  0  0
    7.1422    0.0433   18.5619 C   0  0  0  0  0  0  0  0  0  0  0  0
    8.0977   -0.4253   18.3169 H   0  0  0  0  0  0  0  0  0  0  0  0
    6.5374    0.6725   17.5441 N   0  0  0  0  0  0  0  0  0  0  0  0
    5.3825    1.3018   17.8088 C   0  0  0  0  0  0  0  0  0  0  0  0
    4.9163    1.8173   16.9707 H   0  0  0  0  0  0  0  0  0  0  0  0
    4.7889    1.3121   19.0741 C   0  0  0  0  0  0  0  0  0  0  0  0
    3.8625    1.8521   19.2303 H   0  0  0  0  0  0  0  0  0  0  0  0
    5.4282    0.6434   20.1204 C   0  0  0  0  0  0  0  0  0  0  0  0
    5.0161    0.6490   21.1307 H   0  0  0  0  0  0  0  0  0  0  0  0
    9.0339   -0.6218   22.9645 C   0  0  0  0  0  0  0  0  0  0  0  0
    8.3723   -1.3614   23.4316 H   0  0  0  0  0  0  0  0  0  0  0  0
    9.3800    0.0557   23.7607 H   0  0  0  0  0  0  0  0  0  0  0  0
   10.2010   -1.2309   22.3128 N   0  0  0  0  0  0  0  0  0  0  0  0
   10.0086   -2.1941   22.0469 H   0  0  0  0  0  0  0  0  0  0  0  0
   10.4754   -0.4402   21.1010 C   0  0  0  0  0  0  0  0  0  0  0  0
   11.5282   -0.1252   21.0661 H   0  0  0  0  0  0  0  0  0  0  0  0
   10.2717   -1.0327   20.2103 H   0  0  0  0  0  0  0  0  0  0  0  0
    9.5000    0.7447   21.1014 C   0  0  0  0  0  0  0  0  0  0  0  0
    9.9558    1.6069   21.5950 H   0  0  0  0  0  0  0  0  0  0  0  0
    9.2074    1.0350   20.0906 H   0  0  0  0  0  0  0  0  0  0  0  0
    7.9911    2.6516   22.6849 C   0  0  0  0  0  0  0  0  0  0  0  0
    8.7812    2.6380   23.4624 H   0  0  0  0  0  0  0  0  0  0  0  0
    8.4323    3.0041   21.7479 H   0  0  0  0  0  0  0  0  0  0  0  0
    6.9285    3.6990   23.0789 C   0  0  0  0  0  0  0  0  0  0  0  0
    6.2943    3.8984   22.1964 H   0  0  0  0  0  0  0  0  0  0  0  0
    7.4645    4.6208   23.3409 H   0  0  0  0  0  0  0  0  0  0  0  0
    5.3525    5.5115   24.7990 C   0  0  0  0  0  0  0  0  0  0  0  0
    5.5887    5.8279   23.7917 H   0  0  0  0  0  0  0  0  0  0  0  0
    4.8303    6.3631   25.7689 C   0  0  0  0  0  0  0  0  0  0  0  0
    4.6484    7.4197   25.5469 H   0  0  0  0  0  0  0  0  0  0  0  0
    4.5444    5.8285   27.0323 C   0  0  0  0  0  0  0  0  0  0  0  0
    4.1390    6.4256   27.8408 H   0  0  0  0  0  0  0  0  0  0  0  0
  1  2  1  0
  2  3  2  0
  3  4  1  0
  4  5  1  0
  5  6  1  0
  6  7  1  0
  6  8  1  0
  6  9  1  0
  9 10  1  0
  9 11  1  0
  9 12  1  0
 12 13  1  0
 13 14  1  6
 14 15  1  0
 14 16  1  0
 14 17  1  0
 17 18  2  0
 18 19  1  0
 18 20  1  0
 20 21  2  0
 21 22  1  0
 21 23  1  0
 23 24  1  0
 23 25  2  0
 25 26  1  0
 13 27  1  0
 27 28  1  0
 27 29  1  0
 27 30  1  0
 30 31  1  0
 30 32  1  0
 32 33  1  0
 32 34  1  0
 32 35  1  0
 35 36  1  0
 35 37  1  0
 12 38  1  0
 38 39  1  0
 38 40  1  0
 38 41  1  0
 41 42  1  0
 41 43  1  0
  4 44  2  0
 44 45  1  0
 44 46  1  0
 46 47  1  0
 46 48  2  0
 48 49  1  0
 48  2  1  0
 41  5  1  0
 35 13  1  0
 25 17  1  0
M  END
>  <cnnaffinity>  (1) 
-4.84558

>  <filename>  (1) 
c1ccc(N2CCN([C@@]3(Cc4cccnc4)CCNC3)CC2)nc1

$$$$
