
     RDKit          3D

 48 52  0  0  0  0  0  0  0  0999 V2000
   14.3352    6.1563   22.3079 C   0  0  0  0  0  0  0  0  0  0  0  0
   13.3242    6.1401   23.2722 C   0  0  0  0  0  0  0  0  0  0  0  0
   12.3535    5.1397   23.2026 C   0  0  0  0  0  0  0  0  0  0  0  0
   12.3933    4.2390   22.1236 C   0  0  0  0  0  0  0  0  0  0  0  0
   11.2845    3.2419   21.9141 C   0  0  0  0  0  0  0  0  0  0  0  0
   11.2732    1.9309   22.7558 C   0  0  0  0  0  0  0  0  0  0  0  0
    9.9293    1.2619   22.6408 C   0  0  0  0  0  0  0  0  0  0  0  0
    9.6124    0.2248   21.8859 N   0  0  0  0  0  0  0  0  0  0  0  0
    8.2532    0.2731   21.8380 C   0  0  0  0  0  0  0  0  0  0  0  0
    7.4056   -0.6650   21.0186 C   0  0  0  0  0  0  0  0  0  0  0  0
    6.6579   -0.0070   19.8528 C   0  0  0  0  0  0  0  0  0  0  0  0
    5.4445    0.6659   20.0644 C   0  0  0  0  0  0  0  0  0  0  0  0
    4.8226    1.3062   18.9876 C   0  0  0  0  0  0  0  0  0  0  0  0
    5.4365    1.2613   17.7351 C   0  0  0  0  0  0  0  0  0  0  0  0
    6.5843    0.6086   17.4988 N   0  0  0  0  0  0  0  0  0  0  0  0
    7.1653   -0.0033   18.5388 C   0  0  0  0  0  0  0  0  0  0  0  0
    8.1040   -0.5124   18.3190 H   0  0  0  0  0  0  0  0  0  0  0  0
    4.9810    1.7602   16.8813 H   0  0  0  0  0  0  0  0  0  0  0  0
    3.8849    1.8399   19.1027 H   0  0  0  0  0  0  0  0  0  0  0  0
    5.0010    0.7048   21.0610 H   0  0  0  0  0  0  0  0  0  0  0  0
    8.0649   -1.4688   20.6775 H   0  0  0  0  0  0  0  0  0  0  0  0
    6.6789   -1.1117   21.7091 H   0  0  0  0  0  0  0  0  0  0  0  0
    7.7078    1.2417   22.5404 N   0  0  0  0  0  0  0  0  0  0  0  0
    8.7867    1.8694   23.0815 N   0  0  0  0  0  0  0  0  0  0  0  0
    8.6004    3.0177   23.8941 C   0  0  0  0  0  0  0  0  0  0  0  0
    9.3121    3.2729   25.0671 C   0  0  0  0  0  0  0  0  0  0  0  0
    9.0622    4.4420   25.8231 C   0  0  0  0  0  0  0  0  0  0  0  0
    8.1079    5.3794   25.4249 C   0  0  0  0  0  0  0  0  0  0  0  0
    7.3849    5.1356   24.2357 C   0  0  0  0  0  0  0  0  0  0  0  0
    7.6390    3.9678   23.5017 C   0  0  0  0  0  0  0  0  0  0  0  0
    6.7910    4.0294   22.4245 N   0  0  0  0  0  0  0  0  0  0  0  0
    6.0686    5.1771   22.5518 C   0  0  0  0  0  0  0  0  0  0  0  0
    6.3829    5.8687   23.6107 N   0  0  0  0  0  0  0  0  0  0  0  0
    5.3224    5.4494   21.8120 H   0  0  0  0  0  0  0  0  0  0  0  0
    6.6642    3.2799   21.7658 H   0  0  0  0  0  0  0  0  0  0  0  0
    7.8805    6.2662   26.0059 H   0  0  0  0  0  0  0  0  0  0  0  0
    9.6149    4.6097   26.7452 H   0  0  0  0  0  0  0  0  0  0  0  0
   10.0229    2.5393   25.4342 H   0  0  0  0  0  0  0  0  0  0  0  0
   11.4666    2.1553   23.8085 H   0  0  0  0  0  0  0  0  0  0  0  0
   12.0392    1.2298   22.4099 H   0  0  0  0  0  0  0  0  0  0  0  0
   11.2768    2.9809   20.8493 H   0  0  0  0  0  0  0  0  0  0  0  0
   10.3479    3.7694   22.1408 H   0  0  0  0  0  0  0  0  0  0  0  0
   13.3657    4.2597   21.2035 N   0  0  0  0  0  0  0  0  0  0  0  0
   14.3286    5.1778   21.3167 C   0  0  0  0  0  0  0  0  0  0  0  0
   15.1169    5.1331   20.5683 H   0  0  0  0  0  0  0  0  0  0  0  0
   11.5513    5.0526   23.9380 H   0  0  0  0  0  0  0  0  0  0  0  0
   13.2966    6.9030   24.0493 H   0  0  0  0  0  0  0  0  0  0  0  0
   15.1190    6.9046   22.3241 H   0  0  0  0  0  0  0  0  0  0  0  0
  1  2  2  0
  2  3  1  0
  3  4  2  0
  4  5  1  0
  5  6  1  0
  6  7  1  0
  7  8  2  0
  8  9  1  0
  9 10  1  0
 10 11  1  0
 11 12  2  0
 12 13  1  0
 13 14  2  0
 14 15  1  0
 15 16  2  0
 16 17  1  0
 14 18  1  0
 13 19  1  0
 12 20  1  0
 10 21  1  0
 10 22  1  0
  9 23  2  0
 23 24  1  0
 24 25  1  0
 25 26  2  0
 26 27  1  0
 27 28  2  0
 28 29  1  0
 29 30  2  0
 30 31  1  0
 31 32  1  0
 32 33  2  0
 32 34  1  0
 31 35  1  0
 28 36  1  0
 27 37  1  0
 26 38  1  0
  6 39  1  0
  6 40  1  0
  5 41  1  0
  5 42  1  0
  4 43  1  0
 43 44  2  0
 44 45  1  0
  3 46  1  0
  2 47  1  0
  1 48  1  0
 44  1  1  0
 24  7  1  0
 30 25  1  0
 16 11  1  0
 33 29  1  0
M  END
>  <cnnaffinity>  (1) 
-6.2852

>  <filename>  (1) 
c1ccc(CCc2nc(Cc3cccnc3)nn2-c2cccc3nc[nH]c23)nc1

$$$$
