
     RDKit          3D

 39 41  0  0  0  0  0  0  0  0999 V2000
    2.6020   -7.9650   21.6310 H   0  0  0  0  0  0  0  0  0  0  0  0
    2.9904   -7.3992   22.4742 C   0  0  0  0  0  0  0  0  0  0  0  0
    3.8926   -6.4618   22.1574 N   0  0  0  0  0  0  0  0  0  0  0  0
    4.3926   -5.7497   23.1664 C   0  0  0  0  0  0  0  0  0  0  0  0
    5.3982   -4.8245   22.8944 N   0  0  0  0  0  0  0  0  0  0  0  0
    6.3291   -5.0139   21.7760 C   0  0  0  0  0  0  0  0  0  0  0  0
    5.8778   -4.7081   20.8176 H   0  0  0  0  0  0  0  0  0  0  0  0
    6.6005   -6.0694   21.6841 H   0  0  0  0  0  0  0  0  0  0  0  0
    7.6069   -4.1772   22.0090 C   0  0  0  0  0  0  0  0  0  0  0  0
    8.1263   -4.5502   22.8979 H   0  0  0  0  0  0  0  0  0  0  0  0
    8.2970   -4.2730   21.1627 H   0  0  0  0  0  0  0  0  0  0  0  0
    7.3520   -2.7443   22.2667 N   0  0  0  0  0  0  0  0  0  0  0  0
    6.8067   -2.0722   21.1115 N   0  0  0  0  0  0  0  0  0  0  0  0
    7.0516   -2.5766   20.2575 H   0  0  0  0  0  0  0  0  0  0  0  0
    7.3764   -0.7264   20.9760 C   0  0  0  0  0  0  0  0  0  0  0  0
    7.2714   -0.2040   21.9363 H   0  0  0  0  0  0  0  0  0  0  0  0
    8.4588   -0.7800   20.7820 H   0  0  0  0  0  0  0  0  0  0  0  0
    6.6604    0.0357   19.8870 C   0  0  0  0  0  0  0  0  0  0  0  0
    7.1650    0.0660   18.5795 C   0  0  0  0  0  0  0  0  0  0  0  0
    8.1174   -0.4123   18.3375 H   0  0  0  0  0  0  0  0  0  0  0  0
    6.5582    0.6761   17.5506 N   0  0  0  0  0  0  0  0  0  0  0  0
    5.4006    1.3033   17.8074 C   0  0  0  0  0  0  0  0  0  0  0  0
    4.9292    1.8066   16.9668 H   0  0  0  0  0  0  0  0  0  0  0  0
    4.7976    1.3269   19.0679 C   0  0  0  0  0  0  0  0  0  0  0  0
    3.8599    1.8561   19.2118 H   0  0  0  0  0  0  0  0  0  0  0  0
    5.4376    0.6800   20.1256 C   0  0  0  0  0  0  0  0  0  0  0  0
    4.9969    0.6617   21.1244 H   0  0  0  0  0  0  0  0  0  0  0  0
    6.3835   -2.6150   23.3823 C   0  0  0  0  0  0  0  0  0  0  0  0
    6.1512   -1.5549   23.5271 H   0  0  0  0  0  0  0  0  0  0  0  0
    6.8791   -2.9714   24.2912 H   0  0  0  0  0  0  0  0  0  0  0  0
    5.0912   -3.4094   23.1384 C   0  0  0  0  0  0  0  0  0  0  0  0
    4.5791   -2.9636   22.2701 H   0  0  0  0  0  0  0  0  0  0  0  0
    4.4239   -3.3016   23.9991 H   0  0  0  0  0  0  0  0  0  0  0  0
    3.9561   -5.8710   24.5017 C   0  0  0  0  0  0  0  0  0  0  0  0
    4.3672   -5.1784   25.2289 H   0  0  0  0  0  0  0  0  0  0  0  0
    3.0746   -6.8948   24.8166 C   0  0  0  0  0  0  0  0  0  0  0  0
    2.7556   -7.0415   25.8487 H   0  0  0  0  0  0  0  0  0  0  0  0
    2.5855   -7.7004   23.7757 C   0  0  0  0  0  0  0  0  0  0  0  0
    1.9260   -8.5373   23.9708 H   0  0  0  0  0  0  0  0  0  0  0  0
  1  2  1  0
  2  3  2  0
  3  4  1  0
  4  5  1  0
  5  6  1  0
  6  7  1  0
  6  8  1  0
  6  9  1  0
  9 10  1  0
  9 11  1  0
  9 12  1  0
 12 13  1  0
 13 14  1  0
 13 15  1  0
 15 16  1  0
 15 17  1  0
 15 18  1  0
 18 19  2  0
 19 20  1  0
 19 21  1  0
 21 22  2  0
 22 23  1  0
 22 24  1  0
 24 25  1  0
 24 26  2  0
 26 27  1  0
 12 28  1  0
 28 29  1  0
 28 30  1  0
 28 31  1  0
 31 32  1  0
 31 33  1  0
  4 34  2  0
 34 35  1  0
 34 36  1  0
 36 37  1  0
 36 38  2  0
 38 39  1  0
 38  2  1  0
 31  5  1  0
 26 18  1  0
M  END
>  <cnnaffinity>  (1) 
-5.14538

>  <filename>  (1) 
c1ccc(N2CCN(NCc3cccnc3)CC2)nc1

$$$$
