
     RDKit          3D

 38 40  0  0  0  0  0  0  0  0999 V2000
    4.9312    1.7841   17.0013 H   0  0  0  0  0  0  0  0  0  0  0  0
    5.4582    1.2927   17.8188 C   0  0  0  0  0  0  0  0  0  0  0  0
    6.6194    0.6908   17.5169 N   0  0  0  0  0  0  0  0  0  0  0  0
    7.2826    0.0713   18.5083 C   0  0  0  0  0  0  0  0  0  0  0  0
    8.2103   -0.4218   18.2273 H   0  0  0  0  0  0  0  0  0  0  0  0
    6.8340    0.0220   19.8560 C   0  0  0  0  0  0  0  0  0  0  0  0
    7.5060   -0.6320   20.9321 N   0  0  0  0  0  0  0  0  0  0  0  0
    8.8492   -0.6916   21.2829 C   0  0  0  0  0  0  0  0  0  0  0  0
    9.6644    0.2718   20.7313 N   0  0  0  0  0  0  0  0  0  0  0  0
    9.0956    1.1097   20.7402 H   0  0  0  0  0  0  0  0  0  0  0  0
   11.0105    0.4394   21.2816 C   0  0  0  0  0  0  0  0  0  0  0  0
   11.5502   -0.5093   21.1701 H   0  0  0  0  0  0  0  0  0  0  0  0
   11.5390    1.1953   20.6833 H   0  0  0  0  0  0  0  0  0  0  0  0
   11.0571    0.9131   22.7375 C   0  0  0  0  0  0  0  0  0  0  0  0
   10.5098    0.1928   23.3524 H   0  0  0  0  0  0  0  0  0  0  0  0
   12.1074    0.9137   23.0546 H   0  0  0  0  0  0  0  0  0  0  0  0
   10.4644    2.2944   22.8710 C   0  0  0  0  0  0  0  0  0  0  0  0
    9.1031    2.4665   23.1689 C   0  0  0  0  0  0  0  0  0  0  0  0
    8.4893    1.5938   23.3903 H   0  0  0  0  0  0  0  0  0  0  0  0
    8.5386    3.7465   23.2163 C   0  0  0  0  0  0  0  0  0  0  0  0
    7.4789    3.8633   23.4328 H   0  0  0  0  0  0  0  0  0  0  0  0
    9.3401    4.8693   22.9778 C   0  0  0  0  0  0  0  0  0  0  0  0
    8.9047    5.8640   23.0233 H   0  0  0  0  0  0  0  0  0  0  0  0
   10.7001    4.7111   22.6850 C   0  0  0  0  0  0  0  0  0  0  0  0
   11.3235    5.5820   22.4950 H   0  0  0  0  0  0  0  0  0  0  0  0
   11.2482    3.4277   22.5955 C   0  0  0  0  0  0  0  0  0  0  0  0
   12.2933    3.2995   22.3166 H   0  0  0  0  0  0  0  0  0  0  0  0
    9.1866   -1.6083   22.1069 N   0  0  0  0  0  0  0  0  0  0  0  0
    7.9721   -2.3327   22.4767 C   0  0  0  0  0  0  0  0  0  0  0  0
    8.0449   -3.3942   22.2073 H   0  0  0  0  0  0  0  0  0  0  0  0
    7.8218   -2.3087   23.5648 H   0  0  0  0  0  0  0  0  0  0  0  0
    6.8104   -1.6373   21.7350 C   0  0  0  0  0  0  0  0  0  0  0  0
    6.0963   -1.1743   22.4282 H   0  0  0  0  0  0  0  0  0  0  0  0
    6.2458   -2.3273   21.0967 H   0  0  0  0  0  0  0  0  0  0  0  0
    5.6021    0.6335   20.1310 C   0  0  0  0  0  0  0  0  0  0  0  0
    5.2150    0.6103   21.1492 H   0  0  0  0  0  0  0  0  0  0  0  0
    4.9089    1.2808   19.1042 C   0  0  0  0  0  0  0  0  0  0  0  0
    3.9547    1.7601   19.2939 H   0  0  0  0  0  0  0  0  0  0  0  0
  1  2  1  0
  2  3  2  0
  3  4  1  0
  4  5  1  0
  4  6  2  0
  6  7  1  0
  7  8  1  0
  8  9  1  0
  9 10  1  0
  9 11  1  0
 11 12  1  0
 11 13  1  0
 11 14  1  0
 14 15  1  0
 14 16  1  0
 14 17  1  0
 17 18  2  0
 18 19  1  0
 18 20  1  0
 20 21  1  0
 20 22  2  0
 22 23  1  0
 22 24  1  0
 24 25  1  0
 24 26  2  0
 26 27  1  0
  8 28  2  0
 28 29  1  0
 29 30  1  0
 29 31  1  0
 29 32  1  0
 32 33  1  0
 32 34  1  0
  6 35  1  0
 35 36  1  0
 35 37  2  0
 37 38  1  0
 37  2  1  0
 32  7  1  0
 26 17  1  0
M  END
>  <cnnaffinity>  (1) 
-4.59046

>  <filename>  (1) 
c1ccc(CCNC2=NCCN2c2cccnc2)cc1

$$$$
