
     RDKit          3D

 28 30  0  0  0  0  0  0  0  0999 V2000
    5.0746    1.7645   16.8751 H   0  0  0  0  0  0  0  0  0  0  0  0
    5.4892    1.2708   17.7515 C   0  0  0  0  0  0  0  0  0  0  0  0
    6.6432    0.6121   17.5654 N   0  0  0  0  0  0  0  0  0  0  0  0
    7.1894    0.0065   18.6236 C   0  0  0  0  0  0  0  0  0  0  0  0
    8.1266   -0.5227   18.4618 H   0  0  0  0  0  0  0  0  0  0  0  0
    6.6174    0.0246   19.9080 C   0  0  0  0  0  0  0  0  0  0  0  0
    7.3142   -0.6443   21.0063 C   0  0  0  0  0  0  0  0  0  0  0  0
    8.4646   -1.4127   20.8117 N   0  0  0  0  0  0  0  0  0  0  0  0
    8.7516   -1.8228   21.9984 C   0  0  0  0  0  0  0  0  0  0  0  0
    9.7634   -2.6219   22.3276 O   0  0  0  0  0  0  0  0  0  0  0  0
    9.8104   -3.3230   23.5436 C   0  0  0  0  0  0  0  0  0  0  0  0
    8.6870   -3.6753   24.3031 C   0  0  0  0  0  0  0  0  0  0  0  0
    7.7047   -3.3129   24.0318 H   0  0  0  0  0  0  0  0  0  0  0  0
    8.8437   -4.5301   25.3968 C   0  0  0  0  0  0  0  0  0  0  0  0
    7.9680   -4.8223   25.9717 H   0  0  0  0  0  0  0  0  0  0  0  0
   10.1038   -5.0175   25.7538 C   0  0  0  0  0  0  0  0  0  0  0  0
   10.2181   -5.7153   26.5795 H   0  0  0  0  0  0  0  0  0  0  0  0
   11.2205   -4.6304   25.0078 C   0  0  0  0  0  0  0  0  0  0  0  0
   12.1953   -5.0202   25.2850 H   0  0  0  0  0  0  0  0  0  0  0  0
   11.0833   -3.7587   23.9227 C   0  0  0  0  0  0  0  0  0  0  0  0
   11.9437   -3.4182   23.3581 H   0  0  0  0  0  0  0  0  0  0  0  0
    7.9401   -1.3787   22.9760 O   0  0  0  0  0  0  0  0  0  0  0  0
    6.9992   -0.6406   22.3173 C   0  0  0  0  0  0  0  0  0  0  0  0
    6.1877   -0.2487   22.9053 H   0  0  0  0  0  0  0  0  0  0  0  0
    5.3955    0.6986   20.0836 C   0  0  0  0  0  0  0  0  0  0  0  0
    4.8857    0.7318   21.0487 H   0  0  0  0  0  0  0  0  0  0  0  0
    4.8293    1.3333   18.9835 C   0  0  0  0  0  0  0  0  0  0  0  0
    3.9001    1.8852   19.0628 H   0  0  0  0  0  0  0  0  0  0  0  0
  1  2  1  0
  2  3  2  0
  3  4  1  0
  4  5  1  0
  4  6  2  0
  6  7  1  0
  7  8  1  0
  8  9  2  0
  9 10  1  0
 10 11  1  0
 11 12  2  0
 12 13  1  0
 12 14  1  0
 14 15  1  0
 14 16  2  0
 16 17  1  0
 16 18  1  0
 18 19  1  0
 18 20  2  0
 20 21  1  0
  9 22  1  0
 22 23  1  0
 23 24  1  0
  6 25  1  0
 25 26  1  0
 25 27  2  0
 27 28  1  0
 27  2  1  0
 23  7  2  0
 20 11  1  0
M  END
>  <cnnaffinity>  (1) 
-5.06569

>  <filename>  (1) 
c1ccc(Oc2nc(-c3cccnc3)co2)cc1

$$$$
