
     RDKit          3D

 51 55  0  0  0  0  0  0  0  0999 V2000
   13.3799    5.3515   21.9750 H   0  0  0  0  0  0  0  0  0  0  0  0
   12.5578    5.1274   22.6562 C   0  0  0  0  0  0  0  0  0  0  0  0
   11.8201    4.0659   22.3469 N   0  0  0  0  0  0  0  0  0  0  0  0
   10.7984    3.7561   23.1625 C   0  0  0  0  0  0  0  0  0  0  0  0
   10.0021    2.7017   22.7736 N   0  0  0  0  0  0  0  0  0  0  0  0
    8.8098    2.2741   23.5292 C   0  0  0  0  0  0  0  0  0  0  0  0
    9.0924    1.5859   24.3413 H   0  0  0  0  0  0  0  0  0  0  0  0
    8.3232    3.1486   23.9683 H   0  0  0  0  0  0  0  0  0  0  0  0
    7.7268    1.5623   22.6729 C   0  0  0  0  0  0  0  0  0  0  0  0
    6.9839    1.1566   23.3723 H   0  0  0  0  0  0  0  0  0  0  0  0
    7.2064    2.2999   22.0341 H   0  0  0  0  0  0  0  0  0  0  0  0
    8.3422    0.5076   21.8633 N   0  0  0  0  0  0  0  0  0  0  0  0
    7.4928   -0.5133   21.2036 C   0  0  1  0  0  0  0  0  0  0  0  0
    6.6906    0.1308   20.0564 C   0  0  0  0  0  0  0  0  0  0  0  0
    7.2407    0.2028   18.7652 C   0  0  0  0  0  0  0  0  0  0  0  0
    8.2392   -0.1877   18.5708 H   0  0  0  0  0  0  0  0  0  0  0  0
    6.6396    0.7506   17.7018 N   0  0  0  0  0  0  0  0  0  0  0  0
    5.4478    1.3316   17.9004 C   0  0  0  0  0  0  0  0  0  0  0  0
    4.9754    1.7640   17.0212 H   0  0  0  0  0  0  0  0  0  0  0  0
    4.8366    1.3984   19.1560 C   0  0  0  0  0  0  0  0  0  0  0  0
    3.8879    1.9108   19.2593 H   0  0  0  0  0  0  0  0  0  0  0  0
    5.4735    0.8112   20.2542 C   0  0  0  0  0  0  0  0  0  0  0  0
    5.0367    0.9070   21.2509 H   0  0  0  0  0  0  0  0  0  0  0  0
    8.4783   -1.6743   20.7901 C   0  0  0  0  0  0  0  0  0  0  0  0
    9.4871   -1.4360   21.1436 H   0  0  0  0  0  0  0  0  0  0  0  0
    8.5422   -1.7657   19.7137 H   0  0  0  0  0  0  0  0  0  0  0  0
    8.0311   -2.9313   21.5696 C   0  0  2  0  0  0  0  0  0  0  0  0
    8.8204   -3.6885   21.6283 H   0  0  0  0  0  0  0  0  0  0  0  0
    6.6805   -3.4729   21.0670 C   0  0  0  0  0  0  0  0  0  0  0  0
    6.4388   -4.4056   21.5936 H   0  0  0  0  0  0  0  0  0  0  0  0
    6.6416   -3.7037   19.9977 H   0  0  0  0  0  0  0  0  0  0  0  0
    5.7033   -2.3308   21.4576 C   0  0  0  0  0  0  0  0  0  0  0  0
    5.2912   -1.8592   20.5642 H   0  0  0  0  0  0  0  0  0  0  0  0
    4.8738   -2.7026   22.0680 H   0  0  0  0  0  0  0  0  0  0  0  0
    6.6086   -1.3187   22.2218 C   0  0  1  0  0  0  0  0  0  0  0  0
    6.0773   -0.6368   22.8867 H   0  0  0  0  0  0  0  0  0  0  0  0
    7.6103   -2.2704   22.8989 C   0  0  0  0  0  0  0  0  0  0  0  0
    7.1384   -2.9534   23.6196 H   0  0  0  0  0  0  0  0  0  0  0  0
    8.4283   -1.7380   23.3968 H   0  0  0  0  0  0  0  0  0  0  0  0
    9.3157    1.1709   20.9728 C   0  0  0  0  0  0  0  0  0  0  0  0
    9.6871    0.4833   20.2012 H   0  0  0  0  0  0  0  0  0  0  0  0
    8.8287    2.0157   20.4581 H   0  0  0  0  0  0  0  0  0  0  0  0
   10.4821    1.7160   21.7909 C   0  0  0  0  0  0  0  0  0  0  0  0
   10.9860    0.8750   22.2960 H   0  0  0  0  0  0  0  0  0  0  0  0
   11.1967    2.1949   21.1186 H   0  0  0  0  0  0  0  0  0  0  0  0
   10.5288    4.4901   24.3477 C   0  0  0  0  0  0  0  0  0  0  0  0
    9.7519    4.1443   25.0122 H   0  0  0  0  0  0  0  0  0  0  0  0
   11.2851    5.6175   24.6248 C   0  0  0  0  0  0  0  0  0  0  0  0
   11.0403    6.2514   25.4789 H   0  0  0  0  0  0  0  0  0  0  0  0
   12.3410    5.9405   23.7671 C   0  0  0  0  0  0  0  0  0  0  0  0
   12.9771    6.7973   23.9409 H   0  0  0  0  0  0  0  0  0  0  0  0
  1  2  1  0
  2  3  2  0
  3  4  1  0
  4  5  1  0
  5  6  1  0
  6  7  1  0
  6  8  1  0
  6  9  1  0
  9 10  1  0
  9 11  1  0
  9 12  1  0
 13 12  1  1
 13 14  1  0
 14 15  2  0
 15 16  1  0
 15 17  1  0
 17 18  2  0
 18 19  1  0
 18 20  1  0
 20 21  1  0
 20 22  2  0
 22 23  1  0
 13 24  1  0
 24 25  1  0
 24 26  1  0
 24 27  1  0
 27 28  1  1
 27 29  1  0
 29 30  1  0
 29 31  1  0
 29 32  1  0
 32 33  1  0
 32 34  1  0
 32 35  1  0
 35 36  1  1
 35 37  1  0
 37 38  1  0
 37 39  1  0
 12 40  1  0
 40 41  1  0
 40 42  1  0
 40 43  1  0
 43 44  1  0
 43 45  1  0
  4 46  2  0
 46 47  1  0
 46 48  1  0
 48 49  1  0
 48 50  2  0
 50 51  1  0
 50  2  1  0
 43  5  1  0
 35 13  1  0
 22 14  1  0
 37 27  1  0
M  END
>  <cnnaffinity>  (1) 
-5.84529

>  <filename>  (1) 
c1ccc(N2CCN([C@@]3(c4cccnc4)C[C@@H]4CC[C@H]3C4)CC2)nc1

$$$$
