
     RDKit          3D

 44 48  0  0  0  0  0  0  0  0999 V2000
    4.7402    5.2854   27.6192 H   0  0  0  0  0  0  0  0  0  0  0  0
    4.7594    5.3727   26.5330 C   0  0  0  0  0  0  0  0  0  0  0  0
    5.1215    4.2635   25.8898 N   0  0  0  0  0  0  0  0  0  0  0  0
    5.2353    4.3341   24.5561 C   0  0  0  0  0  0  0  0  0  0  0  0
    5.7178    3.1937   23.9412 N   0  0  0  0  0  0  0  0  0  0  0  0
    6.3619    3.2265   22.6287 C   0  0  0  0  0  0  0  0  0  0  0  0
    6.8248    4.2074   22.4614 H   0  0  0  0  0  0  0  0  0  0  0  0
    5.6280    3.0416   21.8233 H   0  0  0  0  0  0  0  0  0  0  0  0
    7.4533    2.1512   22.5236 C   0  0  0  0  0  0  0  0  0  0  0  0
    7.7774    2.0815   21.4815 H   0  0  0  0  0  0  0  0  0  0  0  0
    8.3160    2.4320   23.1522 H   0  0  0  0  0  0  0  0  0  0  0  0
    6.9366    0.8387   22.9209 N   0  0  0  0  0  0  0  0  0  0  0  0
    7.3979   -0.2911   22.3006 C   0  0  0  0  0  0  0  0  0  0  0  0
    7.3874   -0.6722   20.9522 C   0  0  0  0  0  0  0  0  0  0  0  0
    6.6530    0.0037   19.8920 C   0  0  0  0  0  0  0  0  0  0  0  0
    7.1621    0.0339   18.5844 C   0  0  0  0  0  0  0  0  0  0  0  0
    8.1082   -0.4509   18.3523 H   0  0  0  0  0  0  0  0  0  0  0  0
    6.5595    0.6650   17.5726 N   0  0  0  0  0  0  0  0  0  0  0  0
    5.4036    1.2972   17.8284 C   0  0  0  0  0  0  0  0  0  0  0  0
    4.9405    1.8021   16.9831 H   0  0  0  0  0  0  0  0  0  0  0  0
    4.8031    1.3200   19.0924 C   0  0  0  0  0  0  0  0  0  0  0  0
    3.8655    1.8486   19.2318 H   0  0  0  0  0  0  0  0  0  0  0  0
    5.4395    0.6677   20.1443 C   0  0  0  0  0  0  0  0  0  0  0  0
    5.0071    0.6581   21.1450 H   0  0  0  0  0  0  0  0  0  0  0  0
    8.1375   -1.8051   20.7391 N   0  0  0  0  0  0  0  0  0  0  0  0
    8.5386   -2.1256   21.9377 C   0  0  0  0  0  0  0  0  0  0  0  0
    9.5433   -3.3714   22.6105 S   0  0  0  0  0  0  0  0  0  0  0  0
    9.4780   -2.6217   24.1860 C   0  0  0  0  0  0  0  0  0  0  0  0
   10.0515   -3.0816   24.9820 H   0  0  0  0  0  0  0  0  0  0  0  0
    8.6983   -1.5305   24.1943 C   0  0  0  0  0  0  0  0  0  0  0  0
    8.4709   -0.8639   25.0201 H   0  0  0  0  0  0  0  0  0  0  0  0
    8.1432   -1.2742   22.9377 N   0  0  0  0  0  0  0  0  0  0  0  0
    6.3216    0.8079   24.2401 C   0  0  0  0  0  0  0  0  0  0  0  0
    5.8899   -0.1876   24.3885 H   0  0  0  0  0  0  0  0  0  0  0  0
    7.0561    1.0154   25.0377 H   0  0  0  0  0  0  0  0  0  0  0  0
    5.2121    1.8677   24.3155 C   0  0  0  0  0  0  0  0  0  0  0  0
    4.8060    1.9010   25.3300 H   0  0  0  0  0  0  0  0  0  0  0  0
    4.4073    1.5705   23.6199 H   0  0  0  0  0  0  0  0  0  0  0  0
    4.8934    5.4922   23.8198 C   0  0  0  0  0  0  0  0  0  0  0  0
    4.9559    5.4322   22.7410 H   0  0  0  0  0  0  0  0  0  0  0  0
    4.4658    6.6272   24.5047 C   0  0  0  0  0  0  0  0  0  0  0  0
    4.1831    7.5337   23.9617 H   0  0  0  0  0  0  0  0  0  0  0  0
    4.4126    6.5697   25.9049 C   0  0  0  0  0  0  0  0  0  0  0  0
    4.0965    7.4086   26.5137 H   0  0  0  0  0  0  0  0  0  0  0  0
  1  2  1  0
  2  3  2  0
  3  4  1  0
  4  5  1  0
  5  6  1  0
  6  7  1  0
  6  8  1  0
  6  9  1  0
  9 10  1  0
  9 11  1  0
  9 12  1  0
 12 13  1  0
 13 14  2  0
 14 15  1  0
 15 16  2  0
 16 17  1  0
 16 18  1  0
 18 19  2  0
 19 20  1  0
 19 21  1  0
 21 22  1  0
 21 23  2  0
 23 24  1  0
 14 25  1  0
 25 26  2  0
 26 27  1  0
 27 28  1  0
 28 29  1  0
 28 30  2  0
 30 31  1  0
 30 32  1  0
 12 33  1  0
 33 34  1  0
 33 35  1  0
 33 36  1  0
 36 37  1  0
 36 38  1  0
  4 39  2  0
 39 40  1  0
 39 41  1  0
 41 42  1  0
 41 43  2  0
 43 44  1  0
 43  2  1  0
 36  5  1  0
 32 13  1  0
 23 15  1  0
 32 26  1  0
M  END
>  <cnnaffinity>  (1) 
-5.62945

>  <filename>  (1) 
c1ccc(N2CCN(c3c(-c4cccnc4)nc4sccn34)CC2)nc1

$$$$
