
     RDKit          3D

 48 52  0  0  0  0  0  0  0  0999 V2000
    0.6290   -8.5490   25.2340 H   0  0  0  0  0  0  0  0  0  0  0  0
    1.6602   -8.2873   25.1726 C   0  0  0  0  0  0  0  0  0  0  0  0
    2.0269   -6.9921   25.1656 N   0  0  0  0  0  0  0  0  0  0  0  0
    3.4340   -6.9217   24.9250 C   0  0  0  0  0  0  0  0  0  0  0  0
    4.0332   -5.6519   24.8990 N   0  0  0  0  0  0  0  0  0  0  0  0
    3.5019   -4.5223   24.1323 C   0  0  0  0  0  0  0  0  0  0  0  0
    2.7731   -4.8185   23.3733 H   0  0  0  0  0  0  0  0  0  0  0  0
    2.9950   -3.8239   24.8177 H   0  0  0  0  0  0  0  0  0  0  0  0
    4.6544   -3.7689   23.4595 C   0  0  0  0  0  0  0  0  0  0  0  0
    4.2578   -2.9638   22.8460 H   0  0  0  0  0  0  0  0  0  0  0  0
    5.1799   -4.4520   22.7747 H   0  0  0  0  0  0  0  0  0  0  0  0
    5.5541   -3.2503   24.4899 N   0  0  0  0  0  0  0  0  0  0  0  0
    6.3577   -2.1744   24.1450 C   0  0  0  0  0  0  0  0  0  0  0  0
    6.8017   -1.6645   22.9459 C   0  0  0  0  0  0  0  0  0  0  0  0
    7.4129   -0.4558   23.2792 C   0  0  0  0  0  0  0  0  0  0  0  0
    7.3998   -0.1816   24.5689 N   0  0  0  0  0  0  0  0  0  0  0  0
    6.7751   -1.2795   25.0938 N   0  0  0  0  0  0  0  0  0  0  0  0
    6.3832   -1.2510   26.0236 H   0  0  0  0  0  0  0  0  0  0  0  0
    7.8974    0.2918   22.0771 C   0  0  0  0  0  0  0  0  0  0  0  0
    7.4214    1.2764   22.0003 H   0  0  0  0  0  0  0  0  0  0  0  0
    8.9723    0.4818   22.1220 H   0  0  0  0  0  0  0  0  0  0  0  0
    7.5248   -0.6591   20.8831 C   0  0  2  0  0  0  0  0  0  0  0  0
    8.4627   -1.0420   20.4674 H   0  0  0  0  0  0  0  0  0  0  0  0
    6.7650    0.0527   19.7811 C   0  0  0  0  0  0  0  0  0  0  0  0
    7.2328    0.1027   18.4545 C   0  0  0  0  0  0  0  0  0  0  0  0
    8.1750   -0.3832   18.1991 H   0  0  0  0  0  0  0  0  0  0  0  0
    6.5983    0.7097   17.4433 N   0  0  0  0  0  0  0  0  0  0  0  0
    5.4397    1.3229   17.7283 C   0  0  0  0  0  0  0  0  0  0  0  0
    4.9459    1.8196   16.8953 H   0  0  0  0  0  0  0  0  0  0  0  0
    4.8718    1.3389   19.0070 C   0  0  0  0  0  0  0  0  0  0  0  0
    3.9350    1.8600   19.1762 H   0  0  0  0  0  0  0  0  0  0  0  0
    5.5448    0.6942   20.0465 C   0  0  0  0  0  0  0  0  0  0  0  0
    5.1318    0.6906   21.0584 H   0  0  0  0  0  0  0  0  0  0  0  0
    6.7437   -1.8910   21.4703 C   0  0  0  0  0  0  0  0  0  0  0  0
    5.7059   -1.9268   21.1046 H   0  0  0  0  0  0  0  0  0  0  0  0
    7.1963   -2.8416   21.1532 H   0  0  0  0  0  0  0  0  0  0  0  0
    6.1255   -4.3351   25.3005 C   0  0  0  0  0  0  0  0  0  0  0  0
    6.7329   -3.9032   26.1044 H   0  0  0  0  0  0  0  0  0  0  0  0
    6.7924   -4.9688   24.6935 H   0  0  0  0  0  0  0  0  0  0  0  0
    4.9972   -5.1786   25.9175 C   0  0  0  0  0  0  0  0  0  0  0  0
    5.4656   -5.9989   26.4746 H   0  0  0  0  0  0  0  0  0  0  0  0
    4.4771   -4.5320   26.6455 H   0  0  0  0  0  0  0  0  0  0  0  0
    4.1235   -8.0789   24.7396 C   0  0  0  0  0  0  0  0  0  0  0  0
    5.1499   -8.1750   24.4393 H   0  0  0  0  0  0  0  0  0  0  0  0
    2.5869   -9.3291   24.8964 C   0  0  0  0  0  0  0  0  0  0  0  0
    3.4573  -10.0301   25.6581 H   0  0  0  0  0  0  0  0  0  0  0  0
    2.5156   -9.7398   25.0568 C   0  0  0  0  0  0  0  0  0  0  0  0
    1.8994  -10.6538   25.2845 H   0  0  0  0  0  0  0  0  0  0  0  0
  1  2  1  0
  2  3  2  0
  3  4  1  0
  4  5  1  0
  5  6  1  0
  6  7  1  0
  6  8  1  0
  6  9  1  0
  9 10  1  0
  9 11  1  0
  9 12  1  0
 12 13  1  0
 13 14  2  0
 14 15  1  0
 15 16  2  0
 16 17  1  0
 17 18  1  0
 15 19  1  0
 19 20  1  0
 19 21  1  0
 19 22  1  0
 22 23  1  6
 22 24  1  0
 24 25  2  0
 25 26  1  0
 25 27  1  0
 27 28  2  0
 28 29  1  0
 28 30  1  0
 30 31  1  0
 30 32  2  0
 32 33  1  0
 22 34  1  0
 34 35  1  0
 34 36  1  0
 12 37  1  0
 37 38  1  0
 37 39  1  0
 37 40  1  0
 40 41  1  0
 40 42  1  0
  4 43  2  0
 43 44  1  0
 43 45  1  0
 45 46  1  0
 45 47  2  0
 47 48  1  0
 47  2  1  0
 40  5  1  0
 17 13  1  0
 32 24  1  0
 34 14  1  0
M  END
>  <cnnaffinity>  (1) 
-5.35406

>  <filename>  (1) 
c1ccc(N2CCN(c3[nH]nc4c3C[C@@H](c3cccnc3)C4)CC2)nc1

$$$$
