
     RDKit          3D

 35 38  0  0  0  0  0  0  0  0999 V2000
    3.4482   -0.4787   28.6221 C   0  0  0  0  0  0  0  0  0  0  0  0
    3.8816    0.2401   27.5042 C   0  0  0  0  0  0  0  0  0  0  0  0
    4.9785   -0.2030   26.7621 C   0  0  0  0  0  0  0  0  0  0  0  0
    5.6666   -1.3816   27.1182 C   0  0  0  0  0  0  0  0  0  0  0  0
    6.8487   -1.8502   26.3101 C   0  0  0  0  0  0  0  0  0  0  0  0
    6.8860   -1.5064   25.0122 N   0  0  0  0  0  0  0  0  0  0  0  0
    7.9164   -1.9112   24.2452 C   0  0  0  0  0  0  0  0  0  0  0  0
    7.9211   -1.5142   22.7852 C   0  0  0  0  0  0  0  0  0  0  0  0
    8.8891   -1.8578   21.9612 N   0  0  0  0  0  0  0  0  0  0  0  0
    8.5123   -1.3060   20.7532 O   0  0  0  0  0  0  0  0  0  0  0  0
    7.3508   -0.6813   20.9611 C   0  0  0  0  0  0  0  0  0  0  0  0
    6.6529    0.0161   19.8922 C   0  0  0  0  0  0  0  0  0  0  0  0
    5.4350    0.6563   20.1596 C   0  0  0  0  0  0  0  0  0  0  0  0
    4.8033    1.3114   19.1108 C   0  0  0  0  0  0  0  0  0  0  0  0
    5.4069    1.2882   17.8462 C   0  0  0  0  0  0  0  0  0  0  0  0
    6.5735    0.6749   17.5856 N   0  0  0  0  0  0  0  0  0  0  0  0
    7.1839    0.0575   18.6020 C   0  0  0  0  0  0  0  0  0  0  0  0
    8.1312   -0.4341   18.3755 H   0  0  0  0  0  0  0  0  0  0  0  0
    4.9141    1.7715   17.0055 H   0  0  0  0  0  0  0  0  0  0  0  0
    3.8707    1.8459   19.2648 H   0  0  0  0  0  0  0  0  0  0  0  0
    5.0107    0.6274   21.1659 H   0  0  0  0  0  0  0  0  0  0  0  0
    6.9362   -0.7720   22.1794 N   0  0  0  0  0  0  0  0  0  0  0  0
    8.9857   -2.6708   24.7614 C   0  0  0  0  0  0  0  0  0  0  0  0
    8.9623   -3.0093   26.1072 C   0  0  0  0  0  0  0  0  0  0  0  0
    7.8889   -2.5970   26.8860 C   0  0  0  0  0  0  0  0  0  0  0  0
    7.8862   -2.8416   27.9269 H   0  0  0  0  0  0  0  0  0  0  0  0
    9.7680   -3.5899   26.5449 H   0  0  0  0  0  0  0  0  0  0  0  0
    9.8098   -2.9779   24.1269 H   0  0  0  0  0  0  0  0  0  0  0  0
    5.2142   -2.0958   28.2492 C   0  0  0  0  0  0  0  0  0  0  0  0
    4.1174   -1.6484   28.9923 C   0  0  0  0  0  0  0  0  0  0  0  0
    3.7818   -2.2128   29.8602 H   0  0  0  0  0  0  0  0  0  0  0  0
    5.6853   -3.0285   28.5502 H   0  0  0  0  0  0  0  0  0  0  0  0
    5.3061    0.3576   25.8888 H   0  0  0  0  0  0  0  0  0  0  0  0
    3.3630    1.1464   27.2031 H   0  0  0  0  0  0  0  0  0  0  0  0
    2.5943   -0.1298   29.1959 H   0  0  0  0  0  0  0  0  0  0  0  0
  1  2  2  0
  2  3  1  0
  3  4  2  0
  4  5  1  0
  5  6  2  0
  6  7  1  0
  7  8  1  0
  8  9  2  0
  9 10  1  0
 10 11  1  0
 11 12  1  0
 12 13  2  0
 13 14  1  0
 14 15  2  0
 15 16  1  0
 16 17  2  0
 17 18  1  0
 15 19  1  0
 14 20  1  0
 13 21  1  0
 11 22  2  0
  7 23  2  0
 23 24  1  0
 24 25  2  0
 25 26  1  0
 24 27  1  0
 23 28  1  0
  4 29  1  0
 29 30  2  0
 30 31  1  0
 29 32  1  0
  3 33  1  0
  2 34  1  0
  1 35  1  0
 30  1  1  0
 25  5  1  0
 22  8  1  0
 17 12  1  0
M  END
>  <cnnaffinity>  (1) 
-5.2148

>  <filename>  (1) 
c1ccc(-c2cccc(-c3noc(-c4cccnc4)n3)n2)cc1

$$$$
