
     RDKit          3D

 49 54  0  0  0  0  0  0  0  0999 V2000
    6.9417    6.6960   23.0941 C   0  0  0  0  0  0  0  0  0  0  0  0
    6.1716    5.5283   23.0412 C   0  0  0  0  0  0  0  0  0  0  0  0
    6.7590    4.2848   23.2893 C   0  0  0  0  0  0  0  0  0  0  0  0
    8.1137    4.2001   23.6343 C   0  0  0  0  0  0  0  0  0  0  0  0
    8.7046    2.8684   24.0174 C   0  0  0  0  0  0  0  0  0  0  0  0
    8.8081    1.8834   22.9588 N   0  0  0  0  0  0  0  0  0  0  0  0
    7.7458    1.1205   22.5910 N   0  0  0  0  0  0  0  0  0  0  0  0
    8.2724    0.2886   21.7133 C   0  0  0  0  0  0  0  0  0  0  0  0
    7.4239   -0.6939   20.9571 C   0  0  0  0  0  0  0  0  0  0  0  0
    6.6399   -0.0519   19.8171 C   0  0  0  0  0  0  0  0  0  0  0  0
    5.4392    0.6199   20.0822 C   0  0  0  0  0  0  0  0  0  0  0  0
    4.8033    1.3025   19.0422 C   0  0  0  0  0  0  0  0  0  0  0  0
    5.3972    1.3011   17.7772 C   0  0  0  0  0  0  0  0  0  0  0  0
    6.5395    0.6536   17.4963 N   0  0  0  0  0  0  0  0  0  0  0  0
    7.1346    0.0012   18.5030 C   0  0  0  0  0  0  0  0  0  0  0  0
    8.0699   -0.5039   18.2581 H   0  0  0  0  0  0  0  0  0  0  0  0
    4.9393    1.8468   16.9530 H   0  0  0  0  0  0  0  0  0  0  0  0
    3.8797    1.8483   19.2049 H   0  0  0  0  0  0  0  0  0  0  0  0
    5.0302    0.6247   21.0950 H   0  0  0  0  0  0  0  0  0  0  0  0
    6.7247   -1.1368   21.6745 H   0  0  0  0  0  0  0  0  0  0  0  0
    8.0720   -1.4942   20.5882 H   0  0  0  0  0  0  0  0  0  0  0  0
    9.6100    0.4310   21.5226 N   0  0  0  0  0  0  0  0  0  0  0  0
    9.9067    1.4759   22.2773 C   0  0  0  0  0  0  0  0  0  0  0  0
   11.2005    2.1122   22.3910 C   0  0  0  0  0  0  0  0  0  0  0  0
   11.3909    3.4916   22.3808 C   0  0  0  0  0  0  0  0  0  0  0  0
   12.5936    4.0867   22.5446 N   0  0  0  0  0  0  0  0  0  0  0  0
   13.6913    3.3274   22.6862 C   0  0  0  0  0  0  0  0  0  0  0  0
   13.6181    1.9131   22.7326 C   0  0  0  0  0  0  0  0  0  0  0  0
   12.3549    1.3438   22.5316 C   0  0  0  0  0  0  0  0  0  0  0  0
   12.5433    0.0011   22.5222 N   0  0  0  0  0  0  0  0  0  0  0  0
   13.8827   -0.2066   22.7082 C   0  0  0  0  0  0  0  0  0  0  0  0
   14.5669    0.8924   22.8457 N   0  0  0  0  0  0  0  0  0  0  0  0
   14.3006   -1.2017   22.7765 H   0  0  0  0  0  0  0  0  0  0  0  0
   11.8403   -0.6415   22.1956 H   0  0  0  0  0  0  0  0  0  0  0  0
   14.6554    3.8357   22.7280 H   0  0  0  0  0  0  0  0  0  0  0  0
   10.5382    4.1603   22.2587 H   0  0  0  0  0  0  0  0  0  0  0  0
    9.7800    2.9265   25.0615 C   0  0  0  0  0  0  0  0  0  0  0  0
    8.4561    2.3269   25.4032 C   0  0  0  0  0  0  0  0  0  0  0  0
    8.4343    1.2452   25.4858 H   0  0  0  0  0  0  0  0  0  0  0  0
    7.7781    2.8817   26.0412 H   0  0  0  0  0  0  0  0  0  0  0  0
   10.6316    2.2628   24.9460 H   0  0  0  0  0  0  0  0  0  0  0  0
    9.9953    3.9353   25.4037 H   0  0  0  0  0  0  0  0  0  0  0  0
    8.8870    5.3788   23.6550 C   0  0  0  0  0  0  0  0  0  0  0  0
    8.3078    6.6203   23.3931 C   0  0  0  0  0  0  0  0  0  0  0  0
    8.9226    7.5167   23.4213 H   0  0  0  0  0  0  0  0  0  0  0  0
    9.9519    5.3176   23.8771 H   0  0  0  0  0  0  0  0  0  0  0  0
    6.1862    3.3621   23.2199 H   0  0  0  0  0  0  0  0  0  0  0  0
    5.1121    5.5877   22.8045 H   0  0  0  0  0  0  0  0  0  0  0  0
    6.4905    7.6609   22.8833 H   0  0  0  0  0  0  0  0  0  0  0  0
  1  2  2  0
  2  3  1  0
  3  4  2  0
  4  5  1  0
  5  6  1  0
  6  7  1  0
  7  8  2  0
  8  9  1  0
  9 10  1  0
 10 11  2  0
 11 12  1  0
 12 13  2  0
 13 14  1  0
 14 15  2  0
 15 16  1  0
 13 17  1  0
 12 18  1  0
 11 19  1  0
  9 20  1  0
  9 21  1  0
  8 22  1  0
 22 23  2  0
 23 24  1  0
 24 25  2  0
 25 26  1  0
 26 27  2  0
 27 28  1  0
 28 29  2  0
 29 30  1  0
 30 31  1  0
 31 32  2  0
 31 33  1  0
 30 34  1  0
 27 35  1  0
 25 36  1  0
  5 37  1  0
 37 38  1  0
 38 39  1  0
 38 40  1  0
 37 41  1  0
 37 42  1  0
  4 43  1  0
 43 44  2  0
 44 45  1  0
 43 46  1  0
  3 47  1  0
  2 48  1  0
  1 49  1  0
 44  1  1  0
 38  5  1  0
 23  6  1  0
 29 24  1  0
 15 10  1  0
 32 28  1  0
M  END
>  <cnnaffinity>  (1) 
-6.87954

>  <filename>  (1) 
c1ccc(C2(n3nc(Cc4cccnc4)nc3-c3cncc4nc[nH]c34)CC2)cc1

$$$$
