
     RDKit          3D

 45 49  0  0  0  0  0  0  0  0999 V2000
    4.9497    1.7044   16.7652 H   0  0  0  0  0  0  0  0  0  0  0  0
    5.4205    1.2324   17.6252 C   0  0  0  0  0  0  0  0  0  0  0  0
    6.5700    0.5817   17.3795 N   0  0  0  0  0  0  0  0  0  0  0  0
    7.1848    0.0067   18.4191 C   0  0  0  0  0  0  0  0  0  0  0  0
    8.1219   -0.4991   18.1849 H   0  0  0  0  0  0  0  0  0  0  0  0
    6.7048    0.0463   19.7450 C   0  0  0  0  0  0  0  0  0  0  0  0
    7.4562   -0.5248   20.8800 C   0  0  0  0  0  0  0  0  0  0  0  0
    7.6367   -0.0654   22.1705 C   0  0  0  0  0  0  0  0  0  0  0  0
    8.4995   -0.9762   22.7727 C   0  0  0  0  0  0  0  0  0  0  0  0
    8.8448   -1.9695   21.9739 N   0  0  0  0  0  0  0  0  0  0  0  0
    8.2101   -1.6623   20.8168 N   0  0  0  0  0  0  0  0  0  0  0  0
    8.2217   -2.3311   20.0591 H   0  0  0  0  0  0  0  0  0  0  0  0
    8.8248   -0.6303   24.1903 C   0  0  0  0  0  0  0  0  0  0  0  0
    8.5433   -1.4436   24.8681 H   0  0  0  0  0  0  0  0  0  0  0  0
    9.8972   -0.4735   24.3367 H   0  0  0  0  0  0  0  0  0  0  0  0
    8.0070    0.6907   24.4431 C   0  0  2  0  0  0  0  0  0  0  0  0
    8.7279    1.5020   24.5872 H   0  0  0  0  0  0  0  0  0  0  0  0
    7.1278    0.5961   25.6771 C   0  0  0  0  0  0  0  0  0  0  0  0
    6.1141   -0.3746   25.7233 C   0  0  0  0  0  0  0  0  0  0  0  0
    5.9720   -1.0412   24.8743 H   0  0  0  0  0  0  0  0  0  0  0  0
    5.2984   -0.5123   26.8477 C   0  0  0  0  0  0  0  0  0  0  0  0
    4.5232   -1.2714   26.8654 H   0  0  0  0  0  0  0  0  0  0  0  0
    5.4757    0.3339   27.9444 C   0  0  0  0  0  0  0  0  0  0  0  0
    4.8458    0.2301   28.8258 H   0  0  0  0  0  0  0  0  0  0  0  0
    6.4748    1.3230   27.9227 C   0  0  0  0  0  0  0  0  0  0  0  0
    6.6403    2.2487   29.1428 C   0  0  0  0  0  0  0  0  0  0  0  0
    5.5818    3.1070   29.4437 C   0  0  0  0  0  0  0  0  0  0  0  0
    4.6578    3.0895   28.8557 H   0  0  0  0  0  0  0  0  0  0  0  0
    5.6848    3.8663   30.6914 C   0  0  0  0  0  0  0  0  0  0  0  0
    5.2735    4.8419   30.7371 H   0  0  0  0  0  0  0  0  0  0  0  0
    6.8196    4.3287   31.1729 C   0  0  0  0  0  0  0  0  0  0  0  0
    7.7265    5.0676   30.9825 H   0  0  0  0  0  0  0  0  0  0  0  0
    7.0617    4.0832   31.2770 C   0  0  0  0  0  0  0  0  0  0  0  0
    7.7612    3.0402   31.1031 H   0  0  0  0  0  0  0  0  0  0  0  0
    7.7770    2.1189   29.8898 C   0  0  0  0  0  0  0  0  0  0  0  0
    8.5823    1.4311   29.6488 H   0  0  0  0  0  0  0  0  0  0  0  0
    7.3021    1.4327   26.7956 C   0  0  0  0  0  0  0  0  0  0  0  0
    8.0811    2.1907   26.7763 H   0  0  0  0  0  0  0  0  0  0  0  0
    7.2109    1.0119   23.1220 C   0  0  0  0  0  0  0  0  0  0  0  0
    6.1245    1.0012   23.2895 H   0  0  0  0  0  0  0  0  0  0  0  0
    7.4426    2.0192   22.7516 H   0  0  0  0  0  0  0  0  0  0  0  0
    5.4935    0.7188   19.9706 C   0  0  0  0  0  0  0  0  0  0  0  0
    5.0726    0.7592   20.9749 H   0  0  0  0  0  0  0  0  0  0  0  0
    4.8397    1.3169   18.8946 C   0  0  0  0  0  0  0  0  0  0  0  0
    3.9086    1.8560   19.0244 H   0  0  0  0  0  0  0  0  0  0  0  0
  1  2  1  0
  2  3  2  0
  3  4  1  0
  4  5  1  0
  4  6  2  0
  6  7  1  0
  7  8  2  0
  8  9  1  0
  9 10  2  0
 10 11  1  0
 11 12  1  0
  9 13  1  0
 13 14  1  0
 13 15  1  0
 13 16  1  0
 16 17  1  1
 16 18  1  0
 18 19  2  0
 19 20  1  0
 19 21  1  0
 21 22  1  0
 21 23  2  0
 23 24  1  0
 23 25  1  0
 25 26  1  0
 26 27  2  0
 27 28  1  0
 27 29  1  0
 29 30  1  0
 29 31  2  0
 31 32  1  0
 31 33  1  0
 33 34  1  0
 33 35  2  0
 35 36  1  0
 25 37  2  0
 37 38  1  0
 16 39  1  0
 39 40  1  0
 39 41  1  0
  6 42  1  0
 42 43  1  0
 42 44  2  0
 44 45  1  0
 44  2  1  0
 11  7  1  0
 37 18  1  0
 39  8  1  0
 35 26  1  0
M  END
>  <cnnaffinity>  (1) 
-5.51497

>  <filename>  (1) 
c1ccc(-c2cccc([C@H]3Cc4n[nH]c(-c5cccnc5)c4C3)c2)cc1

$$$$
