
     RDKit          3D

 43 46  0  0  0  0  0  0  0  0999 V2000
    6.7073   -5.3668   28.7221 C   0  0  0  0  0  0  0  0  0  0  0  0
    6.3605   -4.2431   27.9582 C   0  0  0  0  0  0  0  0  0  0  0  0
    7.2137   -3.7760   26.9584 C   0  0  0  0  0  0  0  0  0  0  0  0
    8.4392   -4.4229   26.7102 C   0  0  0  0  0  0  0  0  0  0  0  0
    9.3292   -4.0466   25.5794 C   0  0  0  0  0  0  0  0  0  0  0  0
    8.7432   -3.3877   24.5682 N   0  0  0  0  0  0  0  0  0  0  0  0
    9.5194   -3.0341   23.5327 C   0  0  0  0  0  0  0  0  0  0  0  0
    8.8597   -2.3642   22.5407 N   0  0  0  0  0  0  0  0  0  0  0  0
    9.5535   -1.5309   21.5600 C   0  0  0  0  0  0  0  0  0  0  0  0
    8.6859   -0.3090   21.2390 C   0  0  0  0  0  0  0  0  0  0  0  0
    7.3621   -0.7500   20.7828 N   0  0  0  0  0  0  0  0  0  0  0  0
    6.6628   -0.0096   19.8127 C   0  0  0  0  0  0  0  0  0  0  0  0
    5.4401    0.6292   20.0843 C   0  0  0  0  0  0  0  0  0  0  0  0
    4.8005    1.3185   19.0489 C   0  0  0  0  0  0  0  0  0  0  0  0
    5.3847    1.3524   17.7766 C   0  0  0  0  0  0  0  0  0  0  0  0
    6.5502    0.7473   17.4900 N   0  0  0  0  0  0  0  0  0  0  0  0
    7.1642    0.1002   18.4890 C   0  0  0  0  0  0  0  0  0  0  0  0
    8.1062   -0.3908   18.2506 H   0  0  0  0  0  0  0  0  0  0  0  0
    4.9052    1.8827   16.9577 H   0  0  0  0  0  0  0  0  0  0  0  0
    3.8642    1.8346   19.2232 H   0  0  0  0  0  0  0  0  0  0  0  0
    5.0347    0.5895   21.0954 H   0  0  0  0  0  0  0  0  0  0  0  0
    6.6641   -1.4940   21.8322 C   0  0  0  0  0  0  0  0  0  0  0  0
    7.4821   -2.7393   22.1847 C   0  0  0  0  0  0  0  0  0  0  0  0
    7.0083   -3.2649   23.0191 H   0  0  0  0  0  0  0  0  0  0  0  0
    7.5013   -3.4201   21.3180 H   0  0  0  0  0  0  0  0  0  0  0  0
    6.5281   -0.8900   22.7485 H   0  0  0  0  0  0  0  0  0  0  0  0
    5.6681   -1.7967   21.4910 H   0  0  0  0  0  0  0  0  0  0  0  0
    9.1708    0.3094   20.4796 H   0  0  0  0  0  0  0  0  0  0  0  0
    8.6064    0.3048   22.1551 H   0  0  0  0  0  0  0  0  0  0  0  0
    9.7615   -2.1110   20.6474 H   0  0  0  0  0  0  0  0  0  0  0  0
   10.5085   -1.1833   21.9706 H   0  0  0  0  0  0  0  0  0  0  0  0
   10.9078   -3.3802   23.4919 C   0  0  0  0  0  0  0  0  0  0  0  0
   11.4798   -4.0886   24.4738 N   0  0  0  0  0  0  0  0  0  0  0  0
   10.6985   -4.4056   25.5254 C   0  0  0  0  0  0  0  0  0  0  0  0
   11.1812   -4.9246   26.3478 H   0  0  0  0  0  0  0  0  0  0  0  0
   11.5196   -3.1225   22.6297 H   0  0  0  0  0  0  0  0  0  0  0  0
    8.7809   -5.5329   27.4864 C   0  0  0  0  0  0  0  0  0  0  0  0
    7.9315   -6.0080   28.4820 C   0  0  0  0  0  0  0  0  0  0  0  0
    8.2155   -6.9049   29.0190 H   0  0  0  0  0  0  0  0  0  0  0  0
    9.7125   -6.0404   27.2601 H   0  0  0  0  0  0  0  0  0  0  0  0
    6.9213   -2.9351   26.3290 H   0  0  0  0  0  0  0  0  0  0  0  0
    5.4427   -3.6995   28.1660 H   0  0  0  0  0  0  0  0  0  0  0  0
    6.0189   -5.7533   29.4719 H   0  0  0  0  0  0  0  0  0  0  0  0
  1  2  2  0
  2  3  1  0
  3  4  2  0
  4  5  1  0
  5  6  2  0
  6  7  1  0
  7  8  1  0
  8  9  1  0
  9 10  1  0
 10 11  1  0
 11 12  1  0
 12 13  2  0
 13 14  1  0
 14 15  2  0
 15 16  1  0
 16 17  2  0
 17 18  1  0
 15 19  1  0
 14 20  1  0
 13 21  1  0
 11 22  1  0
 22 23  1  0
 23 24  1  0
 23 25  1  0
 22 26  1  0
 22 27  1  0
 10 28  1  0
 10 29  1  0
  9 30  1  0
  9 31  1  0
  7 32  2  0
 32 33  1  0
 33 34  2  0
 34 35  1  0
 32 36  1  0
  4 37  1  0
 37 38  2  0
 38 39  1  0
 37 40  1  0
  3 41  1  0
  2 42  1  0
  1 43  1  0
 38  1  1  0
 34  5  1  0
 23  8  1  0
 17 12  1  0
M  END
>  <cnnaffinity>  (1) 
-5.75971

>  <filename>  (1) 
c1ccc(-c2cncc(N3CCN(c4cccnc4)CC3)n2)cc1

$$$$
