
     RDKit          3D

 37 40  0  0  0  0  0  0  0  0999 V2000
    5.0121    1.8129   16.8524 H   0  0  0  0  0  0  0  0  0  0  0  0
    5.4823    1.3308   17.7068 C   0  0  0  0  0  0  0  0  0  0  0  0
    6.6565    0.7253   17.4712 N   0  0  0  0  0  0  0  0  0  0  0  0
    7.2684    0.1333   18.5021 C   0  0  0  0  0  0  0  0  0  0  0  0
    8.2212   -0.3435   18.2781 H   0  0  0  0  0  0  0  0  0  0  0  0
    6.7389    0.0946   19.8067 C   0  0  0  0  0  0  0  0  0  0  0  0
    7.4009   -0.6754   20.8774 C   0  0  0  0  0  0  0  0  0  0  0  0
    8.6032   -1.2439   20.6890 N   0  0  0  0  0  0  0  0  0  0  0  0
    8.7804   -1.9428   21.8368 N   0  0  0  0  0  0  0  0  0  0  0  0
    9.7745   -2.7540   22.3705 C   0  0  0  0  0  0  0  0  0  0  0  0
   10.7272   -2.8108   21.8714 H   0  0  0  0  0  0  0  0  0  0  0  0
    9.2754   -3.2367   23.5411 C   0  0  0  0  0  0  0  0  0  0  0  0
    9.7064   -3.8865   24.2970 H   0  0  0  0  0  0  0  0  0  0  0  0
    7.9968   -2.7127   23.7430 N   0  0  0  0  0  0  0  0  0  0  0  0
    7.0064   -3.1434   24.7210 C   0  0  0  0  0  0  0  0  0  0  0  0
    7.5226   -3.7448   25.4787 H   0  0  0  0  0  0  0  0  0  0  0  0
    6.2766   -3.8026   24.2329 H   0  0  0  0  0  0  0  0  0  0  0  0
    6.2948   -2.0722   25.3666 N   0  0  0  0  0  0  0  0  0  0  0  0
    5.6745   -1.5961   24.7261 H   0  0  0  0  0  0  0  0  0  0  0  0
    6.9468   -1.1449   26.1834 C   0  0  0  0  0  0  0  0  0  0  0  0
    8.2484   -1.3282   26.6784 C   0  0  0  0  0  0  0  0  0  0  0  0
    8.8546   -2.1535   26.3148 H   0  0  0  0  0  0  0  0  0  0  0  0
    8.7614   -0.4267   27.6192 C   0  0  0  0  0  0  0  0  0  0  0  0
    9.7540   -0.5986   28.0345 H   0  0  0  0  0  0  0  0  0  0  0  0
    7.9986    0.6696   28.0447 C   0  0  0  0  0  0  0  0  0  0  0  0
    8.3750    1.3727   28.7842 H   0  0  0  0  0  0  0  0  0  0  0  0
    6.7219    0.8738   27.5114 C   0  0  0  0  0  0  0  0  0  0  0  0
    6.1175    1.7126   27.8474 H   0  0  0  0  0  0  0  0  0  0  0  0
    6.2074   -0.0161   26.5712 C   0  0  0  0  0  0  0  0  0  0  0  0
    5.2216    0.1222   26.1377 H   0  0  0  0  0  0  0  0  0  0  0  0
    7.7371   -1.8742   22.6812 C   0  0  0  0  0  0  0  0  0  0  0  0
    6.8310   -0.9854   22.1403 C   0  0  0  0  0  0  0  0  0  0  0  0
    5.9931   -0.5188   22.6224 H   0  0  0  0  0  0  0  0  0  0  0  0
    5.5146    0.7487   20.0342 C   0  0  0  0  0  0  0  0  0  0  0  0
    5.0702    0.7728   21.0316 H   0  0  0  0  0  0  0  0  0  0  0  0
    4.8762    1.3730   18.9668 C   0  0  0  0  0  0  0  0  0  0  0  0
    3.9370    1.9012   19.0982 H   0  0  0  0  0  0  0  0  0  0  0  0
  1  2  1  0
  2  3  2  0
  3  4  1  0
  4  5  1  0
  4  6  2  0
  6  7  1  0
  7  8  2  0
  8  9  1  0
  9 10  1  0
 10 11  1  0
 10 12  2  0
 12 13  1  0
 12 14  1  0
 14 15  1  0
 15 16  1  0
 15 17  1  0
 15 18  1  0
 18 19  1  0
 18 20  1  0
 20 21  2  0
 21 22  1  0
 21 23  1  0
 23 24  1  0
 23 25  2  0
 25 26  1  0
 25 27  1  0
 27 28  1  0
 27 29  2  0
 29 30  1  0
 14 31  1  0
 31 32  2  0
 32 33  1  0
  6 34  1  0
 34 35  1  0
 34 36  2  0
 36 37  1  0
 36  2  1  0
 32  7  1  0
 31  9  1  0
 29 20  1  0
M  END
>  <cnnaffinity>  (1) 
-5.4796

>  <filename>  (1) 
c1ccc(NCn2ccn3nc(-c4cccnc4)cc23)cc1

$$$$
