
     RDKit          3D

 36 39  0  0  0  0  0  0  0  0999 V2000
    4.9041    1.7710   17.0071 H   0  0  0  0  0  0  0  0  0  0  0  0
    5.3987    1.2916   17.8484 C   0  0  0  0  0  0  0  0  0  0  0  0
    6.5703    0.6835   17.5920 N   0  0  0  0  0  0  0  0  0  0  0  0
    7.1860    0.0543   18.5965 C   0  0  0  0  0  0  0  0  0  0  0  0
    8.1353   -0.4421   18.3853 H   0  0  0  0  0  0  0  0  0  0  0  0
    6.6576    0.0053   19.8988 C   0  0  0  0  0  0  0  0  0  0  0  0
    7.3509   -0.6933   20.9323 N   0  0  0  0  0  0  0  0  0  0  0  0
    7.8683   -1.9288   20.7430 N   0  0  0  0  0  0  0  0  0  0  0  0
    8.3212   -2.3159   21.8779 N   0  0  0  0  0  0  0  0  0  0  0  0
    8.1250   -1.3828   22.8315 N   0  0  0  0  0  0  0  0  0  0  0  0
    7.5338   -0.3709   22.2398 C   0  0  0  0  0  0  0  0  0  0  0  0
    7.2042    0.9148   22.8678 C   0  0  0  0  0  0  0  0  0  0  0  0
    7.4067    2.1330   22.1965 C   0  0  0  0  0  0  0  0  0  0  0  0
    7.8015    2.1482   21.1853 H   0  0  0  0  0  0  0  0  0  0  0  0
    7.1065    3.3343   22.8302 C   0  0  0  0  0  0  0  0  0  0  0  0
    7.2567    4.2726   22.3078 H   0  0  0  0  0  0  0  0  0  0  0  0
    6.6189    3.3376   24.1374 C   0  0  0  0  0  0  0  0  0  0  0  0
    6.4076    4.2861   24.6236 H   0  0  0  0  0  0  0  0  0  0  0  0
    6.4333    2.1289   24.8334 C   0  0  0  0  0  0  0  0  0  0  0  0
    5.9281    2.1319   26.2336 C   0  0  0  0  0  0  0  0  0  0  0  0
    6.4713    1.2601   27.1970 C   0  0  0  0  0  0  0  0  0  0  0  0
    7.2819    0.5868   26.9255 H   0  0  0  0  0  0  0  0  0  0  0  0
    5.9965    1.2650   28.5098 C   0  0  0  0  0  0  0  0  0  0  0  0
    6.4255    0.5880   29.2419 H   0  0  0  0  0  0  0  0  0  0  0  0
    4.9690    2.1369   28.8796 C   0  0  0  0  0  0  0  0  0  0  0  0
    4.5995    2.1383   29.8989 H   0  0  0  0  0  0  0  0  0  0  0  0
    4.4184    3.0064   27.9344 C   0  0  0  0  0  0  0  0  0  0  0  0
    3.6208    3.6847   28.2196 H   0  0  0  0  0  0  0  0  0  0  0  0
    4.8951    3.0062   26.6226 C   0  0  0  0  0  0  0  0  0  0  0  0
    4.4466    3.6780   25.8940 H   0  0  0  0  0  0  0  0  0  0  0  0
    6.7355    0.9221   24.1856 C   0  0  0  0  0  0  0  0  0  0  0  0
    6.5847   -0.0243   24.7041 H   0  0  0  0  0  0  0  0  0  0  0  0
    5.4416    0.6454   20.1584 C   0  0  0  0  0  0  0  0  0  0  0  0
    5.0121    0.6281   21.1574 H   0  0  0  0  0  0  0  0  0  0  0  0
    4.8058    1.3117   19.1123 C   0  0  0  0  0  0  0  0  0  0  0  0
    3.8734    1.8445   19.2689 H   0  0  0  0  0  0  0  0  0  0  0  0
  1  2  1  0
  2  3  2  0
  3  4  1  0
  4  5  1  0
  4  6  2  0
  6  7  1  0
  7  8  1  0
  8  9  2  0
  9 10  1  0
 10 11  2  0
 11 12  1  0
 12 13  2  0
 13 14  1  0
 13 15  1  0
 15 16  1  0
 15 17  2  0
 17 18  1  0
 17 19  1  0
 19 20  1  0
 20 21  2  0
 21 22  1  0
 21 23  1  0
 23 24  1  0
 23 25  2  0
 25 26  1  0
 25 27  1  0
 27 28  1  0
 27 29  2  0
 29 30  1  0
 19 31  2  0
 31 32  1  0
  6 33  1  0
 33 34  1  0
 33 35  2  0
 35 36  1  0
 35  2  1  0
 11  7  1  0
 31 12  1  0
 29 20  1  0
M  END
>  <cnnaffinity>  (1) 
-5.25587

>  <filename>  (1) 
c1ccc(-c2cccc(-c3nnnn3-c3cccnc3)c2)cc1

$$$$
