
     RDKit          3D

 31 33  0  0  0  0  0  0  0  0999 V2000
    4.9280    1.7815   16.9937 H   0  0  0  0  0  0  0  0  0  0  0  0
    5.4056    1.2892   17.8370 C   0  0  0  0  0  0  0  0  0  0  0  0
    6.5619    0.6656   17.5785 N   0  0  0  0  0  0  0  0  0  0  0  0
    7.1624    0.0537   18.6014 C   0  0  0  0  0  0  0  0  0  0  0  0
    8.1154   -0.4264   18.3784 H   0  0  0  0  0  0  0  0  0  0  0  0
    6.6651    0.0454   19.9047 C   0  0  0  0  0  0  0  0  0  0  0  0
    7.4106   -0.6935   20.9530 C   0  0  0  0  0  0  0  0  0  0  0  0
    7.1923   -2.1135   20.9566 N   0  0  0  0  0  0  0  0  0  0  0  0
    7.4304   -2.5192   20.0584 H   0  0  0  0  0  0  0  0  0  0  0  0
    5.6136   -2.6350   21.4209 S   0  0  0  0  0  0  0  0  0  0  0  0
    6.0808   -3.7887   22.7069 C   0  0  0  0  0  0  0  0  0  0  0  0
    6.2207   -3.3622   24.0324 C   0  0  0  0  0  0  0  0  0  0  0  0
    6.0233   -2.3214   24.2830 H   0  0  0  0  0  0  0  0  0  0  0  0
    6.6493   -4.2669   25.0084 C   0  0  0  0  0  0  0  0  0  0  0  0
    6.7703   -3.9290   26.0348 H   0  0  0  0  0  0  0  0  0  0  0  0
    6.9217   -5.5938   24.6550 C   0  0  0  0  0  0  0  0  0  0  0  0
    7.2478   -6.2911   25.4209 H   0  0  0  0  0  0  0  0  0  0  0  0
    6.7701   -6.0164   23.3267 C   0  0  0  0  0  0  0  0  0  0  0  0
    6.9789   -7.0376   23.0229 H   0  0  0  0  0  0  0  0  0  0  0  0
    6.3427   -5.1172   22.3507 C   0  0  0  0  0  0  0  0  0  0  0  0
    6.2358   -5.4215   21.3121 H   0  0  0  0  0  0  0  0  0  0  0  0
    8.7913   -0.2465   21.3190 C   0  0  0  0  0  0  0  0  0  0  0  0
    9.1607    0.6324   20.8035 H   0  0  0  0  0  0  0  0  0  0  0  0
    9.5246   -1.0125   21.5434 H   0  0  0  0  0  0  0  0  0  0  0  0
    7.6546   -0.0600   22.2810 C   0  0  0  0  0  0  0  0  0  0  0  0
    7.2587    0.9371   22.4386 H   0  0  0  0  0  0  0  0  0  0  0  0
    7.6179   -0.6972   23.1561 H   0  0  0  0  0  0  0  0  0  0  0  0
    5.4336    0.6590   20.1606 C   0  0  0  0  0  0  0  0  0  0  0  0
    5.0125    0.6216   21.1680 H   0  0  0  0  0  0  0  0  0  0  0  0
    4.8036    1.3065   19.1031 C   0  0  0  0  0  0  0  0  0  0  0  0
    3.8733    1.8422   19.2542 H   0  0  0  0  0  0  0  0  0  0  0  0
  1  2  1  0
  2  3  2  0
  3  4  1  0
  4  5  1  0
  4  6  2  0
  6  7  1  0
  7  8  1  0
  8  9  1  0
  8 10  1  0
 10 11  1  0
 11 12  2  0
 12 13  1  0
 12 14  1  0
 14 15  1  0
 14 16  2  0
 16 17  1  0
 16 18  1  0
 18 19  1  0
 18 20  2  0
 20 21  1  0
  7 22  1  0
 22 23  1  0
 22 24  1  0
 22 25  1  0
 25 26  1  0
 25 27  1  0
  6 28  1  0
 28 29  1  0
 28 30  2  0
 30 31  1  0
 30  2  1  0
 25  7  1  0
 20 11  1  0
M  END
>  <cnnaffinity>  (1) 
-4.87723

>  <filename>  (1) 
c1ccc(SNC2(c3cccnc3)CC2)cc1

$$$$
