
     RDKit          3D

 34 36  0  0  0  0  0  0  0  0999 V2000
    4.9933    1.7747   17.1534 H   0  0  0  0  0  0  0  0  0  0  0  0
    5.5162    1.2408   17.9450 C   0  0  0  0  0  0  0  0  0  0  0  0
    6.6669    0.6387   17.6024 N   0  0  0  0  0  0  0  0  0  0  0  0
    7.3380   -0.0155   18.5637 C   0  0  0  0  0  0  0  0  0  0  0  0
    8.2840   -0.4729   18.2767 H   0  0  0  0  0  0  0  0  0  0  0  0
    6.9036   -0.1206   19.9027 C   0  0  0  0  0  0  0  0  0  0  0  0
    7.7079   -0.7575   20.8914 N   0  0  0  0  0  0  0  0  0  0  0  0
    8.3136   -0.0937   21.3686 H   0  0  0  0  0  0  0  0  0  0  0  0
    7.2085   -1.6652   21.8429 C   0  0  0  0  0  0  0  0  0  0  0  0
    6.1143   -2.5709   21.7888 C   0  0  0  0  0  0  0  0  0  0  0  0
    5.4181   -2.7284   20.9755 H   0  0  0  0  0  0  0  0  0  0  0  0
    6.0118   -3.2922   22.9028 N   0  0  0  0  0  0  0  0  0  0  0  0
    7.0363   -2.8715   23.6620 N   0  0  0  0  0  0  0  0  0  0  0  0
    7.2150   -3.2795   24.5674 H   0  0  0  0  0  0  0  0  0  0  0  0
    7.8079   -1.9198   23.0676 C   0  0  0  0  0  0  0  0  0  0  0  0
    9.2872   -1.3335   23.8367 S   0  0  0  0  0  0  0  0  0  0  0  0
    8.6869    0.2038   24.6439 C   0  0  0  0  0  0  0  0  0  0  0  0
    7.9511   -0.0536   25.4087 H   0  0  0  0  0  0  0  0  0  0  0  0
    9.5723    0.5935   25.1577 H   0  0  0  0  0  0  0  0  0  0  0  0
    8.1501    1.2390   23.6910 C   0  0  0  0  0  0  0  0  0  0  0  0
    6.8345    1.7105   23.7992 C   0  0  0  0  0  0  0  0  0  0  0  0
    6.1737    1.2850   24.5542 H   0  0  0  0  0  0  0  0  0  0  0  0
    6.3831    2.7384   22.9618 C   0  0  0  0  0  0  0  0  0  0  0  0
    5.3834    3.1517   23.0757 H   0  0  0  0  0  0  0  0  0  0  0  0
    7.2266    3.2645   21.9783 C   0  0  0  0  0  0  0  0  0  0  0  0
    6.8595    4.0748   21.3525 H   0  0  0  0  0  0  0  0  0  0  0  0
    8.5178    2.7478   21.8146 C   0  0  0  0  0  0  0  0  0  0  0  0
    9.1389    3.0943   20.9942 H   0  0  0  0  0  0  0  0  0  0  0  0
    8.9856    1.7551   22.6826 C   0  0  0  0  0  0  0  0  0  0  0  0
   10.0022    1.3718   22.5851 H   0  0  0  0  0  0  0  0  0  0  0  0
    5.6979    0.5092   20.2368 C   0  0  0  0  0  0  0  0  0  0  0  0
    5.3455    0.4493   21.2677 H   0  0  0  0  0  0  0  0  0  0  0  0
    4.9916    1.2024   19.2422 C   0  0  0  0  0  0  0  0  0  0  0  0
    4.0599    1.7165   19.4595 H   0  0  0  0  0  0  0  0  0  0  0  0
  1  2  1  0
  2  3  2  0
  3  4  1  0
  4  5  1  0
  4  6  2  0
  6  7  1  0
  7  8  1  0
  7  9  1  0
  9 10  1  0
 10 11  1  0
 10 12  2  0
 12 13  1  0
 13 14  1  0
 13 15  1  0
 15 16  1  0
 16 17  1  0
 17 18  1  0
 17 19  1  0
 17 20  1  0
 20 21  2  0
 21 22  1  0
 21 23  1  0
 23 24  1  0
 23 25  2  0
 25 26  1  0
 25 27  1  0
 27 28  1  0
 27 29  2  0
 29 30  1  0
  6 31  1  0
 31 32  1  0
 31 33  2  0
 33 34  1  0
 33  2  1  0
 15  9  2  0
 29 20  1  0
M  END
>  <cnnaffinity>  (1) 
-5.27587

>  <filename>  (1) 
c1ccc(CSc2[nH]ncc2Nc2cccnc2)cc1

$$$$
