
     RDKit          3D

 34 36  0  0  0  0  0  0  0  0999 V2000
    4.9150    1.7979   16.9807 H   0  0  0  0  0  0  0  0  0  0  0  0
    5.3876    1.3053   17.8265 C   0  0  0  0  0  0  0  0  0  0  0  0
    6.5485    0.6854   17.5649 N   0  0  0  0  0  0  0  0  0  0  0  0
    7.1485    0.0684   18.5885 C   0  0  0  0  0  0  0  0  0  0  0  0
    8.1003   -0.4139   18.3712 H   0  0  0  0  0  0  0  0  0  0  0  0
    6.6340    0.0111   19.8994 C   0  0  0  0  0  0  0  0  0  0  0  0
    7.3867   -0.7217   20.9990 C   0  0  0  0  0  0  0  0  0  0  0  0
    7.5828   -1.7639   20.7255 H   0  0  0  0  0  0  0  0  0  0  0  0
    6.7939   -0.7400   21.9208 H   0  0  0  0  0  0  0  0  0  0  0  0
    8.7177   -0.1227   21.3159 C   0  0  0  0  0  0  0  0  0  0  0  0
    9.8860   -0.7048   21.1632 N   0  0  0  0  0  0  0  0  0  0  0  0
   10.8157    0.2186   21.4955 N   0  0  0  0  0  0  0  0  0  0  0  0
   10.2675    1.3231   21.8363 N   0  0  0  0  0  0  0  0  0  0  0  0
    8.9303    1.1358   21.7517 N   0  0  0  0  0  0  0  0  0  0  0  0
    7.9841    2.2208   21.9678 C   0  0  0  0  0  0  0  0  0  0  0  0
    8.5729    3.1124   22.2239 H   0  0  0  0  0  0  0  0  0  0  0  0
    7.4465    2.4466   21.0389 H   0  0  0  0  0  0  0  0  0  0  0  0
    7.0192    1.8427   22.9681 N   0  0  0  0  0  0  0  0  0  0  0  0
    7.2846    1.1073   23.5980 H   0  0  0  0  0  0  0  0  0  0  0  0
    5.8759    2.5563   23.2902 C   0  0  0  0  0  0  0  0  0  0  0  0
    4.9712    2.0140   24.2278 C   0  0  0  0  0  0  0  0  0  0  0  0
    5.2148    1.0703   24.7111 H   0  0  0  0  0  0  0  0  0  0  0  0
    3.7720    2.6759   24.5128 C   0  0  0  0  0  0  0  0  0  0  0  0
    3.0795    2.2455   25.2306 H   0  0  0  0  0  0  0  0  0  0  0  0
    3.4548    3.8870   23.8898 C   0  0  0  0  0  0  0  0  0  0  0  0
    2.5217    4.4027   24.1116 H   0  0  0  0  0  0  0  0  0  0  0  0
    4.3588    4.4330   22.9778 C   0  0  0  0  0  0  0  0  0  0  0  0
    4.1378    5.3705   22.4780 H   0  0  0  0  0  0  0  0  0  0  0  0
    5.5611    3.7859   22.6799 C   0  0  0  0  0  0  0  0  0  0  0  0
    6.2686    4.2102   21.9751 H   0  0  0  0  0  0  0  0  0  0  0  0
    5.4235    0.6620   20.1483 C   0  0  0  0  0  0  0  0  0  0  0  0
    5.0044    0.6486   21.1589 H   0  0  0  0  0  0  0  0  0  0  0  0
    4.7923    1.3267   19.0917 C   0  0  0  0  0  0  0  0  0  0  0  0
    3.8603    1.8541   19.2400 H   0  0  0  0  0  0  0  0  0  0  0  0
  1  2  1  0
  2  3  2  0
  3  4  1  0
  4  5  1  0
  4  6  2  0
  6  7  1  0
  7  8  1  0
  7  9  1  0
  7 10  1  0
 10 11  2  0
 11 12  1  0
 12 13  2  0
 13 14  1  0
 14 15  1  0
 15 16  1  0
 15 17  1  0
 15 18  1  0
 18 19  1  0
 18 20  1  0
 20 21  2  0
 21 22  1  0
 21 23  1  0
 23 24  1  0
 23 25  2  0
 25 26  1  0
 25 27  1  0
 27 28  1  0
 27 29  2  0
 29 30  1  0
  6 31  1  0
 31 32  1  0
 31 33  2  0
 33 34  1  0
 33  2  1  0
 14 10  1  0
 29 20  1  0
M  END
>  <cnnaffinity>  (1) 
-5.10077

>  <filename>  (1) 
c1ccc(NCn2nnnc2Cc2cccnc2)cc1

$$$$
