
     RDKit          3D

 38 40  0  0  0  0  0  0  0  0999 V2000
    5.1330   -6.6089   26.0556 H   0  0  0  0  0  0  0  0  0  0  0  0
    3.8991   -6.9457   25.7691 C   0  0  0  0  0  0  0  0  0  0  0  0
    6.1232   -5.7531   25.1381 N   0  0  0  0  0  0  0  0  0  0  0  0
    5.4786   -5.3561   24.0974 C   0  0  0  0  0  0  0  0  0  0  0  0
    6.3236   -4.9300   23.0124 N   0  0  0  0  0  0  0  0  0  0  0  0
    5.8253   -4.5957   21.6876 C   0  0  0  0  0  0  0  0  0  0  0  0
    4.8955   -5.1232   21.4646 H   0  0  0  0  0  0  0  0  0  0  0  0
    6.5658   -4.9554   20.9559 H   0  0  0  0  0  0  0  0  0  0  0  0
    5.6580   -3.0706   21.4932 C   0  0  0  0  0  0  0  0  0  0  0  0
    5.5773   -2.8643   20.4162 H   0  0  0  0  0  0  0  0  0  0  0  0
    4.7343   -2.7094   21.9661 H   0  0  0  0  0  0  0  0  0  0  0  0
    6.7921   -2.3554   22.0908 N   0  0  0  0  0  0  0  0  0  0  0  0
    6.8909   -1.0252   21.7232 N   0  0  0  0  0  0  0  0  0  0  0  0
    7.2908   -0.4527   22.4714 H   0  0  0  0  0  0  0  0  0  0  0  0
    7.5971   -0.8402   20.5205 N   0  0  0  0  0  0  0  0  0  0  0  0
    7.8490   -1.7658   20.1712 H   0  0  0  0  0  0  0  0  0  0  0  0
    6.9189   -0.0558   19.5392 C   0  0  0  0  0  0  0  0  0  0  0  0
    7.4643    0.0652   18.2442 C   0  0  0  0  0  0  0  0  0  0  0  0
    8.4065   -0.4327   18.0097 H   0  0  0  0  0  0  0  0  0  0  0  0
    6.8987    0.7636   17.2513 N   0  0  0  0  0  0  0  0  0  0  0  0
    5.7435    1.3957   17.5038 C   0  0  0  0  0  0  0  0  0  0  0  0
    5.2959    1.9337   16.6706 H   0  0  0  0  0  0  0  0  0  0  0  0
    5.1305    1.3646   18.7587 C   0  0  0  0  0  0  0  0  0  0  0  0
    4.2051    1.9086   18.9200 H   0  0  0  0  0  0  0  0  0  0  0  0
    5.7256    0.6389   19.7948 C   0  0  0  0  0  0  0  0  0  0  0  0
    5.2875    0.5906   20.7898 H   0  0  0  0  0  0  0  0  0  0  0  0
    7.9948   -3.1348   22.4109 C   0  0  0  0  0  0  0  0  0  0  0  0
    8.7385   -2.4958   22.9053 H   0  0  0  0  0  0  0  0  0  0  0  0
    8.4627   -3.5400   21.4924 H   0  0  0  0  0  0  0  0  0  0  0  0
    7.6190   -4.3082   23.3549 C   0  0  0  0  0  0  0  0  0  0  0  0
    8.4191   -5.0621   23.3307 H   0  0  0  0  0  0  0  0  0  0  0  0
    7.5608   -3.9560   24.3892 H   0  0  0  0  0  0  0  0  0  0  0  0
    4.0474   -5.2148   23.9201 C   0  0  0  0  0  0  0  0  0  0  0  0
    3.6122   -4.5018   23.2367 H   0  0  0  0  0  0  0  0  0  0  0  0
    3.2442   -5.8658   24.9493 C   0  0  0  0  0  0  0  0  0  0  0  0
    2.2821   -6.2629   24.7203 H   0  0  0  0  0  0  0  0  0  0  0  0
    3.6298   -6.9754   25.5735 C   0  0  0  0  0  0  0  0  0  0  0  0
    3.4201   -8.0060   26.1275 H   0  0  0  0  0  0  0  0  0  0  0  0
  1  2  1  0
  2  3  2  0
  3  4  1  0
  4  5  1  0
  5  6  1  0
  6  7  1  0
  6  8  1  0
  6  9  1  0
  9 10  1  0
  9 11  1  0
  9 12  1  0
 12 13  1  0
 13 14  1  0
 13 15  1  0
 15 16  1  0
 15 17  1  0
 17 18  2  0
 18 19  1  0
 18 20  1  0
 20 21  2  0
 21 22  1  0
 21 23  1  0
 23 24  1  0
 23 25  2  0
 25 26  1  0
 12 27  1  0
 27 28  1  0
 27 29  1  0
 27 30  1  0
 30 31  1  0
 30 32  1  0
  4 33  2  0
 33 34  1  0
 33 35  1  0
 35 36  1  0
 35 37  2  0
 37 38  1  0
 37  2  1  0
 30  5  1  0
 25 17  1  0
M  END
>  <cnnaffinity>  (1) 
-4.60157

>  <filename>  (1) 
c1ccc(N2CCN(NNc3cccnc3)CC2)nc1

$$$$
