
     RDKit          3D

 44 47  0  0  0  0  0  0  0  0999 V2000
    5.1767    1.7816   17.1223 H   0  0  0  0  0  0  0  0  0  0  0  0
    5.5243    1.1981   17.9715 C   0  0  0  0  0  0  0  0  0  0  0  0
    6.6228    0.4622   17.7533 N   0  0  0  0  0  0  0  0  0  0  0  0
    7.0886   -0.2488   18.7796 C   0  0  0  0  0  0  0  0  0  0  0  0
    7.9766   -0.8435   18.5689 H   0  0  0  0  0  0  0  0  0  0  0  0
    6.5139   -0.2678   20.0594 C   0  0  0  0  0  0  0  0  0  0  0  0
    7.2668   -0.9728   21.1231 C   0  0  0  0  0  0  0  0  0  0  0  0
    6.5641   -1.6578   22.0230 N   0  0  0  0  0  0  0  0  0  0  0  0
    7.2383   -2.2035   23.0476 C   0  0  0  0  0  0  0  0  0  0  0  0
    6.4790   -2.8256   24.0043 N   0  0  0  0  0  0  0  0  0  0  0  0
    5.1031   -3.2964   23.7484 C   0  0  0  0  0  0  0  0  0  0  0  0
    4.8916   -3.3640   22.6765 H   0  0  0  0  0  0  0  0  0  0  0  0
    4.3798   -2.6048   24.1990 H   0  0  0  0  0  0  0  0  0  0  0  0
    4.8744   -4.6484   24.4506 C   0  0  0  0  0  0  0  0  0  0  0  0
    5.6337   -5.3501   24.0664 H   0  0  0  0  0  0  0  0  0  0  0  0
    3.8794   -5.0309   24.1896 H   0  0  0  0  0  0  0  0  0  0  0  0
    4.9715   -4.4776   25.9112 N   0  0  0  0  0  0  0  0  0  0  0  0
    4.1753   -5.1969   26.7942 C   0  0  0  0  0  0  0  0  0  0  0  0
    3.8160   -4.6833   28.0590 C   0  0  0  0  0  0  0  0  0  0  0  0
    4.1529   -3.6882   28.3376 H   0  0  0  0  0  0  0  0  0  0  0  0
    3.0173   -5.4327   28.9253 C   0  0  0  0  0  0  0  0  0  0  0  0
    2.7444   -5.0131   29.8890 H   0  0  0  0  0  0  0  0  0  0  0  0
    2.5665   -6.7055   28.5634 C   0  0  0  0  0  0  0  0  0  0  0  0
    1.9722   -7.2983   29.2513 H   0  0  0  0  0  0  0  0  0  0  0  0
    2.9213   -7.2228   27.3148 C   0  0  0  0  0  0  0  0  0  0  0  0
    2.5772   -8.2068   27.0132 H   0  0  0  0  0  0  0  0  0  0  0  0
    3.7096   -6.4810   26.4360 C   0  0  0  0  0  0  0  0  0  0  0  0
    3.9820   -6.8705   25.4619 H   0  0  0  0  0  0  0  0  0  0  0  0
    5.8473   -3.3815   26.3583 C   0  0  0  0  0  0  0  0  0  0  0  0
    6.2815   -3.6174   27.3370 H   0  0  0  0  0  0  0  0  0  0  0  0
    5.2882   -2.4367   26.4667 H   0  0  0  0  0  0  0  0  0  0  0  0
    7.0006   -3.1201   25.3560 C   0  0  0  0  0  0  0  0  0  0  0  0
    7.6042   -2.2755   25.7247 H   0  0  0  0  0  0  0  0  0  0  0  0
    7.6450   -4.0144   25.3457 H   0  0  0  0  0  0  0  0  0  0  0  0
    8.6504   -2.1729   23.1518 C   0  0  0  0  0  0  0  0  0  0  0  0
    9.1227   -2.6899   23.9772 H   0  0  0  0  0  0  0  0  0  0  0  0
    9.3752   -1.4859   22.1852 C   0  0  0  0  0  0  0  0  0  0  0  0
   10.4642   -1.4159   22.2343 H   0  0  0  0  0  0  0  0  0  0  0  0
    8.6667   -0.8682   21.1536 C   0  0  0  0  0  0  0  0  0  0  0  0
    9.1661   -0.2717   20.4022 H   0  0  0  0  0  0  0  0  0  0  0  0
    5.3226    0.4494   20.2548 C   0  0  0  0  0  0  0  0  0  0  0  0
    4.8019    0.4248   21.2162 H   0  0  0  0  0  0  0  0  0  0  0  0
    4.8351    1.2125   19.1906 C   0  0  0  0  0  0  0  0  0  0  0  0
    3.9474    1.8304   19.2829 H   0  0  0  0  0  0  0  0  0  0  0  0
  1  2  1  0
  2  3  2  0
  3  4  1  0
  4  5  1  0
  4  6  2  0
  6  7  1  0
  7  8  2  0
  8  9  1  0
  9 10  1  0
 10 11  1  0
 11 12  1  0
 11 13  1  0
 11 14  1  0
 14 15  1  0
 14 16  1  0
 14 17  1  0
 17 18  1  0
 18 19  2  0
 19 20  1  0
 19 21  1  0
 21 22  1  0
 21 23  2  0
 23 24  1  0
 23 25  1  0
 25 26  1  0
 25 27  2  0
 27 28  1  0
 17 29  1  0
 29 30  1  0
 29 31  1  0
 29 32  1  0
 32 33  1  0
 32 34  1  0
  9 35  2  0
 35 36  1  0
 35 37  1  0
 37 38  1  0
 37 39  2  0
 39 40  1  0
  6 41  1  0
 41 42  1  0
 41 43  2  0
 43 44  1  0
 43  2  1  0
 39  7  1  0
 32 10  1  0
 27 18  1  0
M  END
>  <cnnaffinity>  (1) 
-5.16694

>  <filename>  (1) 
c1ccc(N2CCN(c3cccc(-c4cccnc4)n3)CC2)cc1

$$$$
