
     RDKit          3D

 30 32  0  0  0  0  0  0  0  0999 V2000
    8.7352   -3.3582   21.1421 H   0  0  0  0  0  0  0  0  0  0  0  0
    8.2269   -2.4358   21.4253 C   0  0  0  0  0  0  0  0  0  0  0  0
    7.5952   -1.7688   20.4538 N   0  0  0  0  0  0  0  0  0  0  0  0
    6.8941   -0.6628   20.8054 C   0  0  0  0  0  0  0  0  0  0  0  0
    6.2990    0.1194   19.6965 C   0  0  0  0  0  0  0  0  0  0  0  0
    6.9335    0.1251   18.4363 C   0  0  0  0  0  0  0  0  0  0  0  0
    7.8745   -0.4045   18.3044 H   0  0  0  0  0  0  0  0  0  0  0  0
    6.4696    0.7869   17.3715 N   0  0  0  0  0  0  0  0  0  0  0  0
    5.3426    1.4970   17.5344 C   0  0  0  0  0  0  0  0  0  0  0  0
    4.9890    2.0323   16.6550 H   0  0  0  0  0  0  0  0  0  0  0  0
    4.6491    1.5812   18.7452 C   0  0  0  0  0  0  0  0  0  0  0  0
    3.7571    2.1932   18.8136 H   0  0  0  0  0  0  0  0  0  0  0  0
    5.1398    0.8921   19.8558 C   0  0  0  0  0  0  0  0  0  0  0  0
    4.6326    0.9650   20.8207 H   0  0  0  0  0  0  0  0  0  0  0  0
    6.7990   -0.2888   22.1699 C   0  0  0  0  0  0  0  0  0  0  0  0
    6.1688    0.5365   22.4915 H   0  0  0  0  0  0  0  0  0  0  0  0
    7.4973   -0.9085   23.1344 N   0  0  0  0  0  0  0  0  0  0  0  0
    8.2539   -1.9557   22.7549 C   0  0  0  0  0  0  0  0  0  0  0  0
    9.3993   -2.6137   23.9409 S   0  0  0  0  0  0  0  0  0  0  0  0
   10.7304   -1.4868   23.5143 C   0  0  0  0  0  0  0  0  0  0  0  0
   10.9913   -0.3678   24.3202 C   0  0  0  0  0  0  0  0  0  0  0  0
   10.3593   -0.1937   25.1892 H   0  0  0  0  0  0  0  0  0  0  0  0
   12.0443    0.5003   23.9897 C   0  0  0  0  0  0  0  0  0  0  0  0
   12.1964    1.3993   24.5805 H   0  0  0  0  0  0  0  0  0  0  0  0
   12.8629    0.2322   22.8820 C   0  0  0  0  0  0  0  0  0  0  0  0
   13.7023    0.8864   22.6491 H   0  0  0  0  0  0  0  0  0  0  0  0
   12.5807   -0.8693   22.0622 C   0  0  0  0  0  0  0  0  0  0  0  0
   13.2004   -1.1005   21.1996 H   0  0  0  0  0  0  0  0  0  0  0  0
   11.5093   -1.7179   22.3696 C   0  0  0  0  0  0  0  0  0  0  0  0
   11.2730   -2.5646   21.7309 H   0  0  0  0  0  0  0  0  0  0  0  0
  1  2  1  0
  2  3  2  0
  3  4  1  0
  4  5  1  0
  5  6  2  0
  6  7  1  0
  6  8  1  0
  8  9  2  0
  9 10  1  0
  9 11  1  0
 11 12  1  0
 11 13  2  0
 13 14  1  0
  4 15  2  0
 15 16  1  0
 15 17  1  0
 17 18  2  0
 18 19  1  0
 19 20  1  0
 20 21  2  0
 21 22  1  0
 21 23  1  0
 23 24  1  0
 23 25  2  0
 25 26  1  0
 25 27  1  0
 27 28  1  0
 27 29  2  0
 29 30  1  0
 18  2  1  0
 29 20  1  0
 13  5  1  0
M  END
>  <cnnaffinity>  (1) 
-5.0582

>  <filename>  (1) 
c1ccc(Sc2cnc(-c3cccnc3)cn2)cc1

$$$$
