
     RDKit          3D

 46 50  0  0  0  0  0  0  0  0999 V2000
    6.7178    6.6317   23.2170 C   0  0  0  0  0  0  0  0  0  0  0  0
    8.0764    6.5804   23.5416 C   0  0  0  0  0  0  0  0  0  0  0  0
    8.6848    5.3451   23.7753 C   0  0  0  0  0  0  0  0  0  0  0  0
    7.9540    4.1426   23.6988 C   0  0  0  0  0  0  0  0  0  0  0  0
    8.6042    2.8218   24.0655 C   0  0  0  0  0  0  0  0  0  0  0  0
    8.7565    1.8515   22.9916 N   0  0  0  0  0  0  0  0  0  0  0  0
    7.7006    1.0865   22.6138 N   0  0  0  0  0  0  0  0  0  0  0  0
    8.2186    0.2880   21.7049 C   0  0  0  0  0  0  0  0  0  0  0  0
    7.3716   -0.6958   20.9451 C   0  0  0  0  0  0  0  0  0  0  0  0
    6.5987   -0.0514   19.7968 C   0  0  0  0  0  0  0  0  0  0  0  0
    5.4005    0.6279   20.0478 C   0  0  0  0  0  0  0  0  0  0  0  0
    4.7823    1.3235   19.0051 C   0  0  0  0  0  0  0  0  0  0  0  0
    5.3907    1.3084   17.7469 C   0  0  0  0  0  0  0  0  0  0  0  0
    6.5211    0.6386   17.4739 N   0  0  0  0  0  0  0  0  0  0  0  0
    7.0991   -0.0251   18.4840 C   0  0  0  0  0  0  0  0  0  0  0  0
    8.0167   -0.5656   18.2456 H   0  0  0  0  0  0  0  0  0  0  0  0
    4.9538    1.8568   16.9160 H   0  0  0  0  0  0  0  0  0  0  0  0
    3.8605    1.8770   19.1558 H   0  0  0  0  0  0  0  0  0  0  0  0
    4.9738    0.6117   21.0523 H   0  0  0  0  0  0  0  0  0  0  0  0
    8.0363   -1.4841   20.5765 H   0  0  0  0  0  0  0  0  0  0  0  0
    6.6669   -1.1363   21.6619 H   0  0  0  0  0  0  0  0  0  0  0  0
    9.5416    0.4783   21.4697 N   0  0  0  0  0  0  0  0  0  0  0  0
    9.8498    1.4879   22.2673 C   0  0  0  0  0  0  0  0  0  0  0  0
   11.1852    2.1535   22.4123 C   0  0  0  0  0  0  0  0  0  0  0  0
   12.3556    1.3950   22.5945 C   0  0  0  0  0  0  0  0  0  0  0  0
   13.5694    2.0509   22.8308 C   0  0  0  0  0  0  0  0  0  0  0  0
   13.7117    3.3824   22.8289 N   0  0  0  0  0  0  0  0  0  0  0  0
   12.6100    4.1046   22.5904 C   0  0  0  0  0  0  0  0  0  0  0  0
   11.3386    3.5552   22.4076 C   0  0  0  0  0  0  0  0  0  0  0  0
   10.4932    4.2203   22.2680 H   0  0  0  0  0  0  0  0  0  0  0  0
   12.7575    5.1810   22.5532 H   0  0  0  0  0  0  0  0  0  0  0  0
   14.4708    1.4682   23.0200 H   0  0  0  0  0  0  0  0  0  0  0  0
   12.3251    0.3096   22.5692 H   0  0  0  0  0  0  0  0  0  0  0  0
    9.6800    2.8872   25.1108 C   0  0  0  0  0  0  0  0  0  0  0  0
    8.3750    2.2438   25.4499 C   0  0  0  0  0  0  0  0  0  0  0  0
    7.6802    2.7598   26.1083 H   0  0  0  0  0  0  0  0  0  0  0  0
    8.3790    1.1607   25.5293 H   0  0  0  0  0  0  0  0  0  0  0  0
   10.5640    2.2656   24.9907 H   0  0  0  0  0  0  0  0  0  0  0  0
    9.8439    3.8794   25.5171 H   0  0  0  0  0  0  0  0  0  0  0  0
    6.6063    4.2045   23.3153 C   0  0  0  0  0  0  0  0  0  0  0  0
    5.9880    5.4431   23.0970 C   0  0  0  0  0  0  0  0  0  0  0  0
    4.9356    5.4799   22.8308 H   0  0  0  0  0  0  0  0  0  0  0  0
    6.0618    3.2702   23.1882 H   0  0  0  0  0  0  0  0  0  0  0  0
    9.7423    5.3026   24.0200 H   0  0  0  0  0  0  0  0  0  0  0  0
    8.6635    7.4909   23.6187 H   0  0  0  0  0  0  0  0  0  0  0  0
    6.2339    7.5905   23.0449 H   0  0  0  0  0  0  0  0  0  0  0  0
  1  2  2  0
  2  3  1  0
  3  4  2  0
  4  5  1  0
  5  6  1  0
  6  7  1  0
  7  8  2  0
  8  9  1  0
  9 10  1  0
 10 11  2  0
 11 12  1  0
 12 13  2  0
 13 14  1  0
 14 15  2  0
 15 16  1  0
 13 17  1  0
 12 18  1  0
 11 19  1  0
  9 20  1  0
  9 21  1  0
  8 22  1  0
 22 23  2  0
 23 24  1  0
 24 25  2  0
 25 26  1  0
 26 27  2  0
 27 28  1  0
 28 29  2  0
 29 30  1  0
 28 31  1  0
 26 32  1  0
 25 33  1  0
  5 34  1  0
 34 35  1  0
 35 36  1  0
 35 37  1  0
 34 38  1  0
 34 39  1  0
  4 40  1  0
 40 41  2  0
 41 42  1  0
 40 43  1  0
  3 44  1  0
  2 45  1  0
  1 46  1  0
 41  1  1  0
 35  5  1  0
 23  6  1  0
 29 24  1  0
 15 10  1  0
M  END
>  <cnnaffinity>  (1) 
-6.34379

>  <filename>  (1) 
c1ccc(C2(n3nc(Cc4cccnc4)nc3-c3ccncc3)CC2)cc1

$$$$
