
     RDKit          3D

 27 28  0  0  0  0  0  0  0  0999 V2000
   10.3740    4.5415   23.4984 H   0  0  0  0  0  0  0  0  0  0  0  0
   11.4726    4.1789   23.1558 C   0  0  0  0  0  0  0  0  0  0  0  0
    9.3913    2.8881   22.0334 N   0  0  0  0  0  0  0  0  0  0  0  0
   10.0480    1.8662   22.1695 C   0  0  0  0  0  0  0  0  0  0  0  0
    9.4682    0.4741   21.4555 C   0  0  0  0  0  0  0  0  0  0  0  0
   10.2295   -0.3176   21.4702 H   0  0  0  0  0  0  0  0  0  0  0  0
    9.2932    0.7214   20.4018 H   0  0  0  0  0  0  0  0  0  0  0  0
    8.1589   -0.0463   22.0492 C   0  0  0  0  0  0  0  0  0  0  0  0
    8.3076   -0.5696   23.0051 H   0  0  0  0  0  0  0  0  0  0  0  0
    7.4401    0.7618   22.2302 H   0  0  0  0  0  0  0  0  0  0  0  0
    7.3672   -1.2746   20.9477 S   0  0  0  0  0  0  0  0  0  0  0  0
    6.6343   -0.2305   19.6957 C   0  0  0  0  0  0  0  0  0  0  0  0
    7.1746   -0.1595   18.3966 C   0  0  0  0  0  0  0  0  0  0  0  0
    8.0683   -0.7333   18.1462 H   0  0  0  0  0  0  0  0  0  0  0  0
    6.6586    0.5836   17.4061 N   0  0  0  0  0  0  0  0  0  0  0  0
    5.5588    1.3050   17.6795 C   0  0  0  0  0  0  0  0  0  0  0  0
    5.1602    1.9046   16.8605 H   0  0  0  0  0  0  0  0  0  0  0  0
    4.9322    1.2983   18.9303 C   0  0  0  0  0  0  0  0  0  0  0  0
    4.0506    1.9083   19.0920 H   0  0  0  0  0  0  0  0  0  0  0  0
    5.4729    0.5155   19.9526 C   0  0  0  0  0  0  0  0  0  0  0  0
    5.0112    0.4794   20.9387 H   0  0  0  0  0  0  0  0  0  0  0  0
   11.3246    1.6184   22.8588 C   0  0  0  0  0  0  0  0  0  0  0  0
   11.7280    0.6163   22.9775 H   0  0  0  0  0  0  0  0  0  0  0  0
   12.0734    2.7849   23.3436 C   0  0  0  0  0  0  0  0  0  0  0  0
   13.0429    2.9201   22.9535 H   0  0  0  0  0  0  0  0  0  0  0  0
   11.7670    4.0140   22.9894 C   0  0  0  0  0  0  0  0  0  0  0  0
   11.9445    5.1020   22.5227 H   0  0  0  0  0  0  0  0  0  0  0  0
  1  2  1  0
  2  3  2  0
  3  4  1  0
  4  5  1  0
  5  6  1  0
  5  7  1  0
  5  8  1  0
  8  9  1  0
  8 10  1  0
  8 11  1  0
 11 12  1  0
 12 13  2  0
 13 14  1  0
 13 15  1  0
 15 16  2  0
 16 17  1  0
 16 18  1  0
 18 19  1  0
 18 20  2  0
 20 21  1  0
  4 22  2  0
 22 23  1  0
 22 24  1  0
 24 25  1  0
 24 26  2  0
 26 27  1  0
 26  2  1  0
 20 12  1  0
M  END
>  <cnnaffinity>  (1) 
-4.64643

>  <filename>  (1) 
c1ccc(CCSc2cccnc2)nc1

$$$$
