
     RDKit          3D

 33 35  0  0  0  0  0  0  0  0999 V2000
   13.1149    5.4702   23.4627 C   0  0  0  0  0  0  0  0  0  0  0  0
   11.8016    5.9023   23.5983 C   0  0  0  0  0  0  0  0  0  0  0  0
   10.7461    5.0459   23.2908 C   0  0  0  0  0  0  0  0  0  0  0  0
   11.0096    3.7301   22.8519 C   0  0  0  0  0  0  0  0  0  0  0  0
    9.9287    2.8485   22.5308 N   0  0  0  0  0  0  0  0  0  0  0  0
    8.6177    3.0267   22.8519 C   0  0  0  0  0  0  0  0  0  0  0  0
    7.9173    1.9464   22.3967 C   0  0  0  0  0  0  0  0  0  0  0  0
    8.9009    1.1346   21.7995 C   0  0  0  0  0  0  0  0  0  0  0  0
    8.7344   -0.0805   21.2121 N   0  0  0  0  0  0  0  0  0  0  0  0
    7.4457   -0.6878   20.9955 C   0  0  0  0  0  0  0  0  0  0  0  0
    6.6510    0.0192   19.9215 C   0  0  0  0  0  0  0  0  0  0  0  0
    5.4260    0.6580   20.1552 C   0  0  0  0  0  0  0  0  0  0  0  0
    4.7939    1.3116   19.0951 C   0  0  0  0  0  0  0  0  0  0  0  0
    5.3997    1.2943   17.8363 C   0  0  0  0  0  0  0  0  0  0  0  0
    6.5658    0.6814   17.5902 N   0  0  0  0  0  0  0  0  0  0  0  0
    7.1734    0.0789   18.6208 C   0  0  0  0  0  0  0  0  0  0  0  0
    8.1204   -0.4076   18.3811 H   0  0  0  0  0  0  0  0  0  0  0  0
    4.9379    1.7896   16.9841 H   0  0  0  0  0  0  0  0  0  0  0  0
    3.8651    1.8461   19.2336 H   0  0  0  0  0  0  0  0  0  0  0  0
    4.9756    0.6470   21.1510 H   0  0  0  0  0  0  0  0  0  0  0  0
    7.6151   -1.7396   20.7335 H   0  0  0  0  0  0  0  0  0  0  0  0
    6.8590   -0.6996   21.9283 H   0  0  0  0  0  0  0  0  0  0  0  0
    9.6164   -0.4545   20.9151 H   0  0  0  0  0  0  0  0  0  0  0  0
   10.1137    1.6577   21.8797 N   0  0  0  0  0  0  0  0  0  0  0  0
    6.8708    1.6934   22.4163 H   0  0  0  0  0  0  0  0  0  0  0  0
    8.3089    3.9080   23.3878 H   0  0  0  0  0  0  0  0  0  0  0  0
   12.3436    3.2923   22.7405 C   0  0  0  0  0  0  0  0  0  0  0  0
   13.3897    4.1682   23.0472 C   0  0  0  0  0  0  0  0  0  0  0  0
   14.4200    3.8409   22.9394 H   0  0  0  0  0  0  0  0  0  0  0  0
   12.5469    2.2826   22.3953 H   0  0  0  0  0  0  0  0  0  0  0  0
    9.7357    5.4348   23.3809 H   0  0  0  0  0  0  0  0  0  0  0  0
   11.6099    6.9156   23.9372 H   0  0  0  0  0  0  0  0  0  0  0  0
   13.9032    6.1779   23.6480 H   0  0  0  0  0  0  0  0  0  0  0  0
  1  2  2  0
  2  3  1  0
  3  4  2  0
  4  5  1  0
  5  6  1  0
  6  7  2  0
  7  8  1  0
  8  9  1  0
  9 10  1  0
 10 11  1  0
 11 12  2  0
 12 13  1  0
 13 14  2  0
 14 15  1  0
 15 16  2  0
 16 17  1  0
 14 18  1  0
 13 19  1  0
 12 20  1  0
 10 21  1  0
 10 22  1  0
  9 23  1  0
  8 24  2  0
  7 25  1  0
  6 26  1  0
  4 27  1  0
 27 28  2  0
 28 29  1  0
 27 30  1  0
  3 31  1  0
  2 32  1  0
  1 33  1  0
 28  1  1  0
 24  5  1  0
 16 11  1  0
M  END
>  <cnnaffinity>  (1) 
-4.54552

>  <filename>  (1) 
c1ccc(-n2ccc(NCc3cccnc3)n2)cc1

$$$$
