
     RDKit          3D

 49 54  0  0  0  0  0  0  0  0999 V2000
    6.9354    6.7179   23.1082 C   0  0  0  0  0  0  0  0  0  0  0  0
    8.2920    6.6180   23.4345 C   0  0  0  0  0  0  0  0  0  0  0  0
    8.8454    5.3666   23.7047 C   0  0  0  0  0  0  0  0  0  0  0  0
    8.0655    4.1931   23.6526 C   0  0  0  0  0  0  0  0  0  0  0  0
    8.6617    2.8527   24.0339 C   0  0  0  0  0  0  0  0  0  0  0  0
    8.7910    1.8735   22.9634 N   0  0  0  0  0  0  0  0  0  0  0  0
    7.7292    1.1170   22.5850 N   0  0  0  0  0  0  0  0  0  0  0  0
    8.2575    0.2667   21.7267 C   0  0  0  0  0  0  0  0  0  0  0  0
    7.4100   -0.7021   20.9493 C   0  0  0  0  0  0  0  0  0  0  0  0
    6.6389   -0.0518   19.8029 C   0  0  0  0  0  0  0  0  0  0  0  0
    5.4372    0.6186   20.0626 C   0  0  0  0  0  0  0  0  0  0  0  0
    4.8071    1.3086   19.0249 C   0  0  0  0  0  0  0  0  0  0  0  0
    5.4039    1.3011   17.7615 C   0  0  0  0  0  0  0  0  0  0  0  0
    6.5378    0.6399   17.4796 N   0  0  0  0  0  0  0  0  0  0  0  0
    7.1280   -0.0191   18.4847 C   0  0  0  0  0  0  0  0  0  0  0  0
    8.0519   -0.5456   18.2376 H   0  0  0  0  0  0  0  0  0  0  0  0
    4.9538    1.8456   16.9344 H   0  0  0  0  0  0  0  0  0  0  0  0
    3.8862    1.8576   19.1850 H   0  0  0  0  0  0  0  0  0  0  0  0
    5.0262    0.6074   21.0742 H   0  0  0  0  0  0  0  0  0  0  0  0
    6.7045   -1.1607   21.6526 H   0  0  0  0  0  0  0  0  0  0  0  0
    8.0772   -1.4862   20.5817 H   0  0  0  0  0  0  0  0  0  0  0  0
    9.5970    0.3993   21.5479 N   0  0  0  0  0  0  0  0  0  0  0  0
    9.8954    1.4576   22.2880 C   0  0  0  0  0  0  0  0  0  0  0  0
   11.2006    2.1148   22.3899 C   0  0  0  0  0  0  0  0  0  0  0  0
   11.4089    3.4920   22.3425 C   0  0  0  0  0  0  0  0  0  0  0  0
   12.6946    4.0648   22.4825 C   0  0  0  0  0  0  0  0  0  0  0  0
   13.8103    3.2804   22.7193 C   0  0  0  0  0  0  0  0  0  0  0  0
   13.6271    1.8806   22.7770 C   0  0  0  0  0  0  0  0  0  0  0  0
   12.3578    1.3318   22.5416 C   0  0  0  0  0  0  0  0  0  0  0  0
   12.5771    0.0022   22.5489 N   0  0  0  0  0  0  0  0  0  0  0  0
   13.8767   -0.2729   22.7747 N   0  0  0  0  0  0  0  0  0  0  0  0
   14.5142    0.8330   22.9261 N   0  0  0  0  0  0  0  0  0  0  0  0
   11.9243   -0.7145   22.2588 H   0  0  0  0  0  0  0  0  0  0  0  0
   14.8004    3.7075   22.7834 H   0  0  0  0  0  0  0  0  0  0  0  0
   12.8073    5.1408   22.4126 H   0  0  0  0  0  0  0  0  0  0  0  0
   10.5600    4.1487   22.2020 H   0  0  0  0  0  0  0  0  0  0  0  0
    9.7309    2.9061   25.0856 C   0  0  0  0  0  0  0  0  0  0  0  0
    8.4110    2.2975   25.4251 C   0  0  0  0  0  0  0  0  0  0  0  0
    7.7294    2.8312   26.0812 H   0  0  0  0  0  0  0  0  0  0  0  0
    8.3867    1.2156   25.5205 H   0  0  0  0  0  0  0  0  0  0  0  0
   10.6028    2.2631   24.9780 H   0  0  0  0  0  0  0  0  0  0  0  0
    9.9078    3.9061   25.4628 H   0  0  0  0  0  0  0  0  0  0  0  0
    6.7209    4.3007   23.2706 C   0  0  0  0  0  0  0  0  0  0  0  0
    6.1556    5.5585   23.0248 C   0  0  0  0  0  0  0  0  0  0  0  0
    5.1038    5.6338   22.7635 H   0  0  0  0  0  0  0  0  0  0  0  0
    6.1398    3.3859   23.1637 H   0  0  0  0  0  0  0  0  0  0  0  0
    9.9005    5.2871   23.9543 H   0  0  0  0  0  0  0  0  0  0  0  0
    8.9168    7.5048   23.4858 H   0  0  0  0  0  0  0  0  0  0  0  0
    6.4932    7.6915   22.9133 H   0  0  0  0  0  0  0  0  0  0  0  0
  1  2  2  0
  2  3  1  0
  3  4  2  0
  4  5  1  0
  5  6  1  0
  6  7  1  0
  7  8  2  0
  8  9  1  0
  9 10  1  0
 10 11  2  0
 11 12  1  0
 12 13  2  0
 13 14  1  0
 14 15  2  0
 15 16  1  0
 13 17  1  0
 12 18  1  0
 11 19  1  0
  9 20  1  0
  9 21  1  0
  8 22  1  0
 22 23  2  0
 23 24  1  0
 24 25  2  0
 25 26  1  0
 26 27  2  0
 27 28  1  0
 28 29  2  0
 29 30  1  0
 30 31  1  0
 31 32  2  0
 30 33  1  0
 27 34  1  0
 26 35  1  0
 25 36  1  0
  5 37  1  0
 37 38  1  0
 38 39  1  0
 38 40  1  0
 37 41  1  0
 37 42  1  0
  4 43  1  0
 43 44  2  0
 44 45  1  0
 43 46  1  0
  3 47  1  0
  2 48  1  0
  1 49  1  0
 44  1  1  0
 38  5  1  0
 23  6  1  0
 29 24  1  0
 15 10  1  0
 32 28  1  0
M  END
>  <cnnaffinity>  (1) 
-6.71746

>  <filename>  (1) 
c1ccc(C2(n3nc(Cc4cccnc4)nc3-c3cccc4nn[nH]c34)CC2)cc1

$$$$
