
     RDKit          3D

 28 30  0  0  0  0  0  0  0  0999 V2000
   10.8027   -0.7562   21.9524 H   0  0  0  0  0  0  0  0  0  0  0  0
    9.7363   -0.8331   21.7784 C   0  0  0  0  0  0  0  0  0  0  0  0
    8.9119   -1.5415   22.5901 N   0  0  0  0  0  0  0  0  0  0  0  0
    7.7324   -1.4061   22.0240 C   0  0  0  0  0  0  0  0  0  0  0  0
    6.3060   -2.2636   22.6491 S   0  0  0  0  0  0  0  0  0  0  0  0
    6.0515   -3.5394   21.4038 C   0  0  0  0  0  0  0  0  0  0  0  0
    6.1599   -4.8986   21.7275 C   0  0  0  0  0  0  0  0  0  0  0  0
    6.4382   -5.1893   22.7394 H   0  0  0  0  0  0  0  0  0  0  0  0
    5.9253   -5.8687   20.7432 C   0  0  0  0  0  0  0  0  0  0  0  0
    5.9461   -6.9226   21.0202 H   0  0  0  0  0  0  0  0  0  0  0  0
    5.6523   -5.4766   19.4260 C   0  0  0  0  0  0  0  0  0  0  0  0
    5.5113   -6.2204   18.6467 H   0  0  0  0  0  0  0  0  0  0  0  0
    5.5215   -4.1175   19.1209 C   0  0  0  0  0  0  0  0  0  0  0  0
    5.2606   -3.7741   18.1261 H   0  0  0  0  0  0  0  0  0  0  0  0
    5.6888   -3.1521   20.1098 C   0  0  0  0  0  0  0  0  0  0  0  0
    5.5495   -2.0978   19.9017 H   0  0  0  0  0  0  0  0  0  0  0  0
    7.8567   -0.5978   20.9181 N   0  0  0  0  0  0  0  0  0  0  0  0
    6.9425   -0.0558   19.9741 C   0  0  0  0  0  0  0  0  0  0  0  0
    7.3937   -0.0027   18.6440 C   0  0  0  0  0  0  0  0  0  0  0  0
    8.3598   -0.4451   18.4202 H   0  0  0  0  0  0  0  0  0  0  0  0
    6.7208    0.5725   17.6496 N   0  0  0  0  0  0  0  0  0  0  0  0
    5.5509    1.1594   17.9604 C   0  0  0  0  0  0  0  0  0  0  0  0
    5.0439    1.6626   17.1402 H   0  0  0  0  0  0  0  0  0  0  0  0
    5.0037    1.1385   19.2492 C   0  0  0  0  0  0  0  0  0  0  0  0
    4.0593    1.6414   19.4286 H   0  0  0  0  0  0  0  0  0  0  0  0
    5.7023    0.5039   20.2917 C   0  0  0  0  0  0  0  0  0  0  0  0
    5.2977    0.4548   21.3055 H   0  0  0  0  0  0  0  0  0  0  0  0
    9.1638   -0.2565   20.7527 N   0  0  0  0  0  0  0  0  0  0  0  0
  1  2  1  0
  2  3  1  0
  3  4  2  0
  4  5  1  0
  5  6  1  0
  6  7  2  0
  7  8  1  0
  7  9  1  0
  9 10  1  0
  9 11  2  0
 11 12  1  0
 11 13  1  0
 13 14  1  0
 13 15  2  0
 15 16  1  0
  4 17  1  0
 17 18  1  0
 18 19  2  0
 19 20  1  0
 19 21  1  0
 21 22  2  0
 22 23  1  0
 22 24  1  0
 24 25  1  0
 24 26  2  0
 26 27  1  0
 17 28  1  0
 28  2  2  0
 15  6  1  0
 26 18  1  0
M  END
>  <cnnaffinity>  (1) 
-4.95055

>  <filename>  (1) 
c1ccc(Sc2ncnn2-c2cccnc2)cc1

$$$$
