
     RDKit          3D

 41 44  0  0  0  0  0  0  0  0999 V2000
    4.0869   -4.5590   29.8175 H   0  0  0  0  0  0  0  0  0  0  0  0
    5.0069   -4.7381   29.2600 C   0  0  0  0  0  0  0  0  0  0  0  0
    5.3194   -3.8042   28.3578 N   0  0  0  0  0  0  0  0  0  0  0  0
    6.4740   -3.9540   27.6941 C   0  0  0  0  0  0  0  0  0  0  0  0
    6.8223   -2.9359   26.8223 N   0  0  0  0  0  0  0  0  0  0  0  0
    8.1876   -2.4573   26.6124 C   0  0  0  0  0  0  0  0  0  0  0  0
    8.2932   -1.4475   27.0449 H   0  0  0  0  0  0  0  0  0  0  0  0
    8.9162   -3.0966   27.1184 H   0  0  0  0  0  0  0  0  0  0  0  0
    8.5516   -2.3752   25.1101 C   0  0  0  0  0  0  0  0  0  0  0  0
    8.6903   -3.3978   24.7215 H   0  0  0  0  0  0  0  0  0  0  0  0
    9.5168   -1.8493   25.0364 H   0  0  0  0  0  0  0  0  0  0  0  0
    7.5344   -1.6705   24.3098 N   0  0  0  0  0  0  0  0  0  0  0  0
    7.7888   -1.4798   22.9810 C   0  0  0  0  0  0  0  0  0  0  0  0
    6.9157   -0.7658   22.2394 O   0  0  0  0  0  0  0  0  0  0  0  0
    7.4097   -0.7164   20.9574 C   0  0  0  0  0  0  0  0  0  0  0  0
    6.6438    0.0032   19.9431 C   0  0  0  0  0  0  0  0  0  0  0  0
    7.1545    0.0558   18.6318 C   0  0  0  0  0  0  0  0  0  0  0  0
    8.1018   -0.4175   18.3777 H   0  0  0  0  0  0  0  0  0  0  0  0
    6.5589    0.6675   17.6049 N   0  0  0  0  0  0  0  0  0  0  0  0
    5.3969    1.2899   17.8502 C   0  0  0  0  0  0  0  0  0  0  0  0
    4.9400    1.7864   16.9963 H   0  0  0  0  0  0  0  0  0  0  0  0
    4.7927    1.3119   19.1136 C   0  0  0  0  0  0  0  0  0  0  0  0
    3.8598    1.8502   19.2401 H   0  0  0  0  0  0  0  0  0  0  0  0
    5.4153    0.6602   20.1782 C   0  0  0  0  0  0  0  0  0  0  0  0
    4.9664    0.6604   21.1723 H   0  0  0  0  0  0  0  0  0  0  0  0
    8.5885   -1.4000   20.8977 C   0  0  0  0  0  0  0  0  0  0  0  0
    9.1934   -1.5088   20.0047 H   0  0  0  0  0  0  0  0  0  0  0  0
    8.8403   -1.9038   22.2133 C   0  0  0  0  0  0  0  0  0  0  0  0
    9.6639   -2.4905   22.5947 H   0  0  0  0  0  0  0  0  0  0  0  0
    6.3564   -1.1952   25.0426 C   0  0  0  0  0  0  0  0  0  0  0  0
    5.5803   -0.9055   24.3435 H   0  0  0  0  0  0  0  0  0  0  0  0
    6.6088   -0.2960   25.6279 H   0  0  0  0  0  0  0  0  0  0  0  0
    5.7845   -2.2716   26.0103 C   0  0  0  0  0  0  0  0  0  0  0  0
    5.0440   -1.7990   26.6724 H   0  0  0  0  0  0  0  0  0  0  0  0
    5.2491   -3.0308   25.4200 H   0  0  0  0  0  0  0  0  0  0  0  0
    7.3103   -5.0792   27.8639 C   0  0  0  0  0  0  0  0  0  0  0  0
    8.1939   -5.1501   27.2454 H   0  0  0  0  0  0  0  0  0  0  0  0
    6.9435   -6.0699   28.7702 C   0  0  0  0  0  0  0  0  0  0  0  0
    7.5582   -6.9648   28.9028 H   0  0  0  0  0  0  0  0  0  0  0  0
    5.7631   -5.8851   29.5038 C   0  0  0  0  0  0  0  0  0  0  0  0
    5.4129   -6.6085   30.2313 H   0  0  0  0  0  0  0  0  0  0  0  0
  1  2  1  0
  2  3  2  0
  3  4  1  0
  4  5  1  0
  5  6  1  0
  6  7  1  0
  6  8  1  0
  6  9  1  0
  9 10  1  0
  9 11  1  0
  9 12  1  0
 12 13  1  0
 13 14  1  0
 14 15  1  0
 15 16  1  0
 16 17  2  0
 17 18  1  0
 17 19  1  0
 19 20  2  0
 20 21  1  0
 20 22  1  0
 22 23  1  0
 22 24  2  0
 24 25  1  0
 15 26  2  0
 26 27  1  0
 26 28  1  0
 28 29  1  0
 12 30  1  0
 30 31  1  0
 30 32  1  0
 30 33  1  0
 33 34  1  0
 33 35  1  0
  4 36  2  0
 36 37  1  0
 36 38  1  0
 38 39  1  0
 38 40  2  0
 40 41  1  0
 40  2  1  0
 33  5  1  0
 28 13  2  0
 24 16  1  0
M  END
>  <cnnaffinity>  (1) 
-4.76011

>  <filename>  (1) 
c1ccc(N2CCN(c3ccc(-c4cccnc4)o3)CC2)nc1

$$$$
