
     RDKit          3D

 41 43  0  0  0  0  0  0  0  0999 V2000
   10.0085   -4.9390   27.4570 C   0  0  0  0  0  0  0  0  0  0  0  0
    8.6627   -4.5564   27.5153 C   0  0  0  0  0  0  0  0  0  0  0  0
    8.1250   -3.8445   26.4541 C   0  0  0  0  0  0  0  0  0  0  0  0
    8.9509   -3.5453   25.3449 C   0  0  0  0  0  0  0  0  0  0  0  0
    8.4845   -2.7865   24.3019 N   0  0  0  0  0  0  0  0  0  0  0  0
    9.1382   -2.8186   22.9991 C   0  0  0  0  0  0  0  0  0  0  0  0
    9.9460   -1.5424   22.7375 C   0  0  0  0  0  0  0  0  0  0  0  0
    9.1509   -0.2310   22.9460 C   0  0  0  0  0  0  0  0  0  0  0  0
    8.3856    0.2621   21.6971 C   0  0  0  0  0  0  0  0  0  0  0  0
    7.3997   -0.6922   21.0059 C   0  0  0  0  0  0  0  0  0  0  0  0
    6.6385   -0.0202   19.8800 C   0  0  0  0  0  0  0  0  0  0  0  0
    5.4209    0.6375   20.1117 C   0  0  0  0  0  0  0  0  0  0  0  0
    4.7934    1.3110   19.0614 C   0  0  0  0  0  0  0  0  0  0  0  0
    5.4032    1.3080   17.8032 C   0  0  0  0  0  0  0  0  0  0  0  0
    6.5575    0.6781   17.5460 N   0  0  0  0  0  0  0  0  0  0  0  0
    7.1497    0.0407   18.5680 C   0  0  0  0  0  0  0  0  0  0  0  0
    8.0925   -0.4497   18.3194 H   0  0  0  0  0  0  0  0  0  0  0  0
    4.9439    1.8349   16.9689 H   0  0  0  0  0  0  0  0  0  0  0  0
    3.8655    1.8484   19.2088 H   0  0  0  0  0  0  0  0  0  0  0  0
    4.9700    0.6391   21.1066 H   0  0  0  0  0  0  0  0  0  0  0  0
    7.9515   -1.5566   20.6121 H   0  0  0  0  0  0  0  0  0  0  0  0
    6.6810   -1.0798   21.7410 H   0  0  0  0  0  0  0  0  0  0  0  0
    7.8540    1.1809   21.9766 H   0  0  0  0  0  0  0  0  0  0  0  0
    9.1287    0.5766   20.9537 H   0  0  0  0  0  0  0  0  0  0  0  0
    8.3010   -0.3101   24.2411 C   0  0  0  0  0  0  0  0  0  0  0  0
    7.5888   -1.6518   24.4818 C   0  0  0  0  0  0  0  0  0  0  0  0
    7.1610   -1.6489   25.4899 H   0  0  0  0  0  0  0  0  0  0  0  0
    6.7477   -1.7690   23.7870 H   0  0  0  0  0  0  0  0  0  0  0  0
    8.9543   -0.1252   25.1011 H   0  0  0  0  0  0  0  0  0  0  0  0
    7.5478    0.4874   24.2562 H   0  0  0  0  0  0  0  0  0  0  0  0
    9.8968    0.5569   23.1309 H   0  0  0  0  0  0  0  0  0  0  0  0
   10.8004   -1.5619   23.4233 H   0  0  0  0  0  0  0  0  0  0  0  0
   10.3613   -1.5853   21.7223 H   0  0  0  0  0  0  0  0  0  0  0  0
    9.7912   -3.6926   22.9469 H   0  0  0  0  0  0  0  0  0  0  0  0
    8.3553   -2.9484   22.2422 H   0  0  0  0  0  0  0  0  0  0  0  0
   10.1995   -4.0068   25.2386 N   0  0  0  0  0  0  0  0  0  0  0  0
   10.7056   -4.6640   26.2805 C   0  0  0  0  0  0  0  0  0  0  0  0
   11.7323   -4.9642   26.1279 H   0  0  0  0  0  0  0  0  0  0  0  0
    7.0883   -3.5446   26.4291 H   0  0  0  0  0  0  0  0  0  0  0  0
    8.0442   -4.7842   28.3829 H   0  0  0  0  0  0  0  0  0  0  0  0
   10.4860   -5.4352   28.2889 H   0  0  0  0  0  0  0  0  0  0  0  0
  1  2  2  0
  2  3  1  0
  3  4  2  0
  4  5  1  0
  5  6  1  0
  6  7  1  0
  7  8  1  0
  8  9  1  0
  9 10  1  0
 10 11  1  0
 11 12  2  0
 12 13  1  0
 13 14  2  0
 14 15  1  0
 15 16  2  0
 16 17  1  0
 14 18  1  0
 13 19  1  0
 12 20  1  0
 10 21  1  0
 10 22  1  0
  9 23  1  0
  9 24  1  0
  8 25  1  0
 25 26  1  0
 26 27  1  0
 26 28  1  0
 25 29  1  0
 25 30  1  0
  8 31  1  0
  7 32  1  0
  7 33  1  0
  6 34  1  0
  6 35  1  0
  4 36  1  0
 36 37  2  0
 37 38  1  0
  3 39  1  0
  2 40  1  0
  1 41  1  0
 37  1  1  0
 26  5  1  0
 16 11  1  0
M  END
>  <cnnaffinity>  (1) 
-5.23028

>  <filename>  (1) 
c1ccc(N2CCC(CCc3cccnc3)CC2)nc1

$$$$
