
     RDKit          3D

 44 47  0  0  0  0  0  0  0  0999 V2000
    7.9147    4.4317   28.0647 H   0  0  0  0  0  0  0  0  0  0  0  0
    7.8699    4.8666   27.0677 C   0  0  0  0  0  0  0  0  0  0  0  0
    8.3418    4.0958   26.0873 N   0  0  0  0  0  0  0  0  0  0  0  0
    8.2299    4.5583   24.8330 C   0  0  0  0  0  0  0  0  0  0  0  0
    8.6233    3.6837   23.8360 N   0  0  0  0  0  0  0  0  0  0  0  0
    8.1734    3.8209   22.4422 C   0  0  0  0  0  0  0  0  0  0  0  0
    7.1552    4.2302   22.4271 H   0  0  0  0  0  0  0  0  0  0  0  0
    8.8267    4.5141   21.8891 H   0  0  0  0  0  0  0  0  0  0  0  0
    8.1413    2.4510   21.7225 C   0  0  0  0  0  0  0  0  0  0  0  0
    7.8691    2.5752   20.6703 H   0  0  0  0  0  0  0  0  0  0  0  0
    7.3403    1.8442   22.1872 H   0  0  0  0  0  0  0  0  0  0  0  0
    9.4471    1.7724   21.8081 N   0  0  0  0  0  0  0  0  0  0  0  0
    9.5264    0.5439   21.0259 C   0  0  0  0  0  0  0  0  0  0  0  0
    9.3222    0.8021   19.9849 H   0  0  0  0  0  0  0  0  0  0  0  0
   10.5321    0.1202   21.1093 H   0  0  0  0  0  0  0  0  0  0  0  0
    8.6213   -0.5449   21.3693 N   0  0  0  0  0  0  0  0  0  0  0  0
    8.9592   -1.4187   22.3482 N   0  0  0  0  0  0  0  0  0  0  0  0
    7.8675   -2.1338   22.5683 C   0  0  0  0  0  0  0  0  0  0  0  0
    7.8812   -2.8848   23.3479 H   0  0  0  0  0  0  0  0  0  0  0  0
    6.8108   -1.7411   21.7235 C   0  0  0  0  0  0  0  0  0  0  0  0
    5.8085   -2.1299   21.6327 H   0  0  0  0  0  0  0  0  0  0  0  0
    7.3276   -0.7255   20.9589 C   0  0  0  0  0  0  0  0  0  0  0  0
    6.6652    0.0350   19.8809 C   0  0  0  0  0  0  0  0  0  0  0  0
    7.1641    0.0806   18.5658 C   0  0  0  0  0  0  0  0  0  0  0  0
    8.0996   -0.4218   18.3220 H   0  0  0  0  0  0  0  0  0  0  0  0
    6.5476    0.6920   17.5456 N   0  0  0  0  0  0  0  0  0  0  0  0
    5.3880    1.3138   17.8123 C   0  0  0  0  0  0  0  0  0  0  0  0
    4.9117    1.8126   16.9708 H   0  0  0  0  0  0  0  0  0  0  0  0
    4.7972    1.3299   19.0804 C   0  0  0  0  0  0  0  0  0  0  0  0
    3.8587    1.8525   19.2288 H   0  0  0  0  0  0  0  0  0  0  0  0
    5.4412    0.6711   20.1295 C   0  0  0  0  0  0  0  0  0  0  0  0
    5.0116    0.6429   21.1327 H   0  0  0  0  0  0  0  0  0  0  0  0
    9.7751    1.5632   23.2279 C   0  0  0  0  0  0  0  0  0  0  0  0
    9.0219    0.9208   23.7169 H   0  0  0  0  0  0  0  0  0  0  0  0
   10.7396    1.0403   23.2899 H   0  0  0  0  0  0  0  0  0  0  0  0
    9.8635    2.9016   23.9795 C   0  0  0  0  0  0  0  0  0  0  0  0
   10.7261    3.4717   23.5880 H   0  0  0  0  0  0  0  0  0  0  0  0
   10.0367    2.7012   25.0407 H   0  0  0  0  0  0  0  0  0  0  0  0
    7.7359    5.8504   24.5363 C   0  0  0  0  0  0  0  0  0  0  0  0
    7.7362    6.1642   23.4995 H   0  0  0  0  0  0  0  0  0  0  0  0
    7.3003    6.6617   25.5807 C   0  0  0  0  0  0  0  0  0  0  0  0
    6.9207    7.6671   25.3836 H   0  0  0  0  0  0  0  0  0  0  0  0
    7.3560    6.1513   26.8850 C   0  0  0  0  0  0  0  0  0  0  0  0
    7.0259    6.7201   27.7467 H   0  0  0  0  0  0  0  0  0  0  0  0
  1  2  1  0
  2  3  2  0
  3  4  1  0
  4  5  1  0
  5  6  1  0
  6  7  1  0
  6  8  1  0
  6  9  1  0
  9 10  1  0
  9 11  1  0
  9 12  1  0
 12 13  1  0
 13 14  1  0
 13 15  1  0
 13 16  1  0
 16 17  1  0
 17 18  2  0
 18 19  1  0
 18 20  1  0
 20 21  1  0
 20 22  2  0
 22 23  1  0
 23 24  2  0
 24 25  1  0
 24 26  1  0
 26 27  2  0
 27 28  1  0
 27 29  1  0
 29 30  1  0
 29 31  2  0
 31 32  1  0
 12 33  1  0
 33 34  1  0
 33 35  1  0
 33 36  1  0
 36 37  1  0
 36 38  1  0
  4 39  2  0
 39 40  1  0
 39 41  1  0
 41 42  1  0
 41 43  2  0
 43 44  1  0
 43  2  1  0
 36  5  1  0
 22 16  1  0
 31 23  1  0
M  END
>  <cnnaffinity>  (1) 
-5.39097

>  <filename>  (1) 
c1ccc(N2CCN(Cn3nccc3-c3cccnc3)CC2)nc1

$$$$
