
     RDKit          3D

 36 38  0  0  0  0  0  0  0  0999 V2000
    8.6622   -2.6229   27.7176 H   0  0  0  0  0  0  0  0  0  0  0  0
    9.0050   -3.1852   26.8521 C   0  0  0  0  0  0  0  0  0  0  0  0
    8.9348   -2.5226   25.6875 N   0  0  0  0  0  0  0  0  0  0  0  0
    9.2908   -3.1949   24.5957 C   0  0  0  0  0  0  0  0  0  0  0  0
    9.1912   -2.5759   23.3293 N   0  0  0  0  0  0  0  0  0  0  0  0
    8.0046   -2.9840   22.5581 C   0  0  0  0  0  0  0  0  0  0  0  0
    7.0773   -2.5447   22.9713 H   0  0  0  0  0  0  0  0  0  0  0  0
    7.8891   -4.0728   22.5952 H   0  0  0  0  0  0  0  0  0  0  0  0
    8.1432   -2.5701   21.0853 C   0  0  0  0  0  0  0  0  0  0  0  0
    9.0003   -3.1010   20.6616 H   0  0  0  0  0  0  0  0  0  0  0  0
    7.2409   -2.8439   20.5219 H   0  0  0  0  0  0  0  0  0  0  0  0
    8.4120   -1.1328   20.8918 N   0  0  0  0  0  0  0  0  0  0  0  0
    7.2745   -0.3294   21.1097 N   0  0  0  0  0  0  0  0  0  0  0  0
    6.6278   -0.6583   21.8281 H   0  0  0  0  0  0  0  0  0  0  0  0
    6.6130    0.1355   19.9616 C   0  0  0  0  0  0  0  0  0  0  0  0
    7.1805    0.0586   18.6656 C   0  0  0  0  0  0  0  0  0  0  0  0
    8.1202   -0.4708   18.5485 H   0  0  0  0  0  0  0  0  0  0  0  0
    6.6311    0.5987   17.5689 N   0  0  0  0  0  0  0  0  0  0  0  0
    5.4683    1.2536   17.7173 C   0  0  0  0  0  0  0  0  0  0  0  0
    5.0567    1.7156   16.8215 H   0  0  0  0  0  0  0  0  0  0  0  0
    4.8007    1.3507   18.9442 C   0  0  0  0  0  0  0  0  0  0  0  0
    3.8622    1.8925   18.9970 H   0  0  0  0  0  0  0  0  0  0  0  0
    5.3687    0.7740   20.0820 C   0  0  0  0  0  0  0  0  0  0  0  0
    4.8761    0.8251   21.0543 H   0  0  0  0  0  0  0  0  0  0  0  0
    9.5626   -0.7078   21.7193 C   0  0  0  0  0  0  0  0  0  0  0  0
    9.6544    0.3814   21.6460 H   0  0  0  0  0  0  0  0  0  0  0  0
   10.4584   -1.1556   21.2676 H   0  0  0  0  0  0  0  0  0  0  0  0
    9.4458   -1.1284   23.2074 C   0  0  0  0  0  0  0  0  0  0  0  0
   10.3783   -0.8734   23.7208 H   0  0  0  0  0  0  0  0  0  0  0  0
    8.6458   -0.5292   23.6743 H   0  0  0  0  0  0  0  0  0  0  0  0
    9.7307   -4.5287   24.6183 C   0  0  0  0  0  0  0  0  0  0  0  0
    9.9556   -4.9534   23.6615 H   0  0  0  0  0  0  0  0  0  0  0  0
    9.8641   -5.1896   25.8347 C   0  0  0  0  0  0  0  0  0  0  0  0
   10.2325   -6.2185   25.8813 H   0  0  0  0  0  0  0  0  0  0  0  0
    9.4712   -4.4936   26.9879 C   0  0  0  0  0  0  0  0  0  0  0  0
    9.5300   -4.9536   27.9673 H   0  0  0  0  0  0  0  0  0  0  0  0
  1  2  1  0
  2  3  2  0
  3  4  1  0
  4  5  1  0
  5  6  1  0
  6  7  1  0
  6  8  1  0
  6  9  1  0
  9 10  1  0
  9 11  1  0
  9 12  1  0
 12 13  1  0
 13 14  1  0
 13 15  1  0
 15 16  2  0
 16 17  1  0
 16 18  1  0
 18 19  2  0
 19 20  1  0
 19 21  1  0
 21 22  1  0
 21 23  2  0
 23 24  1  0
 12 25  1  0
 25 26  1  0
 25 27  1  0
 25 28  1  0
 28 29  1  0
 28 30  1  0
  4 31  2  0
 31 32  1  0
 31 33  1  0
 33 34  1  0
 33 35  2  0
 35 36  1  0
 35  2  1  0
 28  5  1  0
 23 15  1  0
M  END
>  <cnnaffinity>  (1) 
-4.65591

>  <filename>  (1) 
c1ccc(N2CCN(Nc3cccnc3)CC2)nc1

$$$$
