
     RDKit          3D

 32 34  0  0  0  0  0  0  0  0999 V2000
    4.9123    1.8171   16.9548 H   0  0  0  0  0  0  0  0  0  0  0  0
    5.3843    1.3127   17.7989 C   0  0  0  0  0  0  0  0  0  0  0  0
    6.5487    0.6933   17.5421 N   0  0  0  0  0  0  0  0  0  0  0  0
    7.1640    0.0788   18.5606 C   0  0  0  0  0  0  0  0  0  0  0  0
    8.0996   -0.4129   18.2985 H   0  0  0  0  0  0  0  0  0  0  0  0
    6.6653    0.0224   19.8808 C   0  0  0  0  0  0  0  0  0  0  0  0
    7.3456   -0.6971   20.9704 C   0  0  0  0  0  0  0  0  0  0  0  0
    6.8664   -1.2528   22.1303 C   0  0  0  0  0  0  0  0  0  0  0  0
    5.8468   -1.3192   22.4565 H   0  0  0  0  0  0  0  0  0  0  0  0
    7.8730   -1.8113   22.8623 N   0  0  0  0  0  0  0  0  0  0  0  0
    8.9639   -1.6052   22.1701 C   0  0  0  0  0  0  0  0  0  0  0  0
   10.3377   -2.0249   22.6038 C   0  0  0  0  0  0  0  0  0  0  0  0
   10.2640   -2.3417   23.6513 H   0  0  0  0  0  0  0  0  0  0  0  0
   10.6861   -2.8553   21.9899 H   0  0  0  0  0  0  0  0  0  0  0  0
   11.3522   -1.0515   22.4177 O   0  0  0  0  0  0  0  0  0  0  0  0
   11.3419    0.1091   23.1408 C   0  0  0  0  0  0  0  0  0  0  0  0
   10.4736    0.4040   24.2023 C   0  0  0  0  0  0  0  0  0  0  0  0
    9.7000   -0.3063   24.4848 H   0  0  0  0  0  0  0  0  0  0  0  0
   10.6020    1.6354   24.8656 C   0  0  0  0  0  0  0  0  0  0  0  0
    9.9439    1.8456   25.7071 H   0  0  0  0  0  0  0  0  0  0  0  0
   11.5629    2.5608   24.4473 C   0  0  0  0  0  0  0  0  0  0  0  0
   11.6566    3.5576   24.8616 H   0  0  0  0  0  0  0  0  0  0  0  0
   12.4355    2.2383   23.4046 C   0  0  0  0  0  0  0  0  0  0  0  0
   13.2033    2.9502   23.1184 H   0  0  0  0  0  0  0  0  0  0  0  0
   12.3257    1.0231   22.7426 C   0  0  0  0  0  0  0  0  0  0  0  0
   12.9665    0.7493   21.9099 H   0  0  0  0  0  0  0  0  0  0  0  0
    8.7045   -0.9622   21.0016 N   0  0  0  0  0  0  0  0  0  0  0  0
    9.4074   -0.6337   20.3611 H   0  0  0  0  0  0  0  0  0  0  0  0
    5.4407    0.6721   20.1168 C   0  0  0  0  0  0  0  0  0  0  0  0
    5.0133    0.6676   21.1183 H   0  0  0  0  0  0  0  0  0  0  0  0
    4.7945    1.3259   19.0672 C   0  0  0  0  0  0  0  0  0  0  0  0
    3.8591    1.8531   19.2189 H   0  0  0  0  0  0  0  0  0  0  0  0
  1  2  1  0
  2  3  2  0
  3  4  1  0
  4  5  1  0
  4  6  2  0
  6  7  1  0
  7  8  2  0
  8  9  1  0
  8 10  1  0
 10 11  2  0
 11 12  1  0
 12 13  1  0
 12 14  1  0
 12 15  1  0
 15 16  1  0
 16 17  2  0
 17 18  1  0
 17 19  1  0
 19 20  1  0
 19 21  2  0
 21 22  1  0
 21 23  1  0
 23 24  1  0
 23 25  2  0
 25 26  1  0
 11 27  1  0
 27 28  1  0
  6 29  1  0
 29 30  1  0
 29 31  2  0
 31 32  1  0
 31  2  1  0
 27  7  1  0
 25 16  1  0
M  END
>  <cnnaffinity>  (1) 
-5.06669

>  <filename>  (1) 
c1ccc(OCc2ncc(-c3cccnc3)[nH]2)cc1

$$$$
