
     RDKit          3D

 43 46  0  0  0  0  0  0  0  0999 V2000
    4.9224    1.8051   16.9816 H   0  0  0  0  0  0  0  0  0  0  0  0
    5.3889    1.2966   17.8226 C   0  0  0  0  0  0  0  0  0  0  0  0
    6.5437    0.6664   17.5649 N   0  0  0  0  0  0  0  0  0  0  0  0
    7.1548    0.0522   18.5897 C   0  0  0  0  0  0  0  0  0  0  0  0
    8.1060   -0.4110   18.3206 H   0  0  0  0  0  0  0  0  0  0  0  0
    6.6617   -0.0051   19.9124 C   0  0  0  0  0  0  0  0  0  0  0  0
    7.3422   -0.8695   21.0055 C   0  0  2  0  0  0  0  0  0  0  0  0
    6.6791   -2.2914   20.8434 C   0  0  0  0  0  0  0  0  0  0  0  0
    6.8256   -2.5700   19.7967 H   0  0  0  0  0  0  0  0  0  0  0  0
    5.5974   -2.1330   20.9475 H   0  0  0  0  0  0  0  0  0  0  0  0
    7.0936   -3.4241   21.6550 N   0  0  0  0  0  0  0  0  0  0  0  0
    8.0128   -3.8034   21.4907 H   0  0  0  0  0  0  0  0  0  0  0  0
    6.5564   -3.8094   22.8711 C   0  0  0  0  0  0  0  0  0  0  0  0
    5.2821   -3.3773   23.2631 C   0  0  0  0  0  0  0  0  0  0  0  0
    4.7097   -2.7955   22.5496 H   0  0  0  0  0  0  0  0  0  0  0  0
    4.7560   -3.7411   24.5055 C   0  0  0  0  0  0  0  0  0  0  0  0
    3.7967   -3.3316   24.8232 H   0  0  0  0  0  0  0  0  0  0  0  0
    5.4613   -4.6299   25.3276 C   0  0  0  0  0  0  0  0  0  0  0  0
    5.0249   -4.9667   26.2628 H   0  0  0  0  0  0  0  0  0  0  0  0
    6.7115   -5.1168   24.9220 C   0  0  0  0  0  0  0  0  0  0  0  0
    7.2405   -5.8444   25.5420 H   0  0  0  0  0  0  0  0  0  0  0  0
    7.2673   -4.6905   23.7114 C   0  0  0  0  0  0  0  0  0  0  0  0
    8.2395   -5.0557   23.3919 H   0  0  0  0  0  0  0  0  0  0  0  0
    7.1905   -0.2875   22.4605 C   0  0  0  0  0  0  0  0  0  0  0  0
    6.6475   -0.9801   23.1151 H   0  0  0  0  0  0  0  0  0  0  0  0
    6.6453    0.6632   22.4615 H   0  0  0  0  0  0  0  0  0  0  0  0
    8.6372   -0.0731   22.9660 C   0  0  2  0  0  0  0  0  0  0  0  0
    8.7119    0.0057   24.0562 H   0  0  0  0  0  0  0  0  0  0  0  0
    9.2334    1.1326   22.2038 C   0  0  0  0  0  0  0  0  0  0  0  0
   10.1777    1.4668   22.6497 H   0  0  0  0  0  0  0  0  0  0  0  0
    8.5639    2.0031   22.1879 H   0  0  0  0  0  0  0  0  0  0  0  0
    9.4944    0.5202   20.8023 C   0  0  0  0  0  0  0  0  0  0  0  0
    9.0552    1.0814   19.9777 H   0  0  0  0  0  0  0  0  0  0  0  0
   10.5747    0.4521   20.6715 H   0  0  0  0  0  0  0  0  0  0  0  0
    8.9062   -0.9106   20.8982 C   0  0  1  0  0  0  0  0  0  0  0  0
    9.2681   -1.5645   20.0949 H   0  0  0  0  0  0  0  0  0  0  0  0
    9.3688   -1.2655   22.3203 C   0  0  0  0  0  0  0  0  0  0  0  0
   10.4641   -1.2268   22.4174 H   0  0  0  0  0  0  0  0  0  0  0  0
    9.0361   -2.2387   22.6908 H   0  0  0  0  0  0  0  0  0  0  0  0
    5.4367    0.6497   20.1399 C   0  0  0  0  0  0  0  0  0  0  0  0
    4.9782    0.6409   21.1305 H   0  0  0  0  0  0  0  0  0  0  0  0
    4.7998    1.3148   19.0897 C   0  0  0  0  0  0  0  0  0  0  0  0
    3.8682    1.8519   19.2424 H   0  0  0  0  0  0  0  0  0  0  0  0
  1  2  1  0
  2  3  2  0
  3  4  1  0
  4  5  1  0
  4  6  2  0
  6  7  1  0
  7  8  1  1
  8  9  1  0
  8 10  1  0
  8 11  1  0
 11 12  1  0
 11 13  1  0
 13 14  2  0
 14 15  1  0
 14 16  1  0
 16 17  1  0
 16 18  2  0
 18 19  1  0
 18 20  1  0
 20 21  1  0
 20 22  2  0
 22 23  1  0
  7 24  1  0
 24 25  1  0
 24 26  1  0
 24 27  1  0
 27 28  1  1
 27 29  1  0
 29 30  1  0
 29 31  1  0
 29 32  1  0
 32 33  1  0
 32 34  1  0
 32 35  1  0
 35 36  1  6
 35 37  1  0
 37 38  1  0
 37 39  1  0
  6 40  1  0
 40 41  1  0
 40 42  2  0
 42 43  1  0
 42  2  1  0
 35  7  1  0
 22 13  1  0
 37 27  1  0
M  END
>  <cnnaffinity>  (1) 
-5.04691

>  <filename>  (1) 
c1ccc(NC[C@@]2(c3cccnc3)C[C@@H]3CC[C@H]2C3)cc1

$$$$
