
     RDKit          3D

 29 31  0  0  0  0  0  0  0  0999 V2000
    9.4256   -3.7154   27.7387 H   0  0  0  0  0  0  0  0  0  0  0  0
    9.4987   -3.8378   26.6661 C   0  0  0  0  0  0  0  0  0  0  0  0
    8.6621   -3.0974   25.9416 N   0  0  0  0  0  0  0  0  0  0  0  0
    8.7224   -3.2649   24.6159 C   0  0  0  0  0  0  0  0  0  0  0  0
    7.7969   -2.4634   23.9860 N   0  0  0  0  0  0  0  0  0  0  0  0
    7.4257   -1.9237   24.7627 H   0  0  0  0  0  0  0  0  0  0  0  0
    7.9598   -1.7979   22.7578 C   0  0  0  0  0  0  0  0  0  0  0  0
    9.0716   -1.5679   21.8976 C   0  0  0  0  0  0  0  0  0  0  0  0
   10.1014   -1.8500   22.0524 H   0  0  0  0  0  0  0  0  0  0  0  0
    8.7217   -0.9040   20.8084 N   0  0  0  0  0  0  0  0  0  0  0  0
    7.3993   -0.6735   20.9473 N   0  0  0  0  0  0  0  0  0  0  0  0
    6.6822   -0.0036   19.9310 C   0  0  0  0  0  0  0  0  0  0  0  0
    7.2067    0.0202   18.6261 C   0  0  0  0  0  0  0  0  0  0  0  0
    8.1511   -0.4825   18.4312 H   0  0  0  0  0  0  0  0  0  0  0  0
    6.6021    0.6314   17.6046 N   0  0  0  0  0  0  0  0  0  0  0  0
    5.4416    1.2657   17.8498 C   0  0  0  0  0  0  0  0  0  0  0  0
    4.9782    1.7711   17.0058 H   0  0  0  0  0  0  0  0  0  0  0  0
    4.8386    1.2905   19.1118 C   0  0  0  0  0  0  0  0  0  0  0  0
    3.9044    1.8237   19.2518 H   0  0  0  0  0  0  0  0  0  0  0  0
    5.4652    0.6449   20.1804 C   0  0  0  0  0  0  0  0  0  0  0  0
    5.0416    0.6745   21.1844 H   0  0  0  0  0  0  0  0  0  0  0  0
    6.9221   -1.1983   22.1066 C   0  0  0  0  0  0  0  0  0  0  0  0
    5.8973   -1.1668   22.4150 H   0  0  0  0  0  0  0  0  0  0  0  0
    9.5980   -4.1481   23.9704 C   0  0  0  0  0  0  0  0  0  0  0  0
    9.5643   -4.2523   22.8974 H   0  0  0  0  0  0  0  0  0  0  0  0
   10.5054   -4.8573   24.7546 C   0  0  0  0  0  0  0  0  0  0  0  0
   11.2624   -5.4983   24.3108 H   0  0  0  0  0  0  0  0  0  0  0  0
   10.4280   -4.7274   26.1382 C   0  0  0  0  0  0  0  0  0  0  0  0
   11.0500   -5.2889   26.8181 H   0  0  0  0  0  0  0  0  0  0  0  0
  1  2  1  0
  2  3  2  0
  3  4  1  0
  4  5  1  0
  5  6  1  0
  5  7  1  0
  7  8  1  0
  8  9  1  0
  8 10  2  0
 10 11  1  0
 11 12  1  0
 12 13  2  0
 13 14  1  0
 13 15  1  0
 15 16  2  0
 16 17  1  0
 16 18  1  0
 18 19  1  0
 18 20  2  0
 20 21  1  0
 11 22  1  0
 22 23  1  0
  4 24  2  0
 24 25  1  0
 24 26  1  0
 26 27  1  0
 26 28  2  0
 28 29  1  0
 28  2  1  0
 22  7  2  0
 20 12  1  0
M  END
>  <cnnaffinity>  (1) 
-5.0395

>  <filename>  (1) 
c1ccc(Nc2cnn(-c3cccnc3)c2)nc1

$$$$
