
     RDKit          3D

 28 30  0  0  0  0  0  0  0  0999 V2000
    7.4342   -2.6200   23.5428 H   0  0  0  0  0  0  0  0  0  0  0  0
    7.6210   -1.9844   22.6815 C   0  0  0  0  0  0  0  0  0  0  0  0
    6.6223   -1.4862   21.9016 N   0  0  0  0  0  0  0  0  0  0  0  0
    7.2584   -0.7649   21.0137 C   0  0  0  0  0  0  0  0  0  0  0  0
    6.6034   -0.0217   19.9306 C   0  0  0  0  0  0  0  0  0  0  0  0
    7.1513    0.0015   18.6416 C   0  0  0  0  0  0  0  0  0  0  0  0
    8.0833   -0.5230   18.4347 H   0  0  0  0  0  0  0  0  0  0  0  0
    6.5895    0.6290   17.6031 N   0  0  0  0  0  0  0  0  0  0  0  0
    5.4374    1.2828   17.8262 C   0  0  0  0  0  0  0  0  0  0  0  0
    4.9960    1.8107   16.9830 H   0  0  0  0  0  0  0  0  0  0  0  0
    4.8007    1.3048   19.0724 C   0  0  0  0  0  0  0  0  0  0  0  0
    3.8776    1.8579   19.1920 H   0  0  0  0  0  0  0  0  0  0  0  0
    5.3820    0.6364   20.1447 C   0  0  0  0  0  0  0  0  0  0  0  0
    4.9091    0.6329   21.1314 H   0  0  0  0  0  0  0  0  0  0  0  0
    8.6099   -0.8269   21.2574 N   0  0  0  0  0  0  0  0  0  0  0  0
    9.8492    0.2295   20.7511 S   0  0  0  0  0  0  0  0  0  0  0  0
    9.4854    1.6985   21.7309 C   0  0  0  0  0  0  0  0  0  0  0  0
    8.4925    2.5654   21.2572 C   0  0  0  0  0  0  0  0  0  0  0  0
    7.9640    2.2949   20.3503 H   0  0  0  0  0  0  0  0  0  0  0  0
    8.1862    3.7452   21.9429 C   0  0  0  0  0  0  0  0  0  0  0  0
    7.4454    4.4296   21.5304 H   0  0  0  0  0  0  0  0  0  0  0  0
    8.8409    4.0403   23.1422 C   0  0  0  0  0  0  0  0  0  0  0  0
    8.6126    4.9631   23.6751 H   0  0  0  0  0  0  0  0  0  0  0  0
    9.8189    3.1646   23.6341 C   0  0  0  0  0  0  0  0  0  0  0  0
   10.3336    3.3962   24.5639 H   0  0  0  0  0  0  0  0  0  0  0  0
   10.1592    1.9998   22.9276 C   0  0  0  0  0  0  0  0  0  0  0  0
   10.9471    1.3402   23.2925 H   0  0  0  0  0  0  0  0  0  0  0  0
    8.8333   -1.6196   22.3426 N   0  0  0  0  0  0  0  0  0  0  0  0
  1  2  1  0
  2  3  1  0
  3  4  2  0
  4  5  1  0
  5  6  2  0
  6  7  1  0
  6  8  1  0
  8  9  2  0
  9 10  1  0
  9 11  1  0
 11 12  1  0
 11 13  2  0
 13 14  1  0
  4 15  1  0
 15 16  1  0
 16 17  1  0
 17 18  2  0
 18 19  1  0
 18 20  1  0
 20 21  1  0
 20 22  2  0
 22 23  1  0
 22 24  1  0
 24 25  1  0
 24 26  2  0
 26 27  1  0
 15 28  1  0
 28  2  2  0
 13  5  1  0
 26 17  1  0
M  END
>  <cnnaffinity>  (1) 
-4.96693

>  <filename>  (1) 
c1ccc(Sn2ncnc2-c2cccnc2)cc1

$$$$
