
     RDKit          3D

 34 36  0  0  0  0  0  0  0  0999 V2000
    4.7661    7.1020   25.7066 C   0  0  0  0  0  0  0  0  0  0  0  0
    4.6627    6.7158   24.3648 C   0  0  0  0  0  0  0  0  0  0  0  0
    4.6907    5.3593   24.0212 C   0  0  0  0  0  0  0  0  0  0  0  0
    4.8300    4.3816   25.0191 C   0  0  0  0  0  0  0  0  0  0  0  0
    4.9272    2.6593   24.5699 S   0  0  0  0  0  0  0  0  0  0  0  0
    6.7376    2.5559   24.3679 C   0  0  0  0  0  0  0  0  0  0  0  0
    7.1431    1.1846   23.9313 C   0  0  0  0  0  0  0  0  0  0  0  0
    7.0398    0.9302   22.6295 N   0  0  0  0  0  0  0  0  0  0  0  0
    7.3854   -0.2833   22.2465 C   0  0  0  0  0  0  0  0  0  0  0  0
    7.3699   -0.6316   20.9352 O   0  0  0  0  0  0  0  0  0  0  0  0
    6.6638    0.0452   19.9460 C   0  0  0  0  0  0  0  0  0  0  0  0
    5.4283    0.6502   20.1765 C   0  0  0  0  0  0  0  0  0  0  0  0
    4.8041    1.2912   19.1011 C   0  0  0  0  0  0  0  0  0  0  0  0
    5.4049    1.2818   17.8423 C   0  0  0  0  0  0  0  0  0  0  0  0
    6.5727    0.6569   17.6079 N   0  0  0  0  0  0  0  0  0  0  0  0
    7.1851    0.0517   18.6339 C   0  0  0  0  0  0  0  0  0  0  0  0
    8.1261   -0.4423   18.4016 H   0  0  0  0  0  0  0  0  0  0  0  0
    4.9342    1.7802   16.9947 H   0  0  0  0  0  0  0  0  0  0  0  0
    3.8803    1.8318   19.2516 H   0  0  0  0  0  0  0  0  0  0  0  0
    5.0064    0.6485   21.1813 H   0  0  0  0  0  0  0  0  0  0  0  0
    7.8332   -1.2636   23.1323 C   0  0  0  0  0  0  0  0  0  0  0  0
    7.8817   -0.8835   24.4509 C   0  0  0  0  0  0  0  0  0  0  0  0
    7.5478    0.3487   24.8672 N   0  0  0  0  0  0  0  0  0  0  0  0
    8.2032   -1.5723   25.2338 H   0  0  0  0  0  0  0  0  0  0  0  0
    8.1143   -2.2466   22.7838 H   0  0  0  0  0  0  0  0  0  0  0  0
    7.0470    3.2660   23.6052 H   0  0  0  0  0  0  0  0  0  0  0  0
    7.2184    2.7677   25.3188 H   0  0  0  0  0  0  0  0  0  0  0  0
    4.9278    4.7724   26.3647 C   0  0  0  0  0  0  0  0  0  0  0  0
    4.8996    6.1301   26.7058 C   0  0  0  0  0  0  0  0  0  0  0  0
    4.9837    6.4252   27.7496 H   0  0  0  0  0  0  0  0  0  0  0  0
    5.0453    4.0110   27.1324 H   0  0  0  0  0  0  0  0  0  0  0  0
    4.6281    5.0504   22.9795 H   0  0  0  0  0  0  0  0  0  0  0  0
    4.5641    7.4653   23.5822 H   0  0  0  0  0  0  0  0  0  0  0  0
    4.7399    8.1566   25.9717 H   0  0  0  0  0  0  0  0  0  0  0  0
  1  2  2  0
  2  3  1  0
  3  4  2  0
  4  5  1  0
  5  6  1  0
  6  7  1  0
  7  8  2  0
  8  9  1  0
  9 10  1  0
 10 11  1  0
 11 12  2  0
 12 13  1  0
 13 14  2  0
 14 15  1  0
 15 16  2  0
 16 17  1  0
 14 18  1  0
 13 19  1  0
 12 20  1  0
  9 21  2  0
 21 22  1  0
 22 23  2  0
 22 24  1  0
 21 25  1  0
  6 26  1  0
  6 27  1  0
  4 28  1  0
 28 29  2  0
 29 30  1  0
 28 31  1  0
  3 32  1  0
  2 33  1  0
  1 34  1  0
 29  1  1  0
 23  7  1  0
 16 11  1  0
M  END
>  <cnnaffinity>  (1) 
-4.93878

>  <filename>  (1) 
c1ccc(SCc2nccc(Oc3cccnc3)n2)cc1

$$$$
