
     RDKit          3D

 43 47  0  0  0  0  0  0  0  0999 V2000
    4.7821    1.3247   19.0173 C   0  0  0  0  0  0  0  0  0  0  0  0
    5.4005    1.3076   17.7646 C   0  0  0  0  0  0  0  0  0  0  0  0
    6.5373    0.6409   17.5086 N   0  0  0  0  0  0  0  0  0  0  0  0
    7.1046   -0.0153   18.5285 C   0  0  0  0  0  0  0  0  0  0  0  0
    6.5924   -0.0368   19.8373 C   0  0  0  0  0  0  0  0  0  0  0  0
    7.3635   -0.6561   20.9962 C   0  0  0  0  0  0  0  0  0  0  0  0
    8.2397    0.3302   21.7224 C   0  0  0  0  0  0  0  0  0  0  0  0
    7.7852    1.0921   22.6993 N   0  0  0  0  0  0  0  0  0  0  0  0
    8.8579    1.8479   23.0362 N   0  0  0  0  0  0  0  0  0  0  0  0
    8.7547    2.8771   24.0728 C   0  0  0  0  0  0  0  0  0  0  0  0
    8.2732    4.2200   23.5584 C   0  0  0  0  0  0  0  0  0  0  0  0
    7.1427    4.3578   22.8117 C   0  0  0  0  0  0  0  0  0  0  0  0
    6.8004    6.0006   22.4523 S   0  0  0  0  0  0  0  0  0  0  0  0
    8.2002    6.5325   23.2968 C   0  0  0  0  0  0  0  0  0  0  0  0
    8.8910    5.4820   23.8276 C   0  0  0  0  0  0  0  0  0  0  0  0
    9.8267    5.5972   24.3709 H   0  0  0  0  0  0  0  0  0  0  0  0
    8.4299    7.5901   23.3436 H   0  0  0  0  0  0  0  0  0  0  0  0
    6.5197    3.5504   22.4403 H   0  0  0  0  0  0  0  0  0  0  0  0
    8.0782    2.4971   24.8489 H   0  0  0  0  0  0  0  0  0  0  0  0
    9.7422    2.9968   24.5249 H   0  0  0  0  0  0  0  0  0  0  0  0
    9.9032    1.5148   22.2379 C   0  0  0  0  0  0  0  0  0  0  0  0
   11.2548    2.1306   22.3658 C   0  0  0  0  0  0  0  0  0  0  0  0
   11.4940    3.5228   22.3981 C   0  0  0  0  0  0  0  0  0  0  0  0
   12.7912    4.0354   22.5978 C   0  0  0  0  0  0  0  0  0  0  0  0
   13.8831    3.2812   22.7845 N   0  0  0  0  0  0  0  0  0  0  0  0
   13.6414    1.9701   22.7187 C   0  0  0  0  0  0  0  0  0  0  0  0
   12.3965    1.3138   22.4890 C   0  0  0  0  0  0  0  0  0  0  0  0
   12.6878   -0.0947   22.4180 C   0  0  0  0  0  0  0  0  0  0  0  0
   14.0333   -0.2373   22.5909 C   0  0  0  0  0  0  0  0  0  0  0  0
   14.6023    1.0051   22.7796 N   0  0  0  0  0  0  0  0  0  0  0  0
   15.5681    1.2791   22.7657 H   0  0  0  0  0  0  0  0  0  0  0  0
   14.6250   -1.1466   22.6265 H   0  0  0  0  0  0  0  0  0  0  0  0
   11.9556   -0.8732   22.2161 H   0  0  0  0  0  0  0  0  0  0  0  0
   12.9507    5.1105   22.6380 H   0  0  0  0  0  0  0  0  0  0  0  0
   10.6894    4.2310   22.2689 H   0  0  0  0  0  0  0  0  0  0  0  0
    9.5410    0.5434   21.4090 N   0  0  0  0  0  0  0  0  0  0  0  0
    7.9980   -1.4729   20.6367 H   0  0  0  0  0  0  0  0  0  0  0  0
    6.6642   -1.0728   21.7301 H   0  0  0  0  0  0  0  0  0  0  0  0
    5.3883    0.6373   20.0707 C   0  0  0  0  0  0  0  0  0  0  0  0
    4.9513    0.6252   21.0711 H   0  0  0  0  0  0  0  0  0  0  0  0
    8.0261   -0.5538   18.2992 H   0  0  0  0  0  0  0  0  0  0  0  0
    4.9656    1.8491   16.9265 H   0  0  0  0  0  0  0  0  0  0  0  0
    3.8571    1.8723   19.1582 H   0  0  0  0  0  0  0  0  0  0  0  0
  1  2  2  0
  2  3  1  0
  3  4  2  0
  4  5  1  0
  5  6  1  0
  6  7  1  0
  7  8  2  0
  8  9  1  0
  9 10  1  0
 10 11  1  0
 11 12  2  0
 12 13  1  0
 13 14  1  0
 14 15  2  0
 15 16  1  0
 14 17  1  0
 12 18  1  0
 10 19  1  0
 10 20  1  0
  9 21  1  0
 21 22  1  0
 22 23  2  0
 23 24  1  0
 24 25  2  0
 25 26  1  0
 26 27  2  0
 27 28  1  0
 28 29  2  0
 29 30  1  0
 30 31  1  0
 29 32  1  0
 28 33  1  0
 24 34  1  0
 23 35  1  0
 21 36  2  0
  6 37  1  0
  6 38  1  0
  5 39  2  0
 39 40  1  0
  4 41  1  0
  2 42  1  0
  1 43  1  0
 39  1  1  0
 36  7  1  0
 15 11  1  0
 27 22  1  0
 30 26  1  0
M  END
>  <cnnaffinity>  (1) 
-6.83759

>  <filename>  (1) 
c1cncc(Cc2nc(-c3ccnc4[nH]ccc34)n(Cc3ccsc3)n2)c1

$$$$
