
     RDKit          3D

 30 33  0  0  0  0  0  0  0  0999 V2000
    4.9450    1.7921   16.9860 H   0  0  0  0  0  0  0  0  0  0  0  0
    5.4038    1.2862   17.8326 C   0  0  0  0  0  0  0  0  0  0  0  0
    6.5673    0.6608   17.5926 N   0  0  0  0  0  0  0  0  0  0  0  0
    7.1776    0.0499   18.6102 C   0  0  0  0  0  0  0  0  0  0  0  0
    8.1188   -0.4399   18.3775 H   0  0  0  0  0  0  0  0  0  0  0  0
    6.6573    0.0362   19.9207 C   0  0  0  0  0  0  0  0  0  0  0  0
    7.3756   -0.6059   20.9849 N   0  0  0  0  0  0  0  0  0  0  0  0
    8.1458   -1.7121   20.7691 N   0  0  0  0  0  0  0  0  0  0  0  0
    8.5751   -2.1021   21.9062 N   0  0  0  0  0  0  0  0  0  0  0  0
    8.1257   -1.3064   22.9133 N   0  0  0  0  0  0  0  0  0  0  0  0
    7.4059   -0.3920   22.3221 C   0  0  0  0  0  0  0  0  0  0  0  0
    6.7602    0.6494   22.8575 O   0  0  0  0  0  0  0  0  0  0  0  0
    6.6998    0.8286   24.2067 C   0  0  0  0  0  0  0  0  0  0  0  0
    6.4645    1.9895   24.7124 N   0  0  0  0  0  0  0  0  0  0  0  0
    6.3524    1.7359   26.0737 C   0  0  0  0  0  0  0  0  0  0  0  0
    6.0933    2.6151   27.1358 C   0  0  0  0  0  0  0  0  0  0  0  0
    5.9405    3.6733   26.9417 H   0  0  0  0  0  0  0  0  0  0  0  0
    6.0435    2.0939   28.4287 C   0  0  0  0  0  0  0  0  0  0  0  0
    5.8478    2.7597   29.2631 H   0  0  0  0  0  0  0  0  0  0  0  0
    6.2427    0.7197   28.6723 C   0  0  0  0  0  0  0  0  0  0  0  0
    6.2007    0.3450   29.6950 H   0  0  0  0  0  0  0  0  0  0  0  0
    6.4920   -0.1661   27.6240 C   0  0  0  0  0  0  0  0  0  0  0  0
    6.6490   -1.2211   27.8089 H   0  0  0  0  0  0  0  0  0  0  0  0
    6.5387    0.3600   26.3329 C   0  0  0  0  0  0  0  0  0  0  0  0
    6.7627   -0.2060   25.0840 N   0  0  0  0  0  0  0  0  0  0  0  0
    7.0070   -1.1525   24.8345 H   0  0  0  0  0  0  0  0  0  0  0  0
    5.4282    0.6589   20.1635 C   0  0  0  0  0  0  0  0  0  0  0  0
    4.9934    0.6580   21.1616 H   0  0  0  0  0  0  0  0  0  0  0  0
    4.7998    1.3004   19.0929 C   0  0  0  0  0  0  0  0  0  0  0  0
    3.8717    1.8373   19.2388 H   0  0  0  0  0  0  0  0  0  0  0  0
  1  2  1  0
  2  3  2  0
  3  4  1  0
  4  5  1  0
  4  6  2  0
  6  7  1  0
  7  8  1  0
  8  9  2  0
  9 10  1  0
 10 11  2  0
 11 12  1  0
 12 13  1  0
 13 14  2  0
 14 15  1  0
 15 16  2  0
 16 17  1  0
 16 18  1  0
 18 19  1  0
 18 20  2  0
 20 21  1  0
 20 22  1  0
 22 23  1  0
 22 24  2  0
 24 25  1  0
 25 26  1  0
  6 27  1  0
 27 28  1  0
 27 29  2  0
 29 30  1  0
 29  2  1  0
 11  7  1  0
 25 13  1  0
 24 15  1  0
M  END
>  <cnnaffinity>  (1) 
-5.23811

>  <filename>  (1) 
c1cncc(-n2nnnc2Oc2nc3ccccc3[nH]2)c1

$$$$
