
     RDKit          3D

 42 45  0  0  0  0  0  0  0  0999 V2000
    4.9687    1.7905   17.0143 H   0  0  0  0  0  0  0  0  0  0  0  0
    5.4352    1.3438   17.8846 C   0  0  0  0  0  0  0  0  0  0  0  0
    6.6195    0.7583   17.6679 N   0  0  0  0  0  0  0  0  0  0  0  0
    7.2163    0.1832   18.7143 C   0  0  0  0  0  0  0  0  0  0  0  0
    8.1832   -0.2583   18.4760 H   0  0  0  0  0  0  0  0  0  0  0  0
    6.6900    0.1208   20.0262 C   0  0  0  0  0  0  0  0  0  0  0  0
    7.5373   -0.5052   21.1695 C   0  0  2  0  0  0  0  0  0  0  0  0
    8.4671    0.6268   21.7160 C   0  0  0  0  0  0  0  0  0  0  0  0
    9.1041    0.8377   20.8397 H   0  0  0  0  0  0  0  0  0  0  0  0
    9.4316    0.2527   22.8630 C   0  0  0  0  0  0  0  0  0  0  0  0
    8.8707    0.0938   23.7933 H   0  0  0  0  0  0  0  0  0  0  0  0
    9.9927   -0.6613   22.6412 H   0  0  0  0  0  0  0  0  0  0  0  0
   10.4451    1.3737   23.0864 C   0  0  0  0  0  0  0  0  0  0  0  0
   11.1072    1.4449   22.2033 H   0  0  0  0  0  0  0  0  0  0  0  0
   11.0738    1.1655   23.9558 H   0  0  0  0  0  0  0  0  0  0  0  0
    9.8154    2.6169   23.3368 O   0  0  0  0  0  0  0  0  0  0  0  0
    8.9374    2.9968   22.2906 C   0  0  0  0  0  0  0  0  0  0  0  0
    8.5511    3.9846   22.5475 H   0  0  0  0  0  0  0  0  0  0  0  0
    9.4961    3.0906   21.3436 H   0  0  0  0  0  0  0  0  0  0  0  0
    7.8182    1.9787   22.0721 C   0  0  0  0  0  0  0  0  0  0  0  0
    7.2123    1.8915   22.9822 H   0  0  0  0  0  0  0  0  0  0  0  0
    7.1609    2.3371   21.2713 H   0  0  0  0  0  0  0  0  0  0  0  0
    8.4609   -1.6678   20.6380 C   0  0  0  0  0  0  0  0  0  0  0  0
    8.3090   -1.7382   19.5690 H   0  0  0  0  0  0  0  0  0  0  0  0
    9.5273   -1.4578   20.7840 H   0  0  0  0  0  0  0  0  0  0  0  0
    8.0439   -2.9361   21.3973 C   0  0  2  0  0  0  0  0  0  0  0  0
    8.8113   -3.7114   21.3929 H   0  0  0  0  0  0  0  0  0  0  0  0
    6.6493   -3.3995   20.9203 C   0  0  0  0  0  0  0  0  0  0  0  0
    6.5328   -3.4799   19.8336 H   0  0  0  0  0  0  0  0  0  0  0  0
    6.4214   -4.3944   21.3261 H   0  0  0  0  0  0  0  0  0  0  0  0
    5.7309   -2.2823   21.4925 C   0  0  0  0  0  0  0  0  0  0  0  0
    4.9842   -2.6974   22.1755 H   0  0  0  0  0  0  0  0  0  0  0  0
    5.2303   -1.7398   20.6896 H   0  0  0  0  0  0  0  0  0  0  0  0
    6.7135   -1.3279   22.2296 C   0  0  1  0  0  0  0  0  0  0  0  0
    6.2301   -0.7026   22.9843 H   0  0  0  0  0  0  0  0  0  0  0  0
    7.7023   -2.3753   22.7827 C   0  0  0  0  0  0  0  0  0  0  0  0
    7.2188   -3.1225   23.4303 H   0  0  0  0  0  0  0  0  0  0  0  0
    8.5544   -1.9938   23.3466 H   0  0  0  0  0  0  0  0  0  0  0  0
    5.4460    0.7533   20.2224 C   0  0  0  0  0  0  0  0  0  0  0  0
    4.9884    0.7964   21.2145 H   0  0  0  0  0  0  0  0  0  0  0  0
    4.8135    1.3736   19.1349 C   0  0  0  0  0  0  0  0  0  0  0  0
    3.8655    1.8896   19.2381 H   0  0  0  0  0  0  0  0  0  0  0  0
  1  2  1  0
  2  3  2  0
  3  4  1  0
  4  5  1  0
  4  6  2  0
  6  7  1  0
  7  8  1  1
  8  9  1  0
  8 10  1  0
 10 11  1  0
 10 12  1  0
 10 13  1  0
 13 14  1  0
 13 15  1  0
 13 16  1  0
 16 17  1  0
 17 18  1  0
 17 19  1  0
 17 20  1  0
 20 21  1  0
 20 22  1  0
  7 23  1  0
 23 24  1  0
 23 25  1  0
 23 26  1  0
 26 27  1  1
 26 28  1  0
 28 29  1  0
 28 30  1  0
 28 31  1  0
 31 32  1  0
 31 33  1  0
 31 34  1  0
 34 35  1  1
 34 36  1  0
 36 37  1  0
 36 38  1  0
  6 39  1  0
 39 40  1  0
 39 41  2  0
 41 42  1  0
 41  2  1  0
 34  7  1  0
 20  8  1  0
 36 26  1  0
M  END
>  <cnnaffinity>  (1) 
-5.02692

>  <filename>  (1) 
c1cncc([C@]2(C3CCOCC3)C[C@@H]3CC[C@H]2C3)c1

$$$$
