
     RDKit          3D

 31 34  0  0  0  0  0  0  0  0999 V2000
    4.9227    1.8268   16.9588 H   0  0  0  0  0  0  0  0  0  0  0  0
    5.3824    1.3220   17.8000 C   0  0  0  0  0  0  0  0  0  0  0  0
    6.5497    0.7109   17.5429 N   0  0  0  0  0  0  0  0  0  0  0  0
    7.1508    0.1086   18.5764 C   0  0  0  0  0  0  0  0  0  0  0  0
    8.1007   -0.3799   18.3597 H   0  0  0  0  0  0  0  0  0  0  0  0
    6.6432    0.0730   19.8980 C   0  0  0  0  0  0  0  0  0  0  0  0
    7.3512   -0.6505   20.9956 C   0  0  0  0  0  0  0  0  0  0  0  0
    7.6662   -2.0539   20.9734 C   0  0  0  0  0  0  0  0  0  0  0  0
    7.3412   -2.7194   20.1897 H   0  0  0  0  0  0  0  0  0  0  0  0
    8.2769   -2.5710   21.9994 N   0  0  0  0  0  0  0  0  0  0  0  0
    8.5044   -1.3769   23.1347 S   0  0  0  0  0  0  0  0  0  0  0  0
    7.7173   -0.1311   22.2263 C   0  0  0  0  0  0  0  0  0  0  0  0
    7.4686    1.1854   22.7607 C   0  0  0  0  0  0  0  0  0  0  0  0
    7.5041    2.3454   22.0356 C   0  0  0  0  0  0  0  0  0  0  0  0
    7.6776    2.4299   20.9688 H   0  0  0  0  0  0  0  0  0  0  0  0
    7.2334    3.4118   22.8466 N   0  0  0  0  0  0  0  0  0  0  0  0
    7.2257    4.3698   22.5415 H   0  0  0  0  0  0  0  0  0  0  0  0
    7.0074    2.9632   24.1311 C   0  0  0  0  0  0  0  0  0  0  0  0
    6.7098    3.6732   25.3107 C   0  0  0  0  0  0  0  0  0  0  0  0
    6.6533    4.7607   25.3099 H   0  0  0  0  0  0  0  0  0  0  0  0
    6.5059    2.9322   26.4744 C   0  0  0  0  0  0  0  0  0  0  0  0
    6.2939    3.4535   27.4042 H   0  0  0  0  0  0  0  0  0  0  0  0
    6.5782    1.5162   26.4707 C   0  0  0  0  0  0  0  0  0  0  0  0
    6.4074    0.9683   27.3968 H   0  0  0  0  0  0  0  0  0  0  0  0
    6.8721    0.8233   25.3024 C   0  0  0  0  0  0  0  0  0  0  0  0
    6.8960   -0.2622   25.3108 H   0  0  0  0  0  0  0  0  0  0  0  0
    7.1235    1.5548   24.1187 C   0  0  0  0  0  0  0  0  0  0  0  0
    5.4054    0.7027   20.1254 C   0  0  0  0  0  0  0  0  0  0  0  0
    4.9599    0.6770   21.1236 H   0  0  0  0  0  0  0  0  0  0  0  0
    4.7671    1.3372   19.0563 C   0  0  0  0  0  0  0  0  0  0  0  0
    3.8162    1.8449   19.1839 H   0  0  0  0  0  0  0  0  0  0  0  0
  1  2  1  0
  2  3  2  0
  3  4  1  0
  4  5  1  0
  4  6  2  0
  6  7  1  0
  7  8  1  0
  8  9  1  0
  8 10  2  0
 10 11  1  0
 11 12  1  0
 12 13  1  0
 13 14  2  0
 14 15  1  0
 14 16  1  0
 16 17  1  0
 16 18  1  0
 18 19  2  0
 19 20  1  0
 19 21  1  0
 21 22  1  0
 21 23  2  0
 23 24  1  0
 23 25  1  0
 25 26  1  0
 25 27  2  0
  6 28  1  0
 28 29  1  0
 28 30  2  0
 30 31  1  0
 30  2  1  0
 12  7  2  0
 27 13  1  0
 27 18  1  0
M  END
>  <cnnaffinity>  (1) 
-5.2574

>  <filename>  (1) 
c1cncc(-c2cnsc2-c2c[nH]c3ccccc23)c1

$$$$
