
     RDKit          3D

 44 48  0  0  0  0  0  0  0  0999 V2000
    4.7642    1.3708   18.8973 C   0  0  0  0  0  0  0  0  0  0  0  0
    5.4043    1.2908   17.6597 C   0  0  0  0  0  0  0  0  0  0  0  0
    6.5016    0.5512   17.4415 N   0  0  0  0  0  0  0  0  0  0  0  0
    7.0208   -0.1005   18.4908 C   0  0  0  0  0  0  0  0  0  0  0  0
    6.5032   -0.0394   19.8001 C   0  0  0  0  0  0  0  0  0  0  0  0
    7.2297   -0.6414   21.0079 C   0  0  0  0  0  0  0  0  0  0  0  0
    8.0553    0.3458   21.7982 C   0  0  0  0  0  0  0  0  0  0  0  0
    7.5841    1.1116   22.7658 N   0  0  0  0  0  0  0  0  0  0  0  0
    8.6524    1.8982   23.0839 N   0  0  0  0  0  0  0  0  0  0  0  0
    8.6077    2.8932   24.1045 C   0  0  0  0  0  0  0  0  0  0  0  0
    9.0583    4.2115   23.9235 C   0  0  0  0  0  0  0  0  0  0  0  0
    9.1022    5.1240   25.0038 C   0  0  0  0  0  0  0  0  0  0  0  0
    8.6986    4.7552   26.2849 C   0  0  0  0  0  0  0  0  0  0  0  0
    8.2502    3.4353   26.4808 C   0  0  0  0  0  0  0  0  0  0  0  0
    8.1926    2.5360   25.3999 C   0  0  0  0  0  0  0  0  0  0  0  0
    7.7740    1.3514   25.9618 N   0  0  0  0  0  0  0  0  0  0  0  0
    7.5982    1.5819   27.2957 C   0  0  0  0  0  0  0  0  0  0  0  0
    7.8649    2.8052   27.6500 N   0  0  0  0  0  0  0  0  0  0  0  0
    7.3008    0.7953   27.9808 H   0  0  0  0  0  0  0  0  0  0  0  0
    7.5250    0.5309   25.4382 H   0  0  0  0  0  0  0  0  0  0  0  0
    8.7280    5.4180   27.1411 H   0  0  0  0  0  0  0  0  0  0  0  0
    9.4764    6.1292   24.8327 H   0  0  0  0  0  0  0  0  0  0  0  0
    9.3845    4.5571   22.9463 H   0  0  0  0  0  0  0  0  0  0  0  0
    9.7211    1.5083   22.3362 C   0  0  0  0  0  0  0  0  0  0  0  0
   11.0701    2.1252   22.4907 C   0  0  1  0  0  0  0  0  0  0  0  0
   11.6730    2.0946   23.9197 C   0  0  0  0  0  0  0  0  0  0  0  0
   13.1494    1.8608   23.6304 C   0  0  0  0  0  0  0  0  0  0  0  0
   13.1579    1.0031   22.5092 O   0  0  0  0  0  0  0  0  0  0  0  0
   12.1460    1.4423   21.6271 C   0  0  0  0  0  0  0  0  0  0  0  0
   11.7824    0.5667   21.0842 H   0  0  0  0  0  0  0  0  0  0  0  0
   12.5303    2.1669   20.8951 H   0  0  0  0  0  0  0  0  0  0  0  0
   13.6647    1.3441   24.4394 H   0  0  0  0  0  0  0  0  0  0  0  0
   13.6890    2.7987   23.4170 H   0  0  0  0  0  0  0  0  0  0  0  0
   11.2860    1.2327   24.4774 H   0  0  0  0  0  0  0  0  0  0  0  0
   11.4751    3.0152   24.4803 H   0  0  0  0  0  0  0  0  0  0  0  0
   10.9665    3.1615   22.1549 H   0  0  0  0  0  0  0  0  0  0  0  0
    9.3695    0.5376   21.5164 N   0  0  0  0  0  0  0  0  0  0  0  0
    7.9199   -1.4277   20.6815 H   0  0  0  0  0  0  0  0  0  0  0  0
    6.5057   -1.0948   21.6946 H   0  0  0  0  0  0  0  0  0  0  0  0
    5.3181    0.6858   19.9812 C   0  0  0  0  0  0  0  0  0  0  0  0
    4.8525    0.7267   20.9666 H   0  0  0  0  0  0  0  0  0  0  0  0
    7.9121   -0.6938   18.2810 H   0  0  0  0  0  0  0  0  0  0  0  0
    5.0142    1.8355   16.8023 H   0  0  0  0  0  0  0  0  0  0  0  0
    3.8691    1.9730   19.0016 H   0  0  0  0  0  0  0  0  0  0  0  0
  1  2  2  0
  2  3  1  0
  3  4  2  0
  4  5  1  0
  5  6  1  0
  6  7  1  0
  7  8  2  0
  8  9  1  0
  9 10  1  0
 10 11  2  0
 11 12  1  0
 12 13  2  0
 13 14  1  0
 14 15  2  0
 15 16  1  0
 16 17  1  0
 17 18  2  0
 17 19  1  0
 16 20  1  0
 13 21  1  0
 12 22  1  0
 11 23  1  0
  9 24  1  0
 24 25  1  0
 25 26  1  0
 26 27  1  0
 27 28  1  0
 28 29  1  0
 29 30  1  0
 29 31  1  0
 27 32  1  0
 27 33  1  0
 26 34  1  0
 26 35  1  0
 25 36  1  6
 24 37  2  0
  6 38  1  0
  6 39  1  0
  5 40  2  0
 40 41  1  0
  4 42  1  0
  2 43  1  0
  1 44  1  0
 40  1  1  0
 37  7  1  0
 15 10  1  0
 29 25  1  0
 18 14  1  0
M  END
>  <cnnaffinity>  (1) 
-5.84819

>  <filename>  (1) 
c1cncc(Cc2nc([C@H]3CCOC3)n(-c3cccc4nc[nH]c34)n2)c1

$$$$
