
     RDKit          3D

 32 34  0  0  0  0  0  0  0  0999 V2000
    4.9637    1.8489   17.0214 H   0  0  0  0  0  0  0  0  0  0  0  0
    5.4298    1.2973   17.8334 C   0  0  0  0  0  0  0  0  0  0  0  0
    6.5815    0.6689   17.5437 N   0  0  0  0  0  0  0  0  0  0  0  0
    7.1855    0.0088   18.5442 C   0  0  0  0  0  0  0  0  0  0  0  0
    8.1139   -0.5023   18.2956 H   0  0  0  0  0  0  0  0  0  0  0  0
    6.6886   -0.0720   19.8705 C   0  0  0  0  0  0  0  0  0  0  0  0
    7.3458   -0.7788   20.8891 N   0  0  0  0  0  0  0  0  0  0  0  0
    6.7807   -0.9976   21.7014 H   0  0  0  0  0  0  0  0  0  0  0  0
    8.7273   -0.7573   21.1479 C   0  0  0  0  0  0  0  0  0  0  0  0
    9.7030    0.2018   20.7729 C   0  0  0  0  0  0  0  0  0  0  0  0
    9.5511    1.1013   20.1869 H   0  0  0  0  0  0  0  0  0  0  0  0
   10.9073   -0.1272   21.2331 N   0  0  0  0  0  0  0  0  0  0  0  0
   10.7054   -1.2707   21.9067 N   0  0  0  0  0  0  0  0  0  0  0  0
   11.5175   -1.7486   22.2779 H   0  0  0  0  0  0  0  0  0  0  0  0
    9.4093   -1.7000   21.8944 C   0  0  0  0  0  0  0  0  0  0  0  0
    8.8640   -2.8598   22.6798 C   0  0  1  0  0  0  0  0  0  0  0  0
    9.7170   -3.4358   23.0727 H   0  0  0  0  0  0  0  0  0  0  0  0
    7.9735   -2.4110   23.8935 C   0  0  0  0  0  0  0  0  0  0  0  0
    7.7820   -1.3287   23.8934 H   0  0  0  0  0  0  0  0  0  0  0  0
    8.4947   -2.6423   24.8315 H   0  0  0  0  0  0  0  0  0  0  0  0
    6.7179   -3.1673   23.8372 N   0  0  0  0  0  0  0  0  0  0  0  0
    5.9743   -2.5998   23.4377 H   0  0  0  0  0  0  0  0  0  0  0  0
    6.9765   -4.3225   22.9823 C   0  0  0  0  0  0  0  0  0  0  0  0
    6.0400   -4.7334   22.5973 H   0  0  0  0  0  0  0  0  0  0  0  0
    7.4390   -5.1164   23.5889 H   0  0  0  0  0  0  0  0  0  0  0  0
    7.9196   -3.8037   21.8939 C   0  0  0  0  0  0  0  0  0  0  0  0
    8.4456   -4.5849   21.3415 H   0  0  0  0  0  0  0  0  0  0  0  0
    7.3335   -3.2238   21.1746 H   0  0  0  0  0  0  0  0  0  0  0  0
    5.4677    0.5600   20.1377 C   0  0  0  0  0  0  0  0  0  0  0  0
    5.0439    0.5279   21.1443 H   0  0  0  0  0  0  0  0  0  0  0  0
    4.8384    1.2582   19.1034 C   0  0  0  0  0  0  0  0  0  0  0  0
    3.9061    1.7839   19.2749 H   0  0  0  0  0  0  0  0  0  0  0  0
  1  2  1  0
  2  3  2  0
  3  4  1  0
  4  5  1  0
  4  6  2  0
  6  7  1  0
  7  8  1  0
  7  9  1  0
  9 10  1  0
 10 11  1  0
 10 12  2  0
 12 13  1  0
 13 14  1  0
 13 15  1  0
 15 16  1  0
 16 17  1  1
 16 18  1  0
 18 19  1  0
 18 20  1  0
 18 21  1  0
 21 22  1  0
 21 23  1  0
 23 24  1  0
 23 25  1  0
 23 26  1  0
 26 27  1  0
 26 28  1  0
  6 29  1  0
 29 30  1  0
 29 31  2  0
 31 32  1  0
 31  2  1  0
 15  9  2  0
 26 16  1  0
M  END
>  <cnnaffinity>  (1) 
-4.97936

>  <filename>  (1) 
c1cncc(Nc2cn[nH]c2[C@@H]2CCNC2)c1

$$$$
