
     RDKit          3D

 28 30  0  0  0  0  0  0  0  0999 V2000
    4.9404    1.7915   16.9949 H   0  0  0  0  0  0  0  0  0  0  0  0
    5.4101    1.2892   17.8392 C   0  0  0  0  0  0  0  0  0  0  0  0
    6.5746    0.6694   17.5891 N   0  0  0  0  0  0  0  0  0  0  0  0
    7.1804    0.0397   18.5982 C   0  0  0  0  0  0  0  0  0  0  0  0
    8.1234   -0.4517   18.3756 H   0  0  0  0  0  0  0  0  0  0  0  0
    6.6556    0.0004   19.9021 C   0  0  0  0  0  0  0  0  0  0  0  0
    7.3737   -0.6803   20.9362 N   0  0  0  0  0  0  0  0  0  0  0  0
    7.9884   -1.8621   20.7171 N   0  0  0  0  0  0  0  0  0  0  0  0
    8.5058   -2.2268   21.8305 N   0  0  0  0  0  0  0  0  0  0  0  0
    8.2732   -1.3169   22.8052 N   0  0  0  0  0  0  0  0  0  0  0  0
    7.5921   -0.3462   22.2345 C   0  0  0  0  0  0  0  0  0  0  0  0
    7.2177    1.2583   22.9001 S   0  0  0  0  0  0  0  0  0  0  0  0
    8.5343    2.2136   22.3835 N   0  0  0  0  0  0  0  0  0  0  0  0
    8.5533    2.5500   21.4311 H   0  0  0  0  0  0  0  0  0  0  0  0
    9.7797    2.1583   22.9846 C   0  0  0  0  0  0  0  0  0  0  0  0
    9.9658    1.5755   24.2361 C   0  0  0  0  0  0  0  0  0  0  0  0
    9.1495    1.0684   24.7310 H   0  0  0  0  0  0  0  0  0  0  0  0
   11.2195    1.6696   24.8169 C   0  0  0  0  0  0  0  0  0  0  0  0
   11.3819    1.2416   25.8037 H   0  0  0  0  0  0  0  0  0  0  0  0
   12.2686    2.2739   24.2455 N   0  0  0  0  0  0  0  0  0  0  0  0
   12.0805    2.7936   23.0251 C   0  0  0  0  0  0  0  0  0  0  0  0
   12.9495    3.2825   22.5779 H   0  0  0  0  0  0  0  0  0  0  0  0
   10.8727    2.7464   22.3443 C   0  0  0  0  0  0  0  0  0  0  0  0
   10.7798    3.1483   21.3472 H   0  0  0  0  0  0  0  0  0  0  0  0
    5.4384    0.6369   20.1637 C   0  0  0  0  0  0  0  0  0  0  0  0
    4.9948    0.6281   21.1595 H   0  0  0  0  0  0  0  0  0  0  0  0
    4.8113    1.2988   19.1024 C   0  0  0  0  0  0  0  0  0  0  0  0
    3.8795    1.8335   19.2509 H   0  0  0  0  0  0  0  0  0  0  0  0
  1  2  1  0
  2  3  2  0
  3  4  1  0
  4  5  1  0
  4  6  2  0
  6  7  1  0
  7  8  1  0
  8  9  2  0
  9 10  1  0
 10 11  2  0
 11 12  1  0
 12 13  1  0
 13 14  1  0
 13 15  1  0
 15 16  2  0
 16 17  1  0
 16 18  1  0
 18 19  1  0
 18 20  2  0
 20 21  1  0
 21 22  1  0
 21 23  2  0
 23 24  1  0
  6 25  1  0
 25 26  1  0
 25 27  2  0
 27 28  1  0
 27  2  1  0
 11  7  1  0
 23 15  1  0
M  END
>  <cnnaffinity>  (1) 
-5.12269

>  <filename>  (1) 
c1cncc(-n2nnnc2SNc2ccncc2)c1

$$$$
