
     RDKit          3D

 27 29  0  0  0  0  0  0  0  0999 V2000
    4.8921    1.8369   16.9697 H   0  0  0  0  0  0  0  0  0  0  0  0
    5.3885    1.3210   17.7892 C   0  0  0  0  0  0  0  0  0  0  0  0
    6.5541    0.7184   17.5050 N   0  0  0  0  0  0  0  0  0  0  0  0
    7.1977    0.0926   18.5075 C   0  0  0  0  0  0  0  0  0  0  0  0
    8.1297   -0.4004   18.2362 H   0  0  0  0  0  0  0  0  0  0  0  0
    6.7152    0.0256   19.8437 C   0  0  0  0  0  0  0  0  0  0  0  0
    7.3536   -0.6100   20.9211 N   0  0  0  0  0  0  0  0  0  0  0  0
    6.7456   -1.0518   21.5950 H   0  0  0  0  0  0  0  0  0  0  0  0
    8.7113   -0.6755   21.2406 C   0  0  0  0  0  0  0  0  0  0  0  0
    9.5939    0.3659   20.9596 C   0  0  0  0  0  0  0  0  0  0  0  0
    9.2046    1.2631   20.4938 H   0  0  0  0  0  0  0  0  0  0  0  0
   10.9725    0.2537   21.2550 C   0  0  0  0  0  0  0  0  0  0  0  0
   11.6355    1.0783   20.9984 H   0  0  0  0  0  0  0  0  0  0  0  0
   11.4898   -0.8984   21.8365 C   0  0  0  0  0  0  0  0  0  0  0  0
   12.5478   -1.0172   22.0437 H   0  0  0  0  0  0  0  0  0  0  0  0
   10.5817   -1.9084   22.1911 C   0  0  0  0  0  0  0  0  0  0  0  0
    9.1943   -1.8235   21.9227 C   0  0  0  0  0  0  0  0  0  0  0  0
    8.5959   -2.9968   22.5058 C   0  0  0  0  0  0  0  0  0  0  0  0
    7.5642   -3.3157   22.4203 H   0  0  0  0  0  0  0  0  0  0  0  0
    9.5957   -3.7039   23.1016 C   0  0  0  0  0  0  0  0  0  0  0  0
    9.5534   -4.5820   23.7333 H   0  0  0  0  0  0  0  0  0  0  0  0
   10.8010   -3.0591   22.9050 N   0  0  0  0  0  0  0  0  0  0  0  0
   11.7113   -3.4932   22.9664 H   0  0  0  0  0  0  0  0  0  0  0  0
    5.4753    0.6304   20.0970 C   0  0  0  0  0  0  0  0  0  0  0  0
    5.0715    0.5891   21.1091 H   0  0  0  0  0  0  0  0  0  0  0  0
    4.8102    1.2956   19.0648 C   0  0  0  0  0  0  0  0  0  0  0  0
    3.8635    1.7950   19.2420 H   0  0  0  0  0  0  0  0  0  0  0  0
  1  2  1  0
  2  3  2  0
  3  4  1  0
  4  5  1  0
  4  6  2  0
  6  7  1  0
  7  8  1  0
  7  9  1  0
  9 10  2  0
 10 11  1  0
 10 12  1  0
 12 13  1  0
 12 14  2  0
 14 15  1  0
 14 16  1  0
 16 17  2  0
 17 18  1  0
 18 19  1  0
 18 20  2  0
 20 21  1  0
 20 22  1  0
 22 23  1  0
  6 24  1  0
 24 25  1  0
 24 26  2  0
 26 27  1  0
 26  2  1  0
 17  9  1  0
 22 16  1  0
M  END
>  <cnnaffinity>  (1) 
-4.92675

>  <filename>  (1) 
c1cncc(Nc2cccc3[nH]ccc23)c1

$$$$
