
     RDKit          3D

 35 37  0  0  0  0  0  0  0  0999 V2000
    4.9297    1.7763   16.9957 H   0  0  0  0  0  0  0  0  0  0  0  0
    5.4060    1.2867   17.8435 C   0  0  0  0  0  0  0  0  0  0  0  0
    6.5727    0.6777   17.5933 N   0  0  0  0  0  0  0  0  0  0  0  0
    7.1851    0.0816   18.6287 C   0  0  0  0  0  0  0  0  0  0  0  0
    8.1241   -0.4174   18.3975 H   0  0  0  0  0  0  0  0  0  0  0  0
    6.6606    0.0230   19.9257 C   0  0  0  0  0  0  0  0  0  0  0  0
    7.4300   -0.6963   20.9863 C   0  0  0  0  0  0  0  0  0  0  0  0
    8.5887    0.0085   21.4797 N   0  0  0  0  0  0  0  0  0  0  0  0
    9.0424   -0.5885   22.1634 H   0  0  0  0  0  0  0  0  0  0  0  0
    8.3490    1.3149   22.0874 C   0  0  0  0  0  0  0  0  0  0  0  0
    7.7546    1.8866   21.3598 H   0  0  0  0  0  0  0  0  0  0  0  0
    7.5725    1.2348   23.4124 C   0  0  0  0  0  0  0  0  0  0  0  0
    6.5842    0.7990   23.2406 H   0  0  0  0  0  0  0  0  0  0  0  0
    8.1088    0.5719   24.1040 H   0  0  0  0  0  0  0  0  0  0  0  0
    7.4283    2.6092   24.0520 C   0  0  0  0  0  0  0  0  0  0  0  0
    6.7668    3.2325   23.4165 H   0  0  0  0  0  0  0  0  0  0  0  0
    6.9430    2.5213   25.0302 H   0  0  0  0  0  0  0  0  0  0  0  0
    8.7512    3.2051   24.2382 N   0  0  0  0  0  0  0  0  0  0  0  0
    8.6334    4.1062   24.6869 H   0  0  0  0  0  0  0  0  0  0  0  0
    9.4516    3.4046   22.9684 C   0  0  0  0  0  0  0  0  0  0  0  0
    8.8939    4.0692   22.2772 H   0  0  0  0  0  0  0  0  0  0  0  0
   10.4104    3.8932   23.1738 H   0  0  0  0  0  0  0  0  0  0  0  0
    9.6752    2.0537   22.2925 C   0  0  0  0  0  0  0  0  0  0  0  0
   10.1697    2.1928   21.3282 H   0  0  0  0  0  0  0  0  0  0  0  0
   10.3400    1.4463   22.9198 H   0  0  0  0  0  0  0  0  0  0  0  0
    6.7000   -1.6425   21.9062 C   0  0  0  0  0  0  0  0  0  0  0  0
    5.6267   -1.7519   21.7763 H   0  0  0  0  0  0  0  0  0  0  0  0
    7.0515   -1.7412   22.9291 H   0  0  0  0  0  0  0  0  0  0  0  0
    7.5816   -2.1748   20.8158 C   0  0  0  0  0  0  0  0  0  0  0  0
    8.5327   -2.6538   21.0475 H   0  0  0  0  0  0  0  0  0  0  0  0
    7.0338   -2.6073   19.9857 H   0  0  0  0  0  0  0  0  0  0  0  0
    5.4365    0.6588   20.1647 C   0  0  0  0  0  0  0  0  0  0  0  0
    5.0015    0.6265   21.1647 H   0  0  0  0  0  0  0  0  0  0  0  0
    4.8041    1.3098   19.1071 C   0  0  0  0  0  0  0  0  0  0  0  0
    3.8748    1.8392   19.2526 H   0  0  0  0  0  0  0  0  0  0  0  0
  1  2  1  0
  2  3  2  0
  3  4  1  0
  4  5  1  0
  4  6  2  0
  6  7  1  0
  7  8  1  0
  8  9  1  0
  8 10  1  0
 10 11  1  0
 10 12  1  0
 12 13  1  0
 12 14  1  0
 12 15  1  0
 15 16  1  0
 15 17  1  0
 15 18  1  0
 18 19  1  0
 18 20  1  0
 20 21  1  0
 20 22  1  0
 20 23  1  0
 23 24  1  0
 23 25  1  0
  7 26  1  0
 26 27  1  0
 26 28  1  0
 26 29  1  0
 29 30  1  0
 29 31  1  0
  6 32  1  0
 32 33  1  0
 32 34  2  0
 34 35  1  0
 34  2  1  0
 29  7  1  0
 23 10  1  0
M  END
>  <cnnaffinity>  (1) 
-3.80084

>  <filename>  (1) 
c1cncc(C2(NC3CCNCC3)CC2)c1

$$$$
