
     RDKit          3D

 44 48  0  0  0  0  0  0  0  0999 V2000
    4.7638    1.3734   18.8863 C   0  0  0  0  0  0  0  0  0  0  0  0
    5.4075    1.2850   17.6491 C   0  0  0  0  0  0  0  0  0  0  0  0
    6.5023    0.5390   17.4335 N   0  0  0  0  0  0  0  0  0  0  0  0
    7.0200   -0.1048   18.4887 C   0  0  0  0  0  0  0  0  0  0  0  0
    6.5008   -0.0372   19.7964 C   0  0  0  0  0  0  0  0  0  0  0  0
    7.2214   -0.6392   21.0058 C   0  0  0  0  0  0  0  0  0  0  0  0
    8.0417    0.3461   21.7983 C   0  0  0  0  0  0  0  0  0  0  0  0
    7.5736    1.0816   22.7894 N   0  0  0  0  0  0  0  0  0  0  0  0
    8.6364    1.8782   23.1034 N   0  0  0  0  0  0  0  0  0  0  0  0
    8.5866    2.8707   24.1219 C   0  0  0  0  0  0  0  0  0  0  0  0
    9.0202    4.1944   23.9344 C   0  0  0  0  0  0  0  0  0  0  0  0
    9.0587    5.1064   25.0163 C   0  0  0  0  0  0  0  0  0  0  0  0
    8.6674    4.7316   26.3001 C   0  0  0  0  0  0  0  0  0  0  0  0
    8.2365    3.4077   26.4984 C   0  0  0  0  0  0  0  0  0  0  0  0
    8.1764    2.5113   25.4171 C   0  0  0  0  0  0  0  0  0  0  0  0
    7.7635    1.3217   25.9681 N   0  0  0  0  0  0  0  0  0  0  0  0
    7.5854    1.5484   27.3000 C   0  0  0  0  0  0  0  0  0  0  0  0
    7.8545    2.7680   27.6675 N   0  0  0  0  0  0  0  0  0  0  0  0
    7.2779    0.7592   27.9736 H   0  0  0  0  0  0  0  0  0  0  0  0
    7.4963    0.5158   25.4261 H   0  0  0  0  0  0  0  0  0  0  0  0
    8.6986    5.3998   27.1564 H   0  0  0  0  0  0  0  0  0  0  0  0
    9.4236    6.1158   24.8406 H   0  0  0  0  0  0  0  0  0  0  0  0
    9.3401    4.5374   22.9535 H   0  0  0  0  0  0  0  0  0  0  0  0
    9.7005    1.5179   22.3351 C   0  0  0  0  0  0  0  0  0  0  0  0
   11.0519    2.1386   22.4956 C   0  0  0  0  0  0  0  0  0  0  0  0
   11.6580    2.1120   23.9284 C   0  0  0  0  0  0  0  0  0  0  0  0
   13.1369    1.8746   23.6416 C   0  0  0  0  0  0  0  0  0  0  0  0
   13.1393    1.0077   22.5260 O   0  0  0  0  0  0  0  0  0  0  0  0
   12.1290    1.4440   21.6373 C   0  0  0  0  0  0  0  0  0  0  0  0
   12.5260    2.1683   20.9111 H   0  0  0  0  0  0  0  0  0  0  0  0
   11.7528    0.5666   21.0980 H   0  0  0  0  0  0  0  0  0  0  0  0
   13.6745    2.8100   23.4102 H   0  0  0  0  0  0  0  0  0  0  0  0
   13.6524    1.3676   24.4607 H   0  0  0  0  0  0  0  0  0  0  0  0
   11.4760    3.0396   24.4849 H   0  0  0  0  0  0  0  0  0  0  0  0
   11.2750    1.2497   24.4889 H   0  0  0  0  0  0  0  0  0  0  0  0
   10.9501    3.1753   22.1571 H   0  0  0  0  0  0  0  0  0  0  0  0
    9.3497    0.5595   21.5008 N   0  0  0  0  0  0  0  0  0  0  0  0
    6.4910   -1.0914   21.6837 H   0  0  0  0  0  0  0  0  0  0  0  0
    7.9058   -1.4316   20.6861 H   0  0  0  0  0  0  0  0  0  0  0  0
    5.3167    0.6931   19.9746 C   0  0  0  0  0  0  0  0  0  0  0  0
    4.8455    0.7414   20.9583 H   0  0  0  0  0  0  0  0  0  0  0  0
    7.9081   -0.7056   18.2877 H   0  0  0  0  0  0  0  0  0  0  0  0
    5.0200    1.8249   16.7871 H   0  0  0  0  0  0  0  0  0  0  0  0
    3.8698    1.9833   18.9872 H   0  0  0  0  0  0  0  0  0  0  0  0
  1  2  2  0
  2  3  1  0
  3  4  2  0
  4  5  1  0
  5  6  1  0
  6  7  1  0
  7  8  2  0
  8  9  1  0
  9 10  1  0
 10 11  2  0
 11 12  1  0
 12 13  2  0
 13 14  1  0
 14 15  2  0
 15 16  1  0
 16 17  1  0
 17 18  2  0
 17 19  1  0
 16 20  1  0
 13 21  1  0
 12 22  1  0
 11 23  1  0
  9 24  1  0
 24 25  1  0
 25 26  1  0
 26 27  1  0
 27 28  1  0
 28 29  1  0
 29 30  1  0
 29 31  1  0
 27 32  1  0
 27 33  1  0
 26 34  1  0
 26 35  1  0
 25 36  1  0
 24 37  2  0
  6 38  1  0
  6 39  1  0
  5 40  2  0
 40 41  1  0
  4 42  1  0
  2 43  1  0
  1 44  1  0
 40  1  1  0
 37  7  1  0
 15 10  1  0
 29 25  1  0
 18 14  1  0
M  END
>  <cnnaffinity>  (1) 
-5.8271

>  <filename>  (1) 
c1cncc(Cc2nc(C3CCOC3)n(-c3cccc4nc[nH]c34)n2)c1

$$$$
