
     RDKit          3D

 33 36  0  0  0  0  0  0  0  0999 V2000
    4.9191    1.8219   16.9653 H   0  0  0  0  0  0  0  0  0  0  0  0
    5.3837    1.3101   17.8068 C   0  0  0  0  0  0  0  0  0  0  0  0
    6.5407    0.6844   17.5396 N   0  0  0  0  0  0  0  0  0  0  0  0
    7.1572    0.0745   18.5589 C   0  0  0  0  0  0  0  0  0  0  0  0
    8.0965   -0.4171   18.3121 H   0  0  0  0  0  0  0  0  0  0  0  0
    6.6679    0.0238   19.8802 C   0  0  0  0  0  0  0  0  0  0  0  0
    7.3958   -0.6889   20.9757 C   0  0  0  0  0  0  0  0  0  0  0  0
    8.7875   -0.5760   21.1649 C   0  0  0  0  0  0  0  0  0  0  0  0
    9.3906    0.0601   20.5167 H   0  0  0  0  0  0  0  0  0  0  0  0
    9.4620   -1.2010   22.1382 N   0  0  0  0  0  0  0  0  0  0  0  0
    8.7763   -1.9751   22.9885 C   0  0  0  0  0  0  0  0  0  0  0  0
    9.3841   -2.4848   23.7381 H   0  0  0  0  0  0  0  0  0  0  0  0
    7.3859   -2.1750   22.9054 C   0  0  0  0  0  0  0  0  0  0  0  0
    6.6858   -3.0512   23.8701 C   0  0  0  0  0  0  0  0  0  0  0  0
    6.8268   -2.9725   25.2140 C   0  0  0  0  0  0  0  0  0  0  0  0
    7.4552   -2.2683   25.7465 H   0  0  0  0  0  0  0  0  0  0  0  0
    5.8200   -4.0716   26.0995 S   0  0  0  0  0  0  0  0  0  0  0  0
    5.1681   -4.7289   24.6215 C   0  0  0  0  0  0  0  0  0  0  0  0
    4.2171   -5.7627   24.4811 C   0  0  0  0  0  0  0  0  0  0  0  0
    3.7795   -6.2550   25.3487 H   0  0  0  0  0  0  0  0  0  0  0  0
    3.8669   -6.1598   23.1960 C   0  0  0  0  0  0  0  0  0  0  0  0
    3.1449   -6.9546   23.0447 H   0  0  0  0  0  0  0  0  0  0  0  0
    4.4619   -5.5497   22.0754 C   0  0  0  0  0  0  0  0  0  0  0  0
    4.2695   -5.9013   21.0824 H   0  0  0  0  0  0  0  0  0  0  0  0
    5.3683   -4.5205   22.2091 C   0  0  0  0  0  0  0  0  0  0  0  0
    5.8060   -4.0692   21.3238 H   0  0  0  0  0  0  0  0  0  0  0  0
    5.7356   -4.0857   23.4969 C   0  0  0  0  0  0  0  0  0  0  0  0
    6.7052   -1.5110   21.8721 C   0  0  0  0  0  0  0  0  0  0  0  0
    5.6338   -1.6678   21.7408 H   0  0  0  0  0  0  0  0  0  0  0  0
    5.4429    0.6627   20.1263 C   0  0  0  0  0  0  0  0  0  0  0  0
    5.0296    0.6513   21.1369 H   0  0  0  0  0  0  0  0  0  0  0  0
    4.7964    1.3230   19.0773 C   0  0  0  0  0  0  0  0  0  0  0  0
    3.8618    1.8523   19.2269 H   0  0  0  0  0  0  0  0  0  0  0  0
  1  2  1  0
  2  3  2  0
  3  4  1  0
  4  5  1  0
  4  6  2  0
  6  7  1  0
  7  8  2  0
  8  9  1  0
  8 10  1  0
 10 11  2  0
 11 12  1  0
 11 13  1  0
 13 14  1  0
 14 15  2  0
 15 16  1  0
 15 17  1  0
 17 18  1  0
 18 19  2  0
 19 20  1  0
 19 21  1  0
 21 22  1  0
 21 23  2  0
 23 24  1  0
 23 25  1  0
 25 26  1  0
 25 27  2  0
 13 28  2  0
 28 29  1  0
  6 30  1  0
 30 31  1  0
 30 32  2  0
 32 33  1  0
 32  2  1  0
 28  7  1  0
 27 14  1  0
 27 18  1  0
M  END
>  <cnnaffinity>  (1) 
-5.52855

>  <filename>  (1) 
c1cncc(-c2cncc(-c3csc4ccccc34)c2)c1

$$$$
