
     RDKit          3D

 42 45  0  0  0  0  0  0  0  0999 V2000
    5.1499    1.6411   16.8558 H   0  0  0  0  0  0  0  0  0  0  0  0
    5.5951    1.1503   17.7262 C   0  0  0  0  0  0  0  0  0  0  0  0
    6.7666    0.5350   17.5150 N   0  0  0  0  0  0  0  0  0  0  0  0
    7.3376   -0.0797   18.5616 C   0  0  0  0  0  0  0  0  0  0  0  0
    8.2911   -0.5773   18.3723 H   0  0  0  0  0  0  0  0  0  0  0  0
    6.7890   -0.1252   19.8528 C   0  0  0  0  0  0  0  0  0  0  0  0
    7.4781   -0.8449   20.9865 C   0  0  0  0  0  0  0  0  0  0  0  0
    6.9389   -2.2208   21.2595 C   0  0  0  0  0  0  0  0  0  0  0  0
    5.6673   -2.4591   21.3285 N   0  0  0  0  0  0  0  0  0  0  0  0
    5.3758   -3.7237   21.7413 N   0  0  0  0  0  0  0  0  0  0  0  0
    6.4462   -4.4165   21.9684 C   0  0  0  0  0  0  0  0  0  0  0  0
    6.4836   -5.6538   22.4585 O   0  0  0  0  0  0  0  0  0  0  0  0
    5.2660   -6.1670   23.0513 C   0  0  0  0  0  0  0  0  0  0  0  0
    4.8509   -5.4469   23.7645 H   0  0  0  0  0  0  0  0  0  0  0  0
    5.5730   -7.0485   23.6183 H   0  0  0  0  0  0  0  0  0  0  0  0
    4.2264   -6.5024   21.9856 C   0  0  0  0  0  0  0  0  0  0  0  0
    4.0426   -5.5919   21.4071 H   0  0  0  0  0  0  0  0  0  0  0  0
    4.6999   -7.1929   21.2669 H   0  0  0  0  0  0  0  0  0  0  0  0
    2.9738   -6.9606   22.5512 N   0  0  0  0  0  0  0  0  0  0  0  0
    1.9746   -7.3894   21.5781 C   0  0  0  0  0  0  0  0  0  0  0  0
    1.3790   -6.5322   21.2256 H   0  0  0  0  0  0  0  0  0  0  0  0
    2.4481   -7.8366   20.6890 H   0  0  0  0  0  0  0  0  0  0  0  0
    1.1219   -8.4486   22.3098 C   0  0  0  0  0  0  0  0  0  0  0  0
    0.0533   -8.3621   22.0872 H   0  0  0  0  0  0  0  0  0  0  0  0
    1.4407   -9.4503   21.9950 H   0  0  0  0  0  0  0  0  0  0  0  0
    1.4849   -8.2416   23.7854 C   0  0  0  0  0  0  0  0  0  0  0  0
    1.2904   -9.1119   24.4201 H   0  0  0  0  0  0  0  0  0  0  0  0
    0.9333   -7.3969   24.2146 H   0  0  0  0  0  0  0  0  0  0  0  0
    2.9619   -7.8892   23.6739 C   0  0  0  0  0  0  0  0  0  0  0  0
    3.3737   -7.4454   24.5865 H   0  0  0  0  0  0  0  0  0  0  0  0
    3.5535   -8.7955   23.4610 H   0  0  0  0  0  0  0  0  0  0  0  0
    7.9356   -3.6185   21.6129 S   0  0  0  0  0  0  0  0  0  0  0  0
    7.8806   -0.0208   22.2157 C   0  0  0  0  0  0  0  0  0  0  0  0
    7.6545    1.0437   22.1951 H   0  0  0  0  0  0  0  0  0  0  0  0
    7.7795   -0.4793   23.1959 H   0  0  0  0  0  0  0  0  0  0  0  0
    8.9286   -0.5274   21.2860 C   0  0  0  0  0  0  0  0  0  0  0  0
    9.5646   -1.3398   21.6281 H   0  0  0  0  0  0  0  0  0  0  0  0
    9.4255    0.2075   20.6580 H   0  0  0  0  0  0  0  0  0  0  0  0
    5.5447    0.4961   20.0410 C   0  0  0  0  0  0  0  0  0  0  0  0
    5.0600    0.4469   21.0177 H   0  0  0  0  0  0  0  0  0  0  0  0
    4.9469    1.1601   18.9652 C   0  0  0  0  0  0  0  0  0  0  0  0
    3.9884    1.6563   19.0649 H   0  0  0  0  0  0  0  0  0  0  0  0
  1  2  1  0
  2  3  2  0
  3  4  1  0
  4  5  1  0
  4  6  2  0
  6  7  1  0
  7  8  1  0
  8  9  2  0
  9 10  1  0
 10 11  2  0
 11 12  1  0
 12 13  1  0
 13 14  1  0
 13 15  1  0
 13 16  1  0
 16 17  1  0
 16 18  1  0
 16 19  1  0
 19 20  1  0
 20 21  1  0
 20 22  1  0
 20 23  1  0
 23 24  1  0
 23 25  1  0
 23 26  1  0
 26 27  1  0
 26 28  1  0
 26 29  1  0
 29 30  1  0
 29 31  1  0
 11 32  1  0
  7 33  1  0
 33 34  1  0
 33 35  1  0
 33 36  1  0
 36 37  1  0
 36 38  1  0
  6 39  1  0
 39 40  1  0
 39 41  2  0
 41 42  1  0
 41  2  1  0
 36  7  1  0
 32  8  1  0
 29 19  1  0
M  END
>  <cnnaffinity>  (1) 
-5.31857

>  <filename>  (1) 
c1cncc(C2(c3nnc(OCCN4CCCC4)s3)CC2)c1

$$$$
