
     RDKit          3D

 47 51  0  0  0  0  0  0  0  0999 V2000
    4.7850    1.3073   19.0600 C   0  0  0  0  0  0  0  0  0  0  0  0
    5.3883    1.2981   17.8016 C   0  0  0  0  0  0  0  0  0  0  0  0
    6.5411    0.6646   17.5379 N   0  0  0  0  0  0  0  0  0  0  0  0
    7.1421    0.0310   18.5534 C   0  0  0  0  0  0  0  0  0  0  0  0
    6.6344   -0.0187   19.8663 C   0  0  0  0  0  0  0  0  0  0  0  0
    7.4153   -0.6442   21.0206 C   0  0  0  0  0  0  0  0  0  0  0  0
    8.2788    0.3583   21.7200 C   0  0  0  0  0  0  0  0  0  0  0  0
    7.8351    1.1702   22.6599 N   0  0  0  0  0  0  0  0  0  0  0  0
    8.9185    1.9382   22.9345 N   0  0  0  0  0  0  0  0  0  0  0  0
    8.8092    2.9904   23.9319 C   0  0  0  0  0  0  0  0  0  0  0  0
    8.0742    4.2424   23.4272 C   0  0  0  0  0  0  0  0  0  0  0  0
    8.1894    5.4117   24.4099 C   0  0  0  0  0  0  0  0  0  0  0  0
    7.2015    6.4874   23.9596 C   0  0  0  0  0  0  0  0  0  0  0  0
    5.7368    5.5932   23.3358 S   0  0  0  0  0  0  0  0  0  0  0  0
    6.5747    3.9848   23.2355 C   0  0  0  0  0  0  0  0  0  0  0  0
    6.3595    3.5026   22.2797 H   0  0  0  0  0  0  0  0  0  0  0  0
    6.1940    3.3256   24.0232 H   0  0  0  0  0  0  0  0  0  0  0  0
    6.8872    7.1506   24.7703 H   0  0  0  0  0  0  0  0  0  0  0  0
    7.6183    7.1052   23.1578 H   0  0  0  0  0  0  0  0  0  0  0  0
    9.2134    5.8046   24.4585 H   0  0  0  0  0  0  0  0  0  0  0  0
    7.9200    5.0666   25.4163 H   0  0  0  0  0  0  0  0  0  0  0  0
    8.4869    4.5520   22.4553 H   0  0  0  0  0  0  0  0  0  0  0  0
    8.2619    2.5582   24.7722 H   0  0  0  0  0  0  0  0  0  0  0  0
    9.8030    3.2390   24.3104 H   0  0  0  0  0  0  0  0  0  0  0  0
    9.9577    1.5268   22.1758 C   0  0  0  0  0  0  0  0  0  0  0  0
   11.2980    2.0563   22.3161 C   0  0  0  0  0  0  0  0  0  0  0  0
   11.5452    3.4243   22.2899 C   0  0  0  0  0  0  0  0  0  0  0  0
   12.7640    3.9810   22.4017 N   0  0  0  0  0  0  0  0  0  0  0  0
   13.8131    3.1767   22.5750 C   0  0  0  0  0  0  0  0  0  0  0  0
   13.6676    1.7694   22.6257 C   0  0  0  0  0  0  0  0  0  0  0  0
   12.3948    1.1902   22.4657 C   0  0  0  0  0  0  0  0  0  0  0  0
   12.5660   -0.2314   22.4876 C   0  0  0  0  0  0  0  0  0  0  0  0
   13.8983   -0.4702   22.6215 C   0  0  0  0  0  0  0  0  0  0  0  0
   14.5728    0.7301   22.7284 N   0  0  0  0  0  0  0  0  0  0  0  0
   15.5642    0.7995   22.5611 H   0  0  0  0  0  0  0  0  0  0  0  0
   14.4260   -1.4138   22.5804 H   0  0  0  0  0  0  0  0  0  0  0  0
   11.7639   -0.9424   22.3443 H   0  0  0  0  0  0  0  0  0  0  0  0
   14.7921    3.6451   22.6159 H   0  0  0  0  0  0  0  0  0  0  0  0
   10.7226    4.1226   22.1742 H   0  0  0  0  0  0  0  0  0  0  0  0
    9.5767    0.5394   21.3821 N   0  0  0  0  0  0  0  0  0  0  0  0
    6.7387   -1.0677   21.7722 H   0  0  0  0  0  0  0  0  0  0  0  0
    8.0875   -1.4435   20.6840 H   0  0  0  0  0  0  0  0  0  0  0  0
    5.4201    0.6399   20.1085 C   0  0  0  0  0  0  0  0  0  0  0  0
    4.9909    0.6489   21.1122 H   0  0  0  0  0  0  0  0  0  0  0  0
    8.0897   -0.4544   18.3070 H   0  0  0  0  0  0  0  0  0  0  0  0
    4.9357    1.8330   16.9704 H   0  0  0  0  0  0  0  0  0  0  0  0
    3.8572    1.8470   19.2063 H   0  0  0  0  0  0  0  0  0  0  0  0
  1  2  2  0
  2  3  1  0
  3  4  2  0
  4  5  1  0
  5  6  1  0
  6  7  1  0
  7  8  2  0
  8  9  1  0
  9 10  1  0
 10 11  1  0
 11 12  1  0
 12 13  1  0
 13 14  1  0
 14 15  1  0
 15 16  1  0
 15 17  1  0
 13 18  1  0
 13 19  1  0
 12 20  1  0
 12 21  1  0
 11 22  1  0
 10 23  1  0
 10 24  1  0
  9 25  1  0
 25 26  1  0
 26 27  2  0
 27 28  1  0
 28 29  2  0
 29 30  1  0
 30 31  2  0
 31 32  1  0
 32 33  2  0
 33 34  1  0
 34 35  1  0
 33 36  1  0
 32 37  1  0
 29 38  1  0
 27 39  1  0
 25 40  2  0
  6 41  1  0
  6 42  1  0
  5 43  2  0
 43 44  1  0
  4 45  1  0
  2 46  1  0
  1 47  1  0
 43  1  1  0
 40  7  1  0
 15 11  1  0
 31 26  1  0
 34 30  1  0
M  END
>  <cnnaffinity>  (1) 
-6.83093

>  <filename>  (1) 
c1cncc(Cc2nc(-c3cncc4[nH]ccc34)n(CC3CCSC3)n2)c1

$$$$
