
     RDKit          3D

 34 37  0  0  0  0  0  0  0  0999 V2000
    9.0090   -2.8035   23.7240 H   0  0  0  0  0  0  0  0  0  0  0  0
    8.5532   -2.1837   22.9504 C   0  0  0  0  0  0  0  0  0  0  0  0
    8.2176   -2.7929   21.8091 N   0  0  0  0  0  0  0  0  0  0  0  0
    7.6092   -2.0390   20.8983 C   0  0  0  0  0  0  0  0  0  0  0  0
    7.2297   -2.5299   20.0051 H   0  0  0  0  0  0  0  0  0  0  0  0
    7.3670   -0.6725   21.0358 C   0  0  0  0  0  0  0  0  0  0  0  0
    6.6605    0.0407   19.9080 C   0  0  0  0  0  0  0  0  0  0  0  0
    7.1564    0.0729   18.5830 C   0  0  0  0  0  0  0  0  0  0  0  0
    8.1047   -0.4100   18.3401 H   0  0  0  0  0  0  0  0  0  0  0  0
    6.5476    0.6795   17.5564 N   0  0  0  0  0  0  0  0  0  0  0  0
    5.3835    1.2990   17.8134 C   0  0  0  0  0  0  0  0  0  0  0  0
    4.9203    1.8143   16.9725 H   0  0  0  0  0  0  0  0  0  0  0  0
    4.7830    1.3086   19.0751 C   0  0  0  0  0  0  0  0  0  0  0  0
    3.8511    1.8441   19.2193 H   0  0  0  0  0  0  0  0  0  0  0  0
    5.4264    0.6645   20.1347 C   0  0  0  0  0  0  0  0  0  0  0  0
    5.0135    0.6480   21.1449 H   0  0  0  0  0  0  0  0  0  0  0  0
    7.7473   -0.1303   22.2958 C   0  0  0  0  0  0  0  0  0  0  0  0
    7.4995    1.3624   22.5960 C   0  0  0  0  0  0  0  0  0  0  0  0
    6.9000    1.6943   23.7234 N   0  0  0  0  0  0  0  0  0  0  0  0
    6.7196    3.0168   24.0082 C   0  0  0  0  0  0  0  0  0  0  0  0
    6.1526    3.3417   25.2694 C   0  0  0  0  0  0  0  0  0  0  0  0
    5.9297    2.4876   25.9007 H   0  0  0  0  0  0  0  0  0  0  0  0
    5.9508    4.6550   25.6244 C   0  0  0  0  0  0  0  0  0  0  0  0
    5.5214    4.9053   26.5911 H   0  0  0  0  0  0  0  0  0  0  0  0
    6.3031    5.7043   24.7219 C   0  0  0  0  0  0  0  0  0  0  0  0
    6.1274    6.7353   25.0097 H   0  0  0  0  0  0  0  0  0  0  0  0
    6.8648    5.4230   23.4995 C   0  0  0  0  0  0  0  0  0  0  0  0
    7.1372    6.2062   22.7935 H   0  0  0  0  0  0  0  0  0  0  0  0
    7.1069    4.0690   23.1254 C   0  0  0  0  0  0  0  0  0  0  0  0
    7.7403    3.6876   21.9179 C   0  0  0  0  0  0  0  0  0  0  0  0
    8.0700    4.4914   21.2610 H   0  0  0  0  0  0  0  0  0  0  0  0
    7.9119    2.3544   21.6331 C   0  0  0  0  0  0  0  0  0  0  0  0
    8.3067    2.0162   20.6817 H   0  0  0  0  0  0  0  0  0  0  0  0
    8.3443   -0.8977   23.2300 N   0  0  0  0  0  0  0  0  0  0  0  0
  1  2  1  0
  2  3  2  0
  3  4  1  0
  4  5  1  0
  4  6  2  0
  6  7  1  0
  7  8  2  0
  8  9  1  0
  8 10  1  0
 10 11  2  0
 11 12  1  0
 11 13  1  0
 13 14  1  0
 13 15  2  0
 15 16  1  0
  6 17  1  0
 17 18  1  0
 18 19  2  0
 19 20  1  0
 20 21  2  0
 21 22  1  0
 21 23  1  0
 23 24  1  0
 23 25  2  0
 25 26  1  0
 25 27  1  0
 27 28  1  0
 27 29  2  0
 29 30  1  0
 30 31  1  0
 30 32  2  0
 32 33  1  0
 17 34  2  0
 34  2  1  0
 15  7  1  0
 32 18  1  0
 29 20  1  0
M  END
>  <cnnaffinity>  (1) 
-5.03785

>  <filename>  (1) 
c1cncc(-c2cncnc2-c2ccc3ccccc3n2)c1

$$$$
