
     RDKit          3D

 40 44  0  0  0  0  0  0  0  0999 V2000
    4.7882    1.3196   19.0420 C   0  0  0  0  0  0  0  0  0  0  0  0
    5.3910    1.3056   17.7807 C   0  0  0  0  0  0  0  0  0  0  0  0
    6.5365    0.6579   17.5158 N   0  0  0  0  0  0  0  0  0  0  0  0
    7.1223    0.0058   18.5292 C   0  0  0  0  0  0  0  0  0  0  0  0
    6.6166   -0.0415   19.8398 C   0  0  0  0  0  0  0  0  0  0  0  0
    7.3693   -0.7026   20.9949 C   0  0  0  0  0  0  0  0  0  0  0  0
    8.1975    0.2683   21.7909 C   0  0  0  0  0  0  0  0  0  0  0  0
    7.7088    0.9589   22.8048 N   0  0  0  0  0  0  0  0  0  0  0  0
    8.7378    1.7832   23.1277 N   0  0  0  0  0  0  0  0  0  0  0  0
    8.6581    2.8304   24.0937 C   0  0  0  0  0  0  0  0  0  0  0  0
    8.4716    2.5703   25.4495 C   0  0  0  0  0  0  0  0  0  0  0  0
    8.5732    3.6124   26.3967 C   0  0  0  0  0  0  0  0  0  0  0  0
    8.8845    4.9186   26.0195 C   0  0  0  0  0  0  0  0  0  0  0  0
    9.1029    5.1864   24.6581 C   0  0  0  0  0  0  0  0  0  0  0  0
    8.9492    4.1570   23.7175 C   0  0  0  0  0  0  0  0  0  0  0  0
    9.2555    4.7437   22.5147 N   0  0  0  0  0  0  0  0  0  0  0  0
    9.5907    6.0361   22.7685 C   0  0  0  0  0  0  0  0  0  0  0  0
    9.5056    6.3556   24.0300 N   0  0  0  0  0  0  0  0  0  0  0  0
    9.8844    6.7124   21.9744 H   0  0  0  0  0  0  0  0  0  0  0  0
    9.3819    4.2840   21.6291 H   0  0  0  0  0  0  0  0  0  0  0  0
    8.9812    5.7328   26.7251 H   0  0  0  0  0  0  0  0  0  0  0  0
    8.4001    3.3844   27.4428 H   0  0  0  0  0  0  0  0  0  0  0  0
    8.2850    1.5504   25.7722 H   0  0  0  0  0  0  0  0  0  0  0  0
    9.8079    1.4928   22.3322 C   0  0  0  0  0  0  0  0  0  0  0  0
   11.1045    2.1516   22.4477 C   0  0  0  0  0  0  0  0  0  0  0  0
   11.7873    2.5532   21.3463 C   0  0  0  0  0  0  0  0  0  0  0  0
   12.8458    3.3021   21.6929 O   0  0  0  0  0  0  0  0  0  0  0  0
   12.8871    3.3596   23.0461 C   0  0  0  0  0  0  0  0  0  0  0  0
   11.8578    2.6689   23.5814 C   0  0  0  0  0  0  0  0  0  0  0  0
   11.6622    2.5624   24.6401 H   0  0  0  0  0  0  0  0  0  0  0  0
   13.6740    3.9756   23.4551 H   0  0  0  0  0  0  0  0  0  0  0  0
   11.6286    2.4181   20.2853 H   0  0  0  0  0  0  0  0  0  0  0  0
    9.4811    0.5704   21.4491 N   0  0  0  0  0  0  0  0  0  0  0  0
    8.0377   -1.4887   20.6276 H   0  0  0  0  0  0  0  0  0  0  0  0
    6.6480   -1.1647   21.6769 H   0  0  0  0  0  0  0  0  0  0  0  0
    5.4142    0.6349   20.0869 C   0  0  0  0  0  0  0  0  0  0  0  0
    4.9825    0.6279   21.0896 H   0  0  0  0  0  0  0  0  0  0  0  0
    8.0549   -0.5060   18.2879 H   0  0  0  0  0  0  0  0  0  0  0  0
    4.9431    1.8481   16.9487 H   0  0  0  0  0  0  0  0  0  0  0  0
    3.8608    1.8657   19.1902 H   0  0  0  0  0  0  0  0  0  0  0  0
  1  2  2  0
  2  3  1  0
  3  4  2  0
  4  5  1  0
  5  6  1  0
  6  7  1  0
  7  8  2  0
  8  9  1  0
  9 10  1  0
 10 11  2  0
 11 12  1  0
 12 13  2  0
 13 14  1  0
 14 15  2  0
 15 16  1  0
 16 17  1  0
 17 18  2  0
 17 19  1  0
 16 20  1  0
 13 21  1  0
 12 22  1  0
 11 23  1  0
  9 24  1  0
 24 25  1  0
 25 26  2  0
 26 27  1  0
 27 28  1  0
 28 29  2  0
 29 30  1  0
 28 31  1  0
 26 32  1  0
 24 33  2  0
  6 34  1  0
  6 35  1  0
  5 36  2  0
 36 37  1  0
  4 38  1  0
  2 39  1  0
  1 40  1  0
 36  1  1  0
 33  7  1  0
 15 10  1  0
 29 25  1  0
 18 14  1  0
M  END
>  <cnnaffinity>  (1) 
-5.7227

>  <filename>  (1) 
c1cncc(Cc2nc(-c3ccoc3)n(-c3cccc4nc[nH]c34)n2)c1

$$$$
