
     RDKit          3D

 33 36  0  0  0  0  0  0  0  0999 V2000
    4.8089    1.2991   19.1074 C   0  0  0  0  0  0  0  0  0  0  0  0
    5.4076    1.2901   17.8437 C   0  0  0  0  0  0  0  0  0  0  0  0
    6.5761    0.6720   17.5958 N   0  0  0  0  0  0  0  0  0  0  0  0
    7.1771    0.0390   18.6065 C   0  0  0  0  0  0  0  0  0  0  0  0
    6.6509   -0.0141   19.9073 C   0  0  0  0  0  0  0  0  0  0  0  0
    7.3617   -0.7000   20.9320 N   0  0  0  0  0  0  0  0  0  0  0  0
    7.8657   -1.9313   20.7077 N   0  0  0  0  0  0  0  0  0  0  0  0
    8.3489   -2.3262   21.8756 C   0  0  0  0  0  0  0  0  0  0  0  0
    8.1804   -1.3585   22.8767 C   0  0  0  0  0  0  0  0  0  0  0  0
    7.5565   -0.3104   22.2381 C   0  0  0  0  0  0  0  0  0  0  0  0
    7.2359    1.0150   22.7902 C   0  0  0  0  0  0  0  0  0  0  0  0
    7.5240    2.2125   22.0527 C   0  0  0  0  0  0  0  0  0  0  0  0
    7.2525    3.4436   22.5932 C   0  0  0  0  0  0  0  0  0  0  0  0
    6.6947    3.5455   23.8995 C   0  0  0  0  0  0  0  0  0  0  0  0
    6.3904    4.7892   24.5107 C   0  0  0  0  0  0  0  0  0  0  0  0
    5.8649    4.7991   25.7768 C   0  0  0  0  0  0  0  0  0  0  0  0
    5.6063    3.6822   26.5163 N   0  0  0  0  0  0  0  0  0  0  0  0
    5.8834    2.5230   25.9611 C   0  0  0  0  0  0  0  0  0  0  0  0
    6.4266    2.3632   24.6490 C   0  0  0  0  0  0  0  0  0  0  0  0
    6.7148    1.0979   24.0634 C   0  0  0  0  0  0  0  0  0  0  0  0
    6.5244    0.1797   24.6171 H   0  0  0  0  0  0  0  0  0  0  0  0
    5.6792    1.6272   26.5454 H   0  0  0  0  0  0  0  0  0  0  0  0
    5.6246    5.7377   26.2644 H   0  0  0  0  0  0  0  0  0  0  0  0
    6.5777    5.7055   23.9651 H   0  0  0  0  0  0  0  0  0  0  0  0
    7.4456    4.3580   22.0397 H   0  0  0  0  0  0  0  0  0  0  0  0
    7.9481    2.1240   21.0558 H   0  0  0  0  0  0  0  0  0  0  0  0
    8.5096   -1.3694   23.9063 H   0  0  0  0  0  0  0  0  0  0  0  0
    8.8082   -3.3001   21.9744 H   0  0  0  0  0  0  0  0  0  0  0  0
    5.4303    0.6305   20.1635 C   0  0  0  0  0  0  0  0  0  0  0  0
    5.0135    0.6388   21.1734 H   0  0  0  0  0  0  0  0  0  0  0  0
    8.1246   -0.4409   18.3796 H   0  0  0  0  0  0  0  0  0  0  0  0
    4.9254    1.7802   16.9983 H   0  0  0  0  0  0  0  0  0  0  0  0
    3.8801    1.8380   19.2596 H   0  0  0  0  0  0  0  0  0  0  0  0
  1  2  2  0
  2  3  1  0
  3  4  2  0
  4  5  1  0
  5  6  1  0
  6  7  1  0
  7  8  2  0
  8  9  1  0
  9 10  2  0
 10 11  1  0
 11 12  2  0
 12 13  1  0
 13 14  2  0
 14 15  1  0
 15 16  2  0
 16 17  1  0
 17 18  2  0
 18 19  1  0
 19 20  2  0
 20 21  1  0
 18 22  1  0
 16 23  1  0
 15 24  1  0
 13 25  1  0
 12 26  1  0
  9 27  1  0
  8 28  1  0
  5 29  2  0
 29 30  1  0
  4 31  1  0
  2 32  1  0
  1 33  1  0
 29  1  1  0
 10  6  1  0
 20 11  1  0
 19 14  1  0
M  END
>  <cnnaffinity>  (1) 
-5.19754

>  <filename>  (1) 
c1cncc(-n2nccc2-c2ccc3ccncc3c2)c1

$$$$
