
     RDKit          3D

 33 35  0  0  0  0  0  0  0  0999 V2000
    6.7703   -2.7125   23.7085 H   0  0  0  0  0  0  0  0  0  0  0  0
    7.3023   -2.1111   22.9699 C   0  0  0  0  0  0  0  0  0  0  0  0
    8.6099   -1.9733   23.1418 N   0  0  0  0  0  0  0  0  0  0  0  0
    9.2503   -1.2579   22.2182 C   0  0  0  0  0  0  0  0  0  0  0  0
   10.5618   -1.1855   22.4192 O   0  0  0  0  0  0  0  0  0  0  0  0
   11.4129   -0.5840   21.4257 C   0  0  0  0  0  0  0  0  0  0  0  0
   10.9263   -0.6878   20.4512 H   0  0  0  0  0  0  0  0  0  0  0  0
   11.6484    0.8826   21.7894 C   0  0  0  0  0  0  0  0  0  0  0  0
   10.7314    1.3459   22.1674 H   0  0  0  0  0  0  0  0  0  0  0  0
   11.9399    1.4246   20.8814 H   0  0  0  0  0  0  0  0  0  0  0  0
   12.8078    0.8648   22.7977 C   0  0  0  0  0  0  0  0  0  0  0  0
   12.4223    0.6510   23.8027 H   0  0  0  0  0  0  0  0  0  0  0  0
   13.3322    1.8243   22.8517 H   0  0  0  0  0  0  0  0  0  0  0  0
   13.7222   -0.2830   22.3190 C   0  0  0  0  0  0  0  0  0  0  0  0
   14.5212    0.0844   21.6628 H   0  0  0  0  0  0  0  0  0  0  0  0
   14.2161   -0.7712   23.1640 H   0  0  0  0  0  0  0  0  0  0  0  0
   12.7974   -1.2609   21.5345 C   0  0  0  0  0  0  0  0  0  0  0  0
   13.2013   -1.4489   20.5331 H   0  0  0  0  0  0  0  0  0  0  0  0
   12.7011   -2.2256   22.0394 H   0  0  0  0  0  0  0  0  0  0  0  0
    8.7126   -0.6550   21.1606 N   0  0  0  0  0  0  0  0  0  0  0  0
    7.3907   -0.7479   21.0562 C   0  0  0  0  0  0  0  0  0  0  0  0
    6.7394   -0.0065   19.9712 C   0  0  0  0  0  0  0  0  0  0  0  0
    7.3284    0.0172   18.7043 C   0  0  0  0  0  0  0  0  0  0  0  0
    8.2990   -0.4548   18.5464 H   0  0  0  0  0  0  0  0  0  0  0  0
    6.7652    0.5936   17.6372 N   0  0  0  0  0  0  0  0  0  0  0  0
    5.5930    1.2207   17.8240 C   0  0  0  0  0  0  0  0  0  0  0  0
    5.1593    1.6919   16.9436 H   0  0  0  0  0  0  0  0  0  0  0  0
    4.9394    1.2967   19.0605 C   0  0  0  0  0  0  0  0  0  0  0  0
    4.0072    1.8452   19.1572 H   0  0  0  0  0  0  0  0  0  0  0  0
    5.5196    0.6670   20.1568 C   0  0  0  0  0  0  0  0  0  0  0  0
    5.0576    0.7234   21.1461 H   0  0  0  0  0  0  0  0  0  0  0  0
    6.6224   -1.5259   21.9137 C   0  0  0  0  0  0  0  0  0  0  0  0
    5.5645   -1.6577   21.7451 H   0  0  0  0  0  0  0  0  0  0  0  0
  1  2  1  0
  2  3  2  0
  3  4  1  0
  4  5  1  0
  5  6  1  0
  6  7  1  0
  6  8  1  0
  8  9  1  0
  8 10  1  0
  8 11  1  0
 11 12  1  0
 11 13  1  0
 11 14  1  0
 14 15  1  0
 14 16  1  0
 14 17  1  0
 17 18  1  0
 17 19  1  0
  4 20  2  0
 20 21  1  0
 21 22  1  0
 22 23  2  0
 23 24  1  0
 23 25  1  0
 25 26  2  0
 26 27  1  0
 26 28  1  0
 28 29  1  0
 28 30  2  0
 30 31  1  0
 21 32  2  0
 32 33  1  0
 32  2  1  0
 17  6  1  0
 30 22  1  0
M  END
>  <cnnaffinity>  (1) 
-5.28888

>  <filename>  (1) 
c1cncc(-c2ccnc(OC3CCCC3)n2)c1

$$$$
