
     RDKit          3D

 49 53  0  0  0  0  0  0  0  0999 V2000
    4.7648    1.3416   18.8779 C   0  0  0  0  0  0  0  0  0  0  0  0
    5.3856    1.3076   17.6259 C   0  0  0  0  0  0  0  0  0  0  0  0
    6.4793    0.5747   17.3634 N   0  0  0  0  0  0  0  0  0  0  0  0
    7.0091   -0.1242   18.3759 C   0  0  0  0  0  0  0  0  0  0  0  0
    6.4926   -0.1415   19.6844 C   0  0  0  0  0  0  0  0  0  0  0  0
    7.2342   -0.7931   20.8489 C   0  0  0  0  0  0  0  0  0  0  0  0
    8.0852    0.1919   21.5937 C   0  0  0  0  0  0  0  0  0  0  0  0
    7.6536    0.8766   22.6282 N   0  0  0  0  0  0  0  0  0  0  0  0
    8.6890    1.7263   22.8856 N   0  0  0  0  0  0  0  0  0  0  0  0
    8.6041    2.6603   23.9685 C   0  0  0  0  0  0  0  0  0  0  0  0
    8.4112    2.1884   25.2513 C   0  0  0  0  0  0  0  0  0  0  0  0
    8.4705    3.0712   26.3612 C   0  0  0  0  0  0  0  0  0  0  0  0
    8.7395    4.4100   26.1748 C   0  0  0  0  0  0  0  0  0  0  0  0
    8.8852    4.9382   24.8559 C   0  0  0  0  0  0  0  0  0  0  0  0
    9.1590    6.2785   24.7368 N   0  0  0  0  0  0  0  0  0  0  0  0
    9.1534    6.7929   23.5304 C   0  0  0  0  0  0  0  0  0  0  0  0
    8.8655    6.0614   22.3441 C   0  0  0  0  0  0  0  0  0  0  0  0
    8.6385    4.7072   22.4392 C   0  0  0  0  0  0  0  0  0  0  0  0
    8.7224    4.0768   23.7206 C   0  0  0  0  0  0  0  0  0  0  0  0
    8.3908    4.1125   21.5583 H   0  0  0  0  0  0  0  0  0  0  0  0
    8.8388    6.5739   21.3879 H   0  0  0  0  0  0  0  0  0  0  0  0
    9.3782    7.8566   23.4620 H   0  0  0  0  0  0  0  0  0  0  0  0
    8.8364    5.1201   26.9900 H   0  0  0  0  0  0  0  0  0  0  0  0
    8.3184    2.6709   27.3675 H   0  0  0  0  0  0  0  0  0  0  0  0
    8.2074    1.1293   25.4005 H   0  0  0  0  0  0  0  0  0  0  0  0
    9.7154    1.4421   22.0289 C   0  0  0  0  0  0  0  0  0  0  0  0
   11.0770    2.0505   22.0265 C   0  0  0  0  0  0  0  0  0  0  0  0
   11.8968    1.6265   23.2597 C   0  0  2  0  0  0  0  0  0  0  0  0
   13.4110    1.8363   23.0634 C   0  0  0  0  0  0  0  0  0  0  0  0
   13.9146    0.4520   22.5686 C   0  0  0  0  0  0  0  0  0  0  0  0
   12.6302   -0.3845   22.5222 C   0  0  0  0  0  0  0  0  0  0  0  0
   11.7630    0.2257   23.4615 O   0  0  0  0  0  0  0  0  0  0  0  0
   12.7527   -1.4335   22.7908 H   0  0  0  0  0  0  0  0  0  0  0  0
   12.1725   -0.3739   21.5246 H   0  0  0  0  0  0  0  0  0  0  0  0
   14.4137    0.4530   21.5988 H   0  0  0  0  0  0  0  0  0  0  0  0
   14.6272    0.0292   23.2834 H   0  0  0  0  0  0  0  0  0  0  0  0
   13.8636    2.0424   24.0335 H   0  0  0  0  0  0  0  0  0  0  0  0
   13.6191    2.6869   22.3979 H   0  0  0  0  0  0  0  0  0  0  0  0
   11.5031    2.1123   24.1634 H   0  0  0  0  0  0  0  0  0  0  0  0
   11.0338    3.1393   21.9323 H   0  0  0  0  0  0  0  0  0  0  0  0
   11.5754    1.6540   21.1356 H   0  0  0  0  0  0  0  0  0  0  0  0
    9.3530    0.4854   21.2015 N   0  0  0  0  0  0  0  0  0  0  0  0
    7.8967   -1.5924   20.5022 H   0  0  0  0  0  0  0  0  0  0  0  0
    6.5237   -1.2196   21.5645 H   0  0  0  0  0  0  0  0  0  0  0  0
    5.3273    0.6020   19.9212 C   0  0  0  0  0  0  0  0  0  0  0  0
    4.8738    0.6082   20.9148 H   0  0  0  0  0  0  0  0  0  0  0  0
    7.9018   -0.7046   18.1339 H   0  0  0  0  0  0  0  0  0  0  0  0
    4.9920    1.8946   16.7967 H   0  0  0  0  0  0  0  0  0  0  0  0
    3.8804    1.9558   19.0241 H   0  0  0  0  0  0  0  0  0  0  0  0
  1  2  2  0
  2  3  1  0
  3  4  2  0
  4  5  1  0
  5  6  1  0
  6  7  1  0
  7  8  2  0
  8  9  1  0
  9 10  1  0
 10 11  2  0
 11 12  1  0
 12 13  2  0
 13 14  1  0
 14 15  2  0
 15 16  1  0
 16 17  2  0
 17 18  1  0
 18 19  2  0
 18 20  1  0
 17 21  1  0
 16 22  1  0
 13 23  1  0
 12 24  1  0
 11 25  1  0
  9 26  1  0
 26 27  1  0
 27 28  1  0
 28 29  1  0
 29 30  1  0
 30 31  1  0
 31 32  1  0
 31 33  1  0
 31 34  1  0
 30 35  1  0
 30 36  1  0
 29 37  1  0
 29 38  1  0
 28 39  1  1
 27 40  1  0
 27 41  1  0
 26 42  2  0
  6 43  1  0
  6 44  1  0
  5 45  2  0
 45 46  1  0
  4 47  1  0
  2 48  1  0
  1 49  1  0
 45  1  1  0
 42  7  1  0
 19 10  1  0
 32 28  1  0
 19 14  1  0
M  END
>  <cnnaffinity>  (1) 
-5.67512

>  <filename>  (1) 
c1cncc(Cc2nc(C[C@@H]3CCCO3)n(-c3cccc4ncccc34)n2)c1

$$$$
