
     RDKit          3D

 36 39  0  0  0  0  0  0  0  0999 V2000
    4.9959    1.8534   16.9837 H   0  0  0  0  0  0  0  0  0  0  0  0
    5.4330    1.3092   17.8179 C   0  0  0  0  0  0  0  0  0  0  0  0
    6.5879    0.6766   17.5632 N   0  0  0  0  0  0  0  0  0  0  0  0
    7.1367   -0.0129   18.5660 C   0  0  0  0  0  0  0  0  0  0  0  0
    8.0777   -0.5139   18.3182 H   0  0  0  0  0  0  0  0  0  0  0  0
    6.5730   -0.1210   19.8540 C   0  0  0  0  0  0  0  0  0  0  0  0
    7.3426   -0.8537   20.9307 C   0  0  0  0  0  0  0  0  0  0  0  0
    6.7550   -0.9662   21.8531 H   0  0  0  0  0  0  0  0  0  0  0  0
    7.6638   -1.8565   20.6422 H   0  0  0  0  0  0  0  0  0  0  0  0
    8.5672   -0.0834   21.2198 N   0  0  0  0  0  0  0  0  0  0  0  0
    9.7680   -0.6535   21.3594 N   0  0  0  0  0  0  0  0  0  0  0  0
   10.6112    0.3358   21.5837 C   0  0  0  0  0  0  0  0  0  0  0  0
   11.6774    0.0937   21.6226 H   0  0  0  0  0  0  0  0  0  0  0  0
    9.9105    1.6061   21.6505 C   0  0  0  0  0  0  0  0  0  0  0  0
   10.4195    2.5498   21.8349 H   0  0  0  0  0  0  0  0  0  0  0  0
    8.6682    1.3391   21.3052 C   0  0  0  0  0  0  0  0  0  0  0  0
    7.5843    2.4557   21.3659 C   0  0  0  0  0  0  0  0  0  0  0  0
    7.5633    2.4594   21.3650 C   0  0  0  0  0  0  0  0  0  0  0  0
    9.1212    3.2987   21.5249 H   0  0  0  0  0  0  0  0  0  0  0  0
    6.8777    4.5442   21.4935 C   0  0  0  0  0  0  0  0  0  0  0  0
    7.1814    5.2371   20.7072 H   0  0  0  0  0  0  0  0  0  0  0  0
    5.8608    4.5330   22.3350 C   0  0  0  0  0  0  0  0  0  0  0  0
    5.0277    5.2341   22.4659 H   0  0  0  0  0  0  0  0  0  0  0  0
    5.8818    3.2807   23.1569 C   0  0  0  0  0  0  0  0  0  0  0  0
    5.0018    3.0254   24.2136 C   0  0  0  0  0  0  0  0  0  0  0  0
    4.1751    3.7132   24.4151 H   0  0  0  0  0  0  0  0  0  0  0  0
    5.2657    1.9021   24.9762 C   0  0  0  0  0  0  0  0  0  0  0  0
    4.6091    1.6138   25.7867 H   0  0  0  0  0  0  0  0  0  0  0  0
    6.4055    1.1226   24.6926 C   0  0  0  0  0  0  0  0  0  0  0  0
    6.6617    0.2638   25.3118 H   0  0  0  0  0  0  0  0  0  0  0  0
    7.1973    1.3532   23.6406 N   0  0  0  0  0  0  0  0  0  0  0  0
    6.8964    2.3373   22.7507 C   0  0  0  0  0  0  0  0  0  0  0  0
    5.3624    0.5269   20.0932 C   0  0  0  0  0  0  0  0  0  0  0  0
    4.8350    0.3990   21.0446 H   0  0  0  0  0  0  0  0  0  0  0  0
    4.7752    1.2516   19.0485 C   0  0  0  0  0  0  0  0  0  0  0  0
    3.8313    1.7733   19.1681 H   0  0  0  0  0  0  0  0  0  0  0  0
  1  2  1  0
  2  3  2  0
  3  4  1  0
  4  5  1  0
  4  6  2  0
  6  7  1  0
  7  8  1  0
  7  9  1  0
  7 10  1  0
 10 11  1  0
 11 12  2  0
 12 13  1  0
 12 14  1  0
 14 15  1  0
 14 16  2  0
 16 17  1  0
 17 18  2  0
 18 19  1  0
 18 20  1  0
 20 21  1  0
 20 22  2  0
 22 23  1  0
 22 24  1  0
 24 25  2  0
 25 26  1  0
 25 27  1  0
 27 28  1  0
 27 29  2  0
 29 30  1  0
 29 31  1  0
 31 32  2  0
  6 33  1  0
 33 34  1  0
 33 35  2  0
 35 36  1  0
 35  2  1  0
 16 10  1  0
 32 17  1  0
 32 24  1  0
M  END
>  <cnnaffinity>  (1) 
-5.18218

>  <filename>  (1) 
c1cncc(Cn2nccc2-c2cccc3cccnc23)c1

$$$$
