
     RDKit          3D

 22 24  0  0  0  0  0  0  0  0999 V2000
    6.7502    3.9876   22.6842 H   0  0  0  0  0  0  0  0  0  0  0  0
    7.0133    3.0027   23.0374 C   0  0  0  0  0  0  0  0  0  0  0  0
    7.2439    2.6243   24.2472 N   0  0  0  0  0  0  0  0  0  0  0  0
    7.5191    1.2753   24.1444 C   0  0  0  0  0  0  0  0  0  0  0  0
    7.7815    0.6255   24.9636 H   0  0  0  0  0  0  0  0  0  0  0  0
    7.4257    0.9236   22.8422 C   0  0  0  0  0  0  0  0  0  0  0  0
    7.6203   -0.2727   22.1906 N   0  0  0  0  0  0  0  0  0  0  0  0
    8.2212   -1.2969   22.8452 N   0  0  0  0  0  0  0  0  0  0  0  0
    8.3432   -2.2481   22.0048 N   0  0  0  0  0  0  0  0  0  0  0  0
    7.8450   -1.9032   20.7962 N   0  0  0  0  0  0  0  0  0  0  0  0
    7.3755   -0.6890   20.9157 C   0  0  0  0  0  0  0  0  0  0  0  0
    6.6375    0.0356   19.8914 C   0  0  0  0  0  0  0  0  0  0  0  0
    7.1583    0.0565   18.5883 C   0  0  0  0  0  0  0  0  0  0  0  0
    8.1041   -0.4378   18.3689 H   0  0  0  0  0  0  0  0  0  0  0  0
    6.5607    0.6746   17.5682 N   0  0  0  0  0  0  0  0  0  0  0  0
    5.3999    1.2963   17.8258 C   0  0  0  0  0  0  0  0  0  0  0  0
    4.9347    1.7936   16.9809 H   0  0  0  0  0  0  0  0  0  0  0  0
    4.7868    1.3083   19.0844 C   0  0  0  0  0  0  0  0  0  0  0  0
    3.8626    1.8476   19.2407 H   0  0  0  0  0  0  0  0  0  0  0  0
    5.4050    0.6528   20.1449 C   0  0  0  0  0  0  0  0  0  0  0  0
    4.9690    0.6429   21.1507 H   0  0  0  0  0  0  0  0  0  0  0  0
    7.1093    2.0143   22.1113 O   0  0  0  0  0  0  0  0  0  0  0  0
  1  2  1  0
  2  3  2  0
  3  4  1  0
  4  5  1  0
  4  6  2  0
  6  7  1  0
  7  8  1  0
  8  9  2  0
  9 10  1  0
 10 11  2  0
 11 12  1  0
 12 13  2  0
 13 14  1  0
 13 15  1  0
 15 16  2  0
 16 17  1  0
 16 18  1  0
 18 19  1  0
 18 20  2  0
 20 21  1  0
  6 22  1  0
 22  2  1  0
 11  7  1  0
 20 12  1  0
M  END
>  <cnnaffinity>  (1) 
-4.3527

>  <filename>  (1) 
c1cncc(-c2nnnn2-c2cnco2)c1

$$$$
