
     RDKit          3D

 19 20  0  0  0  0  0  0  0  0999 V2000
    4.9275    1.8045   16.9786 H   0  0  0  0  0  0  0  0  0  0  0  0
    5.3917    1.3003   17.8260 C   0  0  0  0  0  0  0  0  0  0  0  0
    6.5531    0.6783   17.5692 N   0  0  0  0  0  0  0  0  0  0  0  0
    7.1466    0.0362   18.5820 C   0  0  0  0  0  0  0  0  0  0  0  0
    8.0975   -0.4391   18.3465 H   0  0  0  0  0  0  0  0  0  0  0  0
    6.6218   -0.0356   19.8844 C   0  0  0  0  0  0  0  0  0  0  0  0
    7.5404   -0.8407   21.1807 S   0  0  0  0  0  0  0  0  0  0  0  0
    8.4688    0.5650   21.7143 C   0  0  0  0  0  0  0  0  0  0  0  0
    8.1032    1.5845   22.6294 C   0  0  0  0  0  0  0  0  0  0  0  0
    7.2145    1.6681   23.2429 H   0  0  0  0  0  0  0  0  0  0  0  0
    9.0205    2.5400   22.6706 N   0  0  0  0  0  0  0  0  0  0  0  0
    9.9592    2.1579   21.8024 N   0  0  0  0  0  0  0  0  0  0  0  0
   10.7734    2.7530   21.6895 H   0  0  0  0  0  0  0  0  0  0  0  0
    9.6794    0.9787   21.2091 C   0  0  0  0  0  0  0  0  0  0  0  0
   10.3229    0.4881   20.5051 H   0  0  0  0  0  0  0  0  0  0  0  0
    5.4112    0.6236   20.1413 C   0  0  0  0  0  0  0  0  0  0  0  0
    4.9872    0.6257   21.1456 H   0  0  0  0  0  0  0  0  0  0  0  0
    4.7924    1.3053   19.0901 C   0  0  0  0  0  0  0  0  0  0  0  0
    3.8696    1.8505   19.2413 H   0  0  0  0  0  0  0  0  0  0  0  0
  1  2  1  0
  2  3  2  0
  3  4  1  0
  4  5  1  0
  4  6  2  0
  6  7  1  0
  7  8  1  0
  8  9  1  0
  9 10  1  0
  9 11  2  0
 11 12  1  0
 12 13  1  0
 12 14  1  0
 14 15  1  0
  6 16  1  0
 16 17  1  0
 16 18  2  0
 18 19  1  0
 18  2  1  0
 14  8  2  0
M  END
>  <cnnaffinity>  (1) 
-4.51716

>  <filename>  (1) 
c1cncc(Sc2cn[nH]c2)c1

$$$$
