
     RDKit          3D

 46 50  0  0  0  0  0  0  0  0999 V2000
    4.6836    1.2678   18.7544 C   0  0  0  0  0  0  0  0  0  0  0  0
    5.2890    1.2543   17.4937 C   0  0  0  0  0  0  0  0  0  0  0  0
    6.3463    0.4871   17.1906 N   0  0  0  0  0  0  0  0  0  0  0  0
    6.8772   -0.2402   18.1811 C   0  0  0  0  0  0  0  0  0  0  0  0
    6.4328   -0.2069   19.5136 C   0  0  0  0  0  0  0  0  0  0  0  0
    7.2788   -0.7558   20.6602 C   0  0  0  0  0  0  0  0  0  0  0  0
    8.1390    0.3081   21.2930 C   0  0  0  0  0  0  0  0  0  0  0  0
    9.3678    0.5761   20.9036 N   0  0  0  0  0  0  0  0  0  0  0  0
    9.7320    1.6061   21.7131 N   0  0  0  0  0  0  0  0  0  0  0  0
   11.0978    2.0299   21.8533 C   0  0  0  0  0  0  0  0  0  0  0  0
   11.7032    3.0328   21.0964 C   0  0  0  0  0  0  0  0  0  0  0  0
   12.8358    3.7282   21.5895 C   0  0  0  0  0  0  0  0  0  0  0  0
   13.4926    3.2968   22.7421 C   0  0  0  0  0  0  0  0  0  0  0  0
   13.0186    2.1249   23.3759 C   0  0  0  0  0  0  0  0  0  0  0  0
   11.8402    1.5193   22.9232 C   0  0  0  0  0  0  0  0  0  0  0  0
   11.6501    0.4200   23.7286 N   0  0  0  0  0  0  0  0  0  0  0  0
   12.7046    0.3994   24.5946 C   0  0  0  0  0  0  0  0  0  0  0  0
   13.5304    1.3835   24.4246 N   0  0  0  0  0  0  0  0  0  0  0  0
   12.7748   -0.3571   25.3642 H   0  0  0  0  0  0  0  0  0  0  0  0
   11.0221   -0.3314   23.5159 H   0  0  0  0  0  0  0  0  0  0  0  0
   14.3695    3.8050   23.1278 H   0  0  0  0  0  0  0  0  0  0  0  0
   13.2008    4.6075   21.0590 H   0  0  0  0  0  0  0  0  0  0  0  0
   11.3052    3.2609   20.1165 H   0  0  0  0  0  0  0  0  0  0  0  0
    8.6870    1.9072   22.5442 C   0  0  0  0  0  0  0  0  0  0  0  0
    8.7082    3.0045   23.5644 C   0  0  0  0  0  0  0  0  0  0  0  0
    8.7909    4.4440   23.0050 C   0  0  0  0  0  0  0  0  0  0  0  0
    8.9458    5.5140   24.0660 C   0  0  0  0  0  0  0  0  0  0  0  0
   10.1415    6.0982   24.3626 C   0  0  0  0  0  0  0  0  0  0  0  0
   10.0138    7.3356   25.5502 S   0  0  0  0  0  0  0  0  0  0  0  0
    8.3225    7.0753   25.6860 C   0  0  0  0  0  0  0  0  0  0  0  0
    7.8872    6.0817   24.8610 C   0  0  0  0  0  0  0  0  0  0  0  0
    6.8449    5.7667   24.8246 H   0  0  0  0  0  0  0  0  0  0  0  0
    7.7424    7.6874   26.3646 H   0  0  0  0  0  0  0  0  0  0  0  0
   11.1017    5.8447   23.9338 H   0  0  0  0  0  0  0  0  0  0  0  0
    9.6433    4.5084   22.3193 H   0  0  0  0  0  0  0  0  0  0  0  0
    7.8955    4.6538   22.4040 H   0  0  0  0  0  0  0  0  0  0  0  0
    9.5465    2.8290   24.2463 H   0  0  0  0  0  0  0  0  0  0  0  0
    7.7943    2.8862   24.1483 H   0  0  0  0  0  0  0  0  0  0  0  0
    7.6836    1.0878   22.3096 N   0  0  0  0  0  0  0  0  0  0  0  0
    7.9234   -1.5749   20.3237 H   0  0  0  0  0  0  0  0  0  0  0  0
    6.6267   -1.1378   21.4523 H   0  0  0  0  0  0  0  0  0  0  0  0
    5.2622    0.5177   19.7818 C   0  0  0  0  0  0  0  0  0  0  0  0
    4.8320    0.5115   20.7871 H   0  0  0  0  0  0  0  0  0  0  0  0
    7.7176   -0.8783   17.9072 H   0  0  0  0  0  0  0  0  0  0  0  0
    4.9137    1.8811   16.6866 H   0  0  0  0  0  0  0  0  0  0  0  0
    3.8080    1.8839   18.9247 H   0  0  0  0  0  0  0  0  0  0  0  0
  1  2  2  0
  2  3  1  0
  3  4  2  0
  4  5  1  0
  5  6  1  0
  6  7  1  0
  7  8  2  0
  8  9  1  0
  9 10  1  0
 10 11  2  0
 11 12  1  0
 12 13  2  0
 13 14  1  0
 14 15  2  0
 15 16  1  0
 16 17  1  0
 17 18  2  0
 17 19  1  0
 16 20  1  0
 13 21  1  0
 12 22  1  0
 11 23  1  0
  9 24  1  0
 24 25  1  0
 25 26  1  0
 26 27  1  0
 27 28  2  0
 28 29  1  0
 29 30  1  0
 30 31  2  0
 31 32  1  0
 30 33  1  0
 28 34  1  0
 26 35  1  0
 26 36  1  0
 25 37  1  0
 25 38  1  0
 24 39  2  0
  6 40  1  0
  6 41  1  0
  5 42  2  0
 42 43  1  0
  4 44  1  0
  2 45  1  0
  1 46  1  0
 42  1  1  0
 39  7  1  0
 15 10  1  0
 31 27  1  0
 18 14  1  0
M  END
>  <cnnaffinity>  (1) 
-6.52826

>  <filename>  (1) 
c1cncc(Cc2nc(CCc3ccsc3)n(-c3cccc4nc[nH]c34)n2)c1

$$$$
