
     RDKit          3D

 32 35  0  0  0  0  0  0  0  0999 V2000
    4.7201    1.4056   18.9377 C   0  0  0  0  0  0  0  0  0  0  0  0
    5.4269    1.3240   17.7311 C   0  0  0  0  0  0  0  0  0  0  0  0
    6.5805    0.6548   17.5932 N   0  0  0  0  0  0  0  0  0  0  0  0
    7.0780    0.0612   18.6794 C   0  0  0  0  0  0  0  0  0  0  0  0
    6.4612    0.1033   19.9392 C   0  0  0  0  0  0  0  0  0  0  0  0
    7.1604   -0.5634   21.0325 C   0  0  0  0  0  0  0  0  0  0  0  0
    6.7420   -0.6354   22.2683 N   0  0  0  0  0  0  0  0  0  0  0  0
    7.7385   -1.3860   22.8912 O   0  0  0  0  0  0  0  0  0  0  0  0
    8.6366   -1.6775   21.9618 C   0  0  0  0  0  0  0  0  0  0  0  0
    9.8114   -2.5419   22.2485 C   0  0  0  0  0  0  0  0  0  0  0  0
   11.0334   -1.7935   22.3665 N   0  0  0  0  0  0  0  0  0  0  0  0
   12.0457   -1.9334   21.4871 N   0  0  0  0  0  0  0  0  0  0  0  0
   12.9380   -1.0123   21.7897 C   0  0  0  0  0  0  0  0  0  0  0  0
   12.5062   -0.1984   22.8900 C   0  0  0  0  0  0  0  0  0  0  0  0
   12.9345    0.9626   23.6003 C   0  0  0  0  0  0  0  0  0  0  0  0
   12.1821    1.3424   24.6973 C   0  0  0  0  0  0  0  0  0  0  0  0
   11.0588    0.5939   25.1513 C   0  0  0  0  0  0  0  0  0  0  0  0
   10.5939   -0.5033   24.4587 C   0  0  0  0  0  0  0  0  0  0  0  0
   11.2873   -0.8141   23.2693 C   0  0  0  0  0  0  0  0  0  0  0  0
    9.7451   -1.0938   24.8025 H   0  0  0  0  0  0  0  0  0  0  0  0
   10.5656    0.8963   26.0700 H   0  0  0  0  0  0  0  0  0  0  0  0
   12.4112    2.2455   25.2367 H   0  0  0  0  0  0  0  0  0  0  0  0
   13.7916    1.5543   23.2743 H   0  0  0  0  0  0  0  0  0  0  0  0
   13.8713   -0.9711   21.2422 H   0  0  0  0  0  0  0  0  0  0  0  0
    9.9090   -3.1414   21.3562 H   0  0  0  0  0  0  0  0  0  0  0  0
    9.6436   -3.1835   23.1113 H   0  0  0  0  0  0  0  0  0  0  0  0
    8.3595   -1.1995   20.7963 N   0  0  0  0  0  0  0  0  0  0  0  0
    5.2398    0.7835   20.0721 C   0  0  0  0  0  0  0  0  0  0  0  0
    4.7195    0.8331   21.0318 H   0  0  0  0  0  0  0  0  0  0  0  0
    8.0151   -0.4758   18.5495 H   0  0  0  0  0  0  0  0  0  0  0  0
    5.0487    1.8080   16.8330 H   0  0  0  0  0  0  0  0  0  0  0  0
    3.7895    1.9637   18.9695 H   0  0  0  0  0  0  0  0  0  0  0  0
  1  2  2  0
  2  3  1  0
  3  4  2  0
  4  5  1  0
  5  6  1  0
  6  7  2  0
  7  8  1  0
  8  9  1  0
  9 10  1  0
 10 11  1  0
 11 12  1  0
 12 13  2  0
 13 14  1  0
 14 15  2  0
 15 16  1  0
 16 17  2  0
 17 18  1  0
 18 19  2  0
 18 20  1  0
 17 21  1  0
 16 22  1  0
 15 23  1  0
 13 24  1  0
 10 25  1  0
 10 26  1  0
  9 27  2  0
  5 28  2  0
 28 29  1  0
  4 30  1  0
  2 31  1  0
  1 32  1  0
 28  1  1  0
 27  6  1  0
 19 11  1  0
 19 14  1  0
M  END
>  <cnnaffinity>  (1) 
-5.65311

>  <filename>  (1) 
c1cncc(-c2noc(Cn3ncc4ccccc43)n2)c1

$$$$
