
     RDKit          3D

 50 55  0  0  0  0  0  0  0  0999 V2000
    4.8281    1.2756   18.9823 C   0  0  0  0  0  0  0  0  0  0  0  0
    5.4053    1.2908   17.7093 C   0  0  0  0  0  0  0  0  0  0  0  0
    6.5239    0.6221   17.3924 N   0  0  0  0  0  0  0  0  0  0  0  0
    7.1126   -0.0777   18.3699 C   0  0  0  0  0  0  0  0  0  0  0  0
    6.6288   -0.1567   19.6859 C   0  0  0  0  0  0  0  0  0  0  0  0
    7.4408   -0.7832   20.8073 C   0  0  0  0  0  0  0  0  0  0  0  0
    8.2872    0.2652   21.4592 C   0  0  0  0  0  0  0  0  0  0  0  0
    9.5629    0.4384   21.1670 N   0  0  0  0  0  0  0  0  0  0  0  0
    9.8872    1.5382   21.8982 N   0  0  0  0  0  0  0  0  0  0  0  0
   11.2140    2.0476   21.9646 C   0  0  0  0  0  0  0  0  0  0  0  0
   11.4519    3.4121   22.1318 C   0  0  0  0  0  0  0  0  0  0  0  0
   12.7286    3.9046   22.4541 C   0  0  0  0  0  0  0  0  0  0  0  0
   13.7980    3.0405   22.6662 C   0  0  0  0  0  0  0  0  0  0  0  0
   13.5709    1.6470   22.5547 C   0  0  0  0  0  0  0  0  0  0  0  0
   12.3173    1.1814   22.1132 C   0  0  0  0  0  0  0  0  0  0  0  0
   12.4405   -0.1922   22.0874 N   0  0  0  0  0  0  0  0  0  0  0  0
   13.7023   -0.4881   22.5093 C   0  0  0  0  0  0  0  0  0  0  0  0
   14.4151    0.5694   22.7881 N   0  0  0  0  0  0  0  0  0  0  0  0
   14.0494   -1.5080   22.6345 H   0  0  0  0  0  0  0  0  0  0  0  0
   11.7177   -0.8232   21.7742 H   0  0  0  0  0  0  0  0  0  0  0  0
   14.7915    3.4404   22.8016 H   0  0  0  0  0  0  0  0  0  0  0  0
   12.8669    4.9755   22.5705 H   0  0  0  0  0  0  0  0  0  0  0  0
   10.6334    4.1079   22.0860 H   0  0  0  0  0  0  0  0  0  0  0  0
    8.8100    1.8932   22.6755 C   0  0  0  0  0  0  0  0  0  0  0  0
    8.9701    2.7786   23.8880 C   0  0  0  0  0  0  0  0  0  0  0  0
   10.1967    2.3071   24.7020 C   0  0  0  0  0  0  0  0  0  0  0  0
   10.6229    0.8545   24.6773 C   0  0  0  0  0  0  0  0  0  0  0  0
   10.0648    1.4394   25.9164 C   0  0  0  0  0  0  0  0  0  0  0  0
   10.8291    1.5598   26.6542 H   0  0  0  0  0  0  0  0  0  0  0  0
    9.0850    1.1796   26.3159 H   0  0  0  0  0  0  0  0  0  0  0  0
   10.0149    0.1638   24.1035 H   0  0  0  0  0  0  0  0  0  0  0  0
   11.6921    0.6641   24.6258 H   0  0  0  0  0  0  0  0  0  0  0  0
   11.0167    3.0236   24.6985 H   0  0  0  0  0  0  0  0  0  0  0  0
    8.8676    4.3224   23.5729 C   0  0  0  0  0  0  0  0  0  0  0  0
    7.5198    4.4374   24.3068 C   0  0  0  0  0  0  0  0  0  0  0  0
    7.6714    2.9683   24.7558 C   0  0  0  0  0  0  0  0  0  0  0  0
    6.8367    2.2925   24.5529 H   0  0  0  0  0  0  0  0  0  0  0  0
    7.9221    2.9166   25.8167 H   0  0  0  0  0  0  0  0  0  0  0  0
    7.4866    5.1742   25.1192 H   0  0  0  0  0  0  0  0  0  0  0  0
    6.6667    4.6245   23.6404 H   0  0  0  0  0  0  0  0  0  0  0  0
    9.6816    4.8985   24.0244 H   0  0  0  0  0  0  0  0  0  0  0  0
    8.7820    4.5727   22.5087 H   0  0  0  0  0  0  0  0  0  0  0  0
    7.7767    1.1326   22.3636 N   0  0  0  0  0  0  0  0  0  0  0  0
    8.0945   -1.5921   20.4655 H   0  0  0  0  0  0  0  0  0  0  0  0
    6.7819   -1.1901   21.5801 H   0  0  0  0  0  0  0  0  0  0  0  0
    5.4514    0.5407   19.9908 C   0  0  0  0  0  0  0  0  0  0  0  0
    5.0631    0.5390   21.0131 H   0  0  0  0  0  0  0  0  0  0  0  0
    8.0361   -0.5927   18.1005 H   0  0  0  0  0  0  0  0  0  0  0  0
    4.9561    1.8723   16.9077 H   0  0  0  0  0  0  0  0  0  0  0  0
    3.9309    1.8515   19.1736 H   0  0  0  0  0  0  0  0  0  0  0  0
  1  2  2  0
  2  3  1  0
  3  4  2  0
  4  5  1  0
  5  6  1  0
  6  7  1  0
  7  8  2  0
  8  9  1  0
  9 10  1  0
 10 11  2  0
 11 12  1  0
 12 13  2  0
 13 14  1  0
 14 15  2  0
 15 16  1  0
 16 17  1  0
 17 18  2  0
 17 19  1  0
 16 20  1  0
 13 21  1  0
 12 22  1  0
 11 23  1  0
  9 24  1  0
 24 25  1  0
 25 26  1  0
 26 27  1  0
 27 28  1  0
 28 29  1  0
 28 30  1  0
 27 31  1  0
 27 32  1  0
 26 33  1  0
 25 34  1  0
 34 35  1  0
 35 36  1  0
 36 37  1  0
 36 38  1  0
 35 39  1  0
 35 40  1  0
 34 41  1  0
 34 42  1  0
 24 43  2  0
  6 44  1  0
  6 45  1  0
  5 46  2  0
 46 47  1  0
  4 48  1  0
  2 49  1  0
  1 50  1  0
 46  1  1  0
 43  7  1  0
 15 10  1  0
 36 25  1  0
 18 14  1  0
 28 26  1  0
M  END
>  <cnnaffinity>  (1) 
-6.80883

>  <filename>  (1) 
c1cncc(Cc2nc(C3(C4CC4)CCC3)n(-c3cccc4nc[nH]c34)n2)c1

$$$$
