
     RDKit          3D

 43 45  0  0  0  0  0  0  0  0999 V2000
    4.6108    2.2158   17.1145 H   0  0  0  0  0  0  0  0  0  0  0  0
    5.1261    1.6677   17.8997 C   0  0  0  0  0  0  0  0  0  0  0  0
    6.3290    1.1764   17.5762 N   0  0  0  0  0  0  0  0  0  0  0  0
    7.0108    0.5500   18.5446 C   0  0  0  0  0  0  0  0  0  0  0  0
    7.9900    0.1942   18.2270 H   0  0  0  0  0  0  0  0  0  0  0  0
    6.5503    0.3478   19.8706 C   0  0  0  0  0  0  0  0  0  0  0  0
    7.4801   -0.3233   20.9075 C   0  0  0  0  0  0  0  0  0  0  0  0
    8.6514    0.6422   21.2360 C   0  0  0  0  0  0  0  0  0  0  0  0
    8.2000    1.5485   21.6614 H   0  0  0  0  0  0  0  0  0  0  0  0
    9.0927    0.9647   20.2854 H   0  0  0  0  0  0  0  0  0  0  0  0
    9.7520    0.0929   22.1821 C   0  0  0  0  0  0  0  0  0  0  0  0
    9.5747   -0.9837   22.3550 H   0  0  0  0  0  0  0  0  0  0  0  0
    9.7099    0.7573   23.5789 C   0  0  0  0  0  0  0  0  0  0  0  0
    8.7105    0.6252   24.0174 H   0  0  0  0  0  0  0  0  0  0  0  0
    9.8519    1.8448   23.4542 H   0  0  0  0  0  0  0  0  0  0  0  0
   10.7883    0.1954   24.5209 C   0  0  0  0  0  0  0  0  0  0  0  0
   10.7402    0.6963   25.4962 H   0  0  0  0  0  0  0  0  0  0  0  0
   10.5922   -0.8756   24.7048 H   0  0  0  0  0  0  0  0  0  0  0  0
   12.1842    0.3526   23.8955 C   0  0  0  0  0  0  0  0  0  0  0  0
   12.9588   -0.0354   24.5674 H   0  0  0  0  0  0  0  0  0  0  0  0
   12.3991    1.4256   23.7647 H   0  0  0  0  0  0  0  0  0  0  0  0
   12.2444   -0.3484   22.5287 C   0  0  0  0  0  0  0  0  0  0  0  0
   13.2412   -0.2568   22.0803 H   0  0  0  0  0  0  0  0  0  0  0  0
   12.0689   -1.4275   22.6675 H   0  0  0  0  0  0  0  0  0  0  0  0
   11.1702    0.1855   21.5700 C   0  0  0  0  0  0  0  0  0  0  0  0
   11.2023   -0.4080   20.6457 H   0  0  0  0  0  0  0  0  0  0  0  0
   11.3888    1.2315   21.2936 H   0  0  0  0  0  0  0  0  0  0  0  0
    7.9730   -1.6789   20.3423 C   0  0  0  0  0  0  0  0  0  0  0  0
    7.9955   -1.6027   19.2568 H   0  0  0  0  0  0  0  0  0  0  0  0
    9.0035   -1.8952   20.6384 H   0  0  0  0  0  0  0  0  0  0  0  0
    7.0309   -2.7865   20.8763 C   0  0  0  0  0  0  0  0  0  0  0  0
    6.5076   -3.3307   20.0844 H   0  0  0  0  0  0  0  0  0  0  0  0
    7.6116   -3.5405   21.4186 H   0  0  0  0  0  0  0  0  0  0  0  0
    6.0446   -2.0696   21.8050 C   0  0  0  0  0  0  0  0  0  0  0  0
    5.7338   -2.6743   22.6629 H   0  0  0  0  0  0  0  0  0  0  0  0
    5.1466   -1.8088   21.2440 H   0  0  0  0  0  0  0  0  0  0  0  0
    6.7651   -0.7817   22.1962 C   0  0  0  0  0  0  0  0  0  0  0  0
    6.1216   -0.0046   22.6214 H   0  0  0  0  0  0  0  0  0  0  0  0
    7.5120   -1.0123   22.9635 H   0  0  0  0  0  0  0  0  0  0  0  0
    5.2648    0.8293   20.1546 C   0  0  0  0  0  0  0  0  0  0  0  0
    4.8188    0.6662   21.1350 H   0  0  0  0  0  0  0  0  0  0  0  0
    4.5549    1.5135   19.1617 C   0  0  0  0  0  0  0  0  0  0  0  0
    3.5807    1.9373   19.3662 H   0  0  0  0  0  0  0  0  0  0  0  0
  1  2  1  0
  2  3  2  0
  3  4  1  0
  4  5  1  0
  4  6  2  0
  6  7  1  0
  7  8  1  0
  8  9  1  0
  8 10  1  0
  8 11  1  0
 11 12  1  0
 11 13  1  0
 13 14  1  0
 13 15  1  0
 13 16  1  0
 16 17  1  0
 16 18  1  0
 16 19  1  0
 19 20  1  0
 19 21  1  0
 19 22  1  0
 22 23  1  0
 22 24  1  0
 22 25  1  0
 25 26  1  0
 25 27  1  0
  7 28  1  0
 28 29  1  0
 28 30  1  0
 28 31  1  0
 31 32  1  0
 31 33  1  0
 31 34  1  0
 34 35  1  0
 34 36  1  0
 34 37  1  0
 37 38  1  0
 37 39  1  0
  6 40  1  0
 40 41  1  0
 40 42  2  0
 42 43  1  0
 42  2  1  0
 37  7  1  0
 25 11  1  0
M  END
>  <cnnaffinity>  (1) 
-4.8892

>  <filename>  (1) 
c1cncc(C2(CC3CCCCC3)CCCC2)c1

$$$$
