
     RDKit          3D

 51 55  0  0  0  0  0  0  0  0999 V2000
    4.7019    1.2942   18.7721 C   0  0  0  0  0  0  0  0  0  0  0  0
    5.3138    1.2962   17.5151 C   0  0  0  0  0  0  0  0  0  0  0  0
    6.4279    0.6025   17.2304 N   0  0  0  0  0  0  0  0  0  0  0  0
    6.9969   -0.0744   18.2321 C   0  0  0  0  0  0  0  0  0  0  0  0
    6.5101   -0.0874   19.5484 C   0  0  0  0  0  0  0  0  0  0  0  0
    7.3368   -0.6318   20.6938 C   0  0  0  0  0  0  0  0  0  0  0  0
    8.1871    0.4432   21.3132 C   0  0  0  0  0  0  0  0  0  0  0  0
    7.7195    1.2057   22.2781 N   0  0  0  0  0  0  0  0  0  0  0  0
    8.7846    1.9784   22.6121 N   0  0  0  0  0  0  0  0  0  0  0  0
    8.7513    2.6779   23.9011 C   0  0  0  0  0  0  0  0  0  0  0  0
    9.0370    1.7859   25.1297 C   0  0  0  0  0  0  0  0  0  0  0  0
   10.2501    0.8604   24.9248 C   0  0  0  0  0  0  0  0  0  0  0  0
   10.5162   -0.0465   26.1224 C   0  0  0  0  0  0  0  0  0  0  0  0
    9.2569   -0.8171   26.5568 C   0  0  0  0  0  0  0  0  0  0  0  0
    8.0606    0.1272   26.7962 C   0  0  0  0  0  0  0  0  0  0  0  0
    7.7939    0.9669   25.5363 C   0  0  0  0  0  0  0  0  0  0  0  0
    6.9402    1.6430   25.6949 H   0  0  0  0  0  0  0  0  0  0  0  0
    7.5165    0.2976   24.7065 H   0  0  0  0  0  0  0  0  0  0  0  0
    7.1588   -0.4482   27.0471 H   0  0  0  0  0  0  0  0  0  0  0  0
    8.2547    0.7829   27.6623 H   0  0  0  0  0  0  0  0  0  0  0  0
    8.9901   -1.5201   25.7526 H   0  0  0  0  0  0  0  0  0  0  0  0
    9.4644   -1.4246   27.4462 H   0  0  0  0  0  0  0  0  0  0  0  0
   10.9166    0.5284   26.9586 H   0  0  0  0  0  0  0  0  0  0  0  0
   11.3306   -0.7094   25.8242 H   0  0  0  0  0  0  0  0  0  0  0  0
   11.1497    1.4435   24.6831 H   0  0  0  0  0  0  0  0  0  0  0  0
   10.0603    0.2055   24.0632 H   0  0  0  0  0  0  0  0  0  0  0  0
    9.2718    2.4664   25.9645 H   0  0  0  0  0  0  0  0  0  0  0  0
    9.4763    3.4904   23.8680 H   0  0  0  0  0  0  0  0  0  0  0  0
    7.7541    3.1189   23.9700 H   0  0  0  0  0  0  0  0  0  0  0  0
    9.8503    1.6122   21.8450 C   0  0  0  0  0  0  0  0  0  0  0  0
   11.2033    2.1770   22.1052 C   0  0  0  0  0  0  0  0  0  0  0  0
   11.4520    3.5564   22.3309 C   0  0  0  0  0  0  0  0  0  0  0  0
   12.7207    4.0160   22.7196 C   0  0  0  0  0  0  0  0  0  0  0  0
   13.7833    3.2293   22.9404 N   0  0  0  0  0  0  0  0  0  0  0  0
   13.5223    1.9433   22.7162 C   0  0  0  0  0  0  0  0  0  0  0  0
   12.3227    1.3310   22.2915 C   0  0  0  0  0  0  0  0  0  0  0  0
   12.4949   -0.0455   22.2491 N   0  0  0  0  0  0  0  0  0  0  0  0
   13.7392   -0.2414   22.6018 C   0  0  0  0  0  0  0  0  0  0  0  0
   14.4016    0.9167   22.8950 N   0  0  0  0  0  0  0  0  0  0  0  0
   15.3339    1.0890   23.2117 H   0  0  0  0  0  0  0  0  0  0  0  0
   14.2073   -1.2166   22.6666 H   0  0  0  0  0  0  0  0  0  0  0  0
   12.8742    5.0803   22.8897 H   0  0  0  0  0  0  0  0  0  0  0  0
   10.6604    4.2899   22.2491 H   0  0  0  0  0  0  0  0  0  0  0  0
    9.4797    0.6766   20.9802 N   0  0  0  0  0  0  0  0  0  0  0  0
    6.6866   -1.0191   21.4846 H   0  0  0  0  0  0  0  0  0  0  0  0
    7.9889   -1.4481   20.3667 H   0  0  0  0  0  0  0  0  0  0  0  0
    5.3102    0.5862   19.8079 C   0  0  0  0  0  0  0  0  0  0  0  0
    4.8866    0.5683   20.8151 H   0  0  0  0  0  0  0  0  0  0  0  0
    7.9021   -0.6330   17.9832 H   0  0  0  0  0  0  0  0  0  0  0  0
    4.8975    1.8736   16.6948 H   0  0  0  0  0  0  0  0  0  0  0  0
    3.7960    1.8684   18.9331 H   0  0  0  0  0  0  0  0  0  0  0  0
  1  2  2  0
  2  3  1  0
  3  4  2  0
  4  5  1  0
  5  6  1  0
  6  7  1  0
  7  8  2  0
  8  9  1  0
  9 10  1  0
 10 11  1  0
 11 12  1  0
 12 13  1  0
 13 14  1  0
 14 15  1  0
 15 16  1  0
 16 17  1  0
 16 18  1  0
 15 19  1  0
 15 20  1  0
 14 21  1  0
 14 22  1  0
 13 23  1  0
 13 24  1  0
 12 25  1  0
 12 26  1  0
 11 27  1  0
 10 28  1  0
 10 29  1  0
  9 30  1  0
 30 31  1  0
 31 32  2  0
 32 33  1  0
 33 34  2  0
 34 35  1  0
 35 36  2  0
 36 37  1  0
 37 38  2  0
 38 39  1  0
 39 40  1  0
 38 41  1  0
 33 42  1  0
 32 43  1  0
 30 44  2  0
  6 45  1  0
  6 46  1  0
  5 47  2  0
 47 48  1  0
  4 49  1  0
  2 50  1  0
  1 51  1  0
 47  1  1  0
 44  7  1  0
 16 11  1  0
 36 31  1  0
 39 35  1  0
M  END
>  <cnnaffinity>  (1) 
-7.0217

>  <filename>  (1) 
c1cncc(Cc2nc(-c3ccnc4[nH]cnc34)n(CC3CCCCC3)n2)c1

$$$$
