
     RDKit          3D

 27 29  0  0  0  0  0  0  0  0999 V2000
    4.9550    1.8345   16.9781 H   0  0  0  0  0  0  0  0  0  0  0  0
    5.4042    1.2963   17.8101 C   0  0  0  0  0  0  0  0  0  0  0  0
    6.5634    0.6631   17.5589 N   0  0  0  0  0  0  0  0  0  0  0  0
    7.1707    0.0512   18.5838 C   0  0  0  0  0  0  0  0  0  0  0  0
    8.1061   -0.4603   18.3549 H   0  0  0  0  0  0  0  0  0  0  0  0
    6.6539    0.0310   19.8899 C   0  0  0  0  0  0  0  0  0  0  0  0
    7.5879   -0.7807   21.1781 S   0  0  0  0  0  0  0  0  0  0  0  0
    8.5222    0.4930   21.7899 N   0  0  0  0  0  0  0  0  0  0  0  0
    9.2709    0.8085   21.1974 H   0  0  0  0  0  0  0  0  0  0  0  0
    8.0384    1.4500   22.6806 C   0  0  0  0  0  0  0  0  0  0  0  0
    6.9247    1.2839   23.4273 C   0  0  0  0  0  0  0  0  0  0  0  0
    6.3042    0.3986   23.4462 H   0  0  0  0  0  0  0  0  0  0  0  0
    6.5720    2.6227   24.4627 S   0  0  0  0  0  0  0  0  0  0  0  0
    8.0009    3.4668   23.9121 C   0  0  0  0  0  0  0  0  0  0  0  0
    8.4393    4.7421   24.3193 C   0  0  0  0  0  0  0  0  0  0  0  0
    7.8828    5.3118   25.0555 H   0  0  0  0  0  0  0  0  0  0  0  0
    9.5821    5.2759   23.7372 C   0  0  0  0  0  0  0  0  0  0  0  0
    9.9199    6.2740   24.0153 H   0  0  0  0  0  0  0  0  0  0  0  0
   10.2972    4.5424   22.7717 C   0  0  0  0  0  0  0  0  0  0  0  0
   11.2014    4.9537   22.3310 H   0  0  0  0  0  0  0  0  0  0  0  0
    9.8597    3.2925   22.3473 C   0  0  0  0  0  0  0  0  0  0  0  0
   10.4074    2.7806   21.5531 H   0  0  0  0  0  0  0  0  0  0  0  0
    8.7022    2.7268   22.9285 C   0  0  0  0  0  0  0  0  0  0  0  0
    5.4166    0.6437   20.1224 C   0  0  0  0  0  0  0  0  0  0  0  0
    4.9556    0.6095   21.1086 H   0  0  0  0  0  0  0  0  0  0  0  0
    4.7867    1.3034   19.0652 C   0  0  0  0  0  0  0  0  0  0  0  0
    3.8505    1.8353   19.2074 H   0  0  0  0  0  0  0  0  0  0  0  0
  1  2  1  0
  2  3  2  0
  3  4  1  0
  4  5  1  0
  4  6  2  0
  6  7  1  0
  7  8  1  0
  8  9  1  0
  8 10  1  0
 10 11  2  0
 11 12  1  0
 11 13  1  0
 13 14  1  0
 14 15  2  0
 15 16  1  0
 15 17  1  0
 17 18  1  0
 17 19  2  0
 19 20  1  0
 19 21  1  0
 21 22  1  0
 21 23  2  0
  6 24  1  0
 24 25  1  0
 24 26  2  0
 26 27  1  0
 26  2  1  0
 23 10  1  0
 23 14  1  0
M  END
>  <cnnaffinity>  (1) 
-4.91985

>  <filename>  (1) 
c1cncc(SNc2csc3ccccc23)c1

$$$$
