
     RDKit          3D

 33 35  0  0  0  0  0  0  0  0999 V2000
    5.5776   -1.4101   21.8697 H   0  0  0  0  0  0  0  0  0  0  0  0
    6.6507   -1.4988   21.7679 C   0  0  0  0  0  0  0  0  0  0  0  0
    7.2770   -2.3678   22.5869 N   0  0  0  0  0  0  0  0  0  0  0  0
    8.6071   -2.4674   22.4397 C   0  0  0  0  0  0  0  0  0  0  0  0
    9.1201   -3.1939   23.0648 H   0  0  0  0  0  0  0  0  0  0  0  0
    9.3166   -1.6680   21.4853 C   0  0  0  0  0  0  0  0  0  0  0  0
   10.6797   -1.5925   21.3064 N   0  0  0  0  0  0  0  0  0  0  0  0
   10.7267   -0.8608   20.5987 H   0  0  0  0  0  0  0  0  0  0  0  0
   11.6122   -1.5014   22.4425 C   0  0  0  0  0  0  0  0  0  0  0  0
   11.7264   -2.5054   22.8806 H   0  0  0  0  0  0  0  0  0  0  0  0
   12.5930   -1.2482   22.0310 H   0  0  0  0  0  0  0  0  0  0  0  0
   11.2798   -0.5044   23.5657 C   0  0  0  0  0  0  0  0  0  0  0  0
   10.5192   -0.8690   24.6976 C   0  0  0  0  0  0  0  0  0  0  0  0
   10.1025   -1.8686   24.7877 H   0  0  0  0  0  0  0  0  0  0  0  0
   10.3202    0.0586   25.7268 C   0  0  0  0  0  0  0  0  0  0  0  0
    9.7878   -0.2361   26.6289 H   0  0  0  0  0  0  0  0  0  0  0  0
   10.7960    1.3126   25.7037 N   0  0  0  0  0  0  0  0  0  0  0  0
   11.5084    1.6641   24.6294 C   0  0  0  0  0  0  0  0  0  0  0  0
   11.8931    2.6828   24.6191 H   0  0  0  0  0  0  0  0  0  0  0  0
   11.7893    0.8052   23.5653 C   0  0  0  0  0  0  0  0  0  0  0  0
   12.4139    1.1845   22.7594 H   0  0  0  0  0  0  0  0  0  0  0  0
    8.6759   -0.8915   20.6030 N   0  0  0  0  0  0  0  0  0  0  0  0
    7.3399   -0.7874   20.7497 C   0  0  0  0  0  0  0  0  0  0  0  0
    6.6334    0.0389   19.7415 C   0  0  0  0  0  0  0  0  0  0  0  0
    7.1657    0.1376   18.4418 C   0  0  0  0  0  0  0  0  0  0  0  0
    8.1211   -0.3278   18.2086 H   0  0  0  0  0  0  0  0  0  0  0  0
    6.5588    0.7693   17.4333 N   0  0  0  0  0  0  0  0  0  0  0  0
    5.3960    1.3833   17.6998 C   0  0  0  0  0  0  0  0  0  0  0  0
    4.9315    1.9078   16.8671 H   0  0  0  0  0  0  0  0  0  0  0  0
    4.7955    1.3798   18.9619 C   0  0  0  0  0  0  0  0  0  0  0  0
    3.8679    1.9197   19.1180 H   0  0  0  0  0  0  0  0  0  0  0  0
    5.4206    0.6962   20.0048 C   0  0  0  0  0  0  0  0  0  0  0  0
    4.9846    0.7045   21.0054 H   0  0  0  0  0  0  0  0  0  0  0  0
  1  2  1  0
  2  3  2  0
  3  4  1  0
  4  5  1  0
  4  6  2  0
  6  7  1  0
  7  8  1  0
  7  9  1  0
  9 10  1  0
  9 11  1  0
  9 12  1  0
 12 13  2  0
 13 14  1  0
 13 15  1  0
 15 16  1  0
 15 17  2  0
 17 18  1  0
 18 19  1  0
 18 20  2  0
 20 21  1  0
  6 22  1  0
 22 23  2  0
 23 24  1  0
 24 25  2  0
 25 26  1  0
 25 27  1  0
 27 28  2  0
 28 29  1  0
 28 30  1  0
 30 31  1  0
 30 32  2  0
 32 33  1  0
 23  2  1  0
 32 24  1  0
 20 12  1  0
M  END
>  <cnnaffinity>  (1) 
-5.25472

>  <filename>  (1) 
c1cncc(-c2cncc(NCc3ccncc3)n2)c1

$$$$
