
     RDKit          3D

 28 30  0  0  0  0  0  0  0  0999 V2000
    9.1756   -2.9441   22.0472 H   0  0  0  0  0  0  0  0  0  0  0  0
    8.5517   -2.0691   21.9096 C   0  0  0  0  0  0  0  0  0  0  0  0
    8.2058   -1.2245   22.9277 N   0  0  0  0  0  0  0  0  0  0  0  0
    7.4684   -0.3485   22.2930 C   0  0  0  0  0  0  0  0  0  0  0  0
    6.8611    0.7292   22.7658 O   0  0  0  0  0  0  0  0  0  0  0  0
    7.0685    1.0889   24.1433 C   0  0  0  0  0  0  0  0  0  0  0  0
    6.8797    0.2293   24.7939 H   0  0  0  0  0  0  0  0  0  0  0  0
    6.2998    1.8384   24.3434 H   0  0  0  0  0  0  0  0  0  0  0  0
    8.4327    1.6609   24.4152 C   0  0  0  0  0  0  0  0  0  0  0  0
    8.7773    2.3852   23.6830 H   0  0  0  0  0  0  0  0  0  0  0  0
    8.8083    1.9218   25.8504 C   0  0  0  0  0  0  0  0  0  0  0  0
    9.3997    2.8027   26.0836 H   0  0  0  0  0  0  0  0  0  0  0  0
    8.0878    1.6672   26.6250 H   0  0  0  0  0  0  0  0  0  0  0  0
    9.4670    0.8086   25.0934 C   0  0  0  0  0  0  0  0  0  0  0  0
   10.5065    0.9135   24.8024 H   0  0  0  0  0  0  0  0  0  0  0  0
    9.1711   -0.2100   25.3355 H   0  0  0  0  0  0  0  0  0  0  0  0
    7.3580   -0.6449   20.9592 N   0  0  0  0  0  0  0  0  0  0  0  0
    6.6554    0.0116   19.9100 C   0  0  0  0  0  0  0  0  0  0  0  0
    7.1795    0.0457   18.6020 C   0  0  0  0  0  0  0  0  0  0  0  0
    8.1246   -0.4393   18.3738 H   0  0  0  0  0  0  0  0  0  0  0  0
    6.5719    0.6705   17.5899 N   0  0  0  0  0  0  0  0  0  0  0  0
    5.4042    1.2893   17.8405 C   0  0  0  0  0  0  0  0  0  0  0  0
    4.9233    1.7798   16.9967 H   0  0  0  0  0  0  0  0  0  0  0  0
    4.8068    1.3021   19.1045 C   0  0  0  0  0  0  0  0  0  0  0  0
    3.8779    1.8383   19.2590 H   0  0  0  0  0  0  0  0  0  0  0  0
    5.4343    0.6484   20.1661 C   0  0  0  0  0  0  0  0  0  0  0  0
    5.0122    0.6356   21.1693 H   0  0  0  0  0  0  0  0  0  0  0  0
    8.0899   -1.7751   20.7186 N   0  0  0  0  0  0  0  0  0  0  0  0
  1  2  1  0
  2  3  1  0
  3  4  2  0
  4  5  1  0
  5  6  1  0
  6  7  1  0
  6  8  1  0
  6  9  1  0
  9 10  1  0
  9 11  1  0
 11 12  1  0
 11 13  1  0
 11 14  1  0
 14 15  1  0
 14 16  1  0
  4 17  1  0
 17 18  1  0
 18 19  2  0
 19 20  1  0
 19 21  1  0
 21 22  2  0
 22 23  1  0
 22 24  1  0
 24 25  1  0
 24 26  2  0
 26 27  1  0
 17 28  1  0
 28  2  2  0
 14  9  1  0
 26 18  1  0
M  END
>  <cnnaffinity>  (1) 
-4.59652

>  <filename>  (1) 
c1cncc(-n2ncnc2OCC2CC2)c1

$$$$
