
     RDKit          3D

 33 35  0  0  0  0  0  0  0  0999 V2000
    4.9563    1.8029   16.9625 H   0  0  0  0  0  0  0  0  0  0  0  0
    5.4086    1.2853   17.8047 C   0  0  0  0  0  0  0  0  0  0  0  0
    6.5534    0.6336   17.5591 N   0  0  0  0  0  0  0  0  0  0  0  0
    7.1482    0.0231   18.5934 C   0  0  0  0  0  0  0  0  0  0  0  0
    8.0986   -0.4604   18.3600 H   0  0  0  0  0  0  0  0  0  0  0  0
    6.6582    0.0299   19.9070 C   0  0  0  0  0  0  0  0  0  0  0  0
    7.4029   -0.7580   20.9763 C   0  0  0  0  0  0  0  0  0  0  0  0
    7.1437   -2.1915   20.9074 N   0  0  0  0  0  0  0  0  0  0  0  0
    7.6055   -2.5800   20.0950 H   0  0  0  0  0  0  0  0  0  0  0  0
    5.7634   -2.6153   20.9352 C   0  0  0  0  0  0  0  0  0  0  0  0
    5.2515   -2.1307   21.7764 H   0  0  0  0  0  0  0  0  0  0  0  0
    5.2451   -2.3118   20.0170 H   0  0  0  0  0  0  0  0  0  0  0  0
    5.6507   -4.0353   21.1302 N   0  0  0  0  0  0  0  0  0  0  0  0
    5.6250   -4.6103   22.3655 C   0  0  0  0  0  0  0  0  0  0  0  0
    5.6460   -4.0135   23.2751 H   0  0  0  0  0  0  0  0  0  0  0  0
    5.4561   -5.9035   22.3056 N   0  0  0  0  0  0  0  0  0  0  0  0
    5.3635   -6.1975   20.9640 C   0  0  0  0  0  0  0  0  0  0  0  0
    5.2024   -7.2073   20.6132 H   0  0  0  0  0  0  0  0  0  0  0  0
    5.4917   -5.0609   20.2152 C   0  0  0  0  0  0  0  0  0  0  0  0
    5.4654   -4.8814   19.1449 H   0  0  0  0  0  0  0  0  0  0  0  0
    8.9379   -0.5467   21.0315 C   0  0  0  0  0  0  0  0  0  0  0  0
    9.4928   -1.4767   20.8656 H   0  0  0  0  0  0  0  0  0  0  0  0
    9.3073    0.2177   20.3459 H   0  0  0  0  0  0  0  0  0  0  0  0
    8.8412   -0.0844   22.5064 C   0  0  0  0  0  0  0  0  0  0  0  0
    9.1900    0.9386   22.6769 H   0  0  0  0  0  0  0  0  0  0  0  0
    9.3331   -0.7348   23.2383 H   0  0  0  0  0  0  0  0  0  0  0  0
    7.3007   -0.2355   22.4347 C   0  0  0  0  0  0  0  0  0  0  0  0
    6.7509    0.6999   22.5348 H   0  0  0  0  0  0  0  0  0  0  0  0
    6.8793   -0.9813   23.1151 H   0  0  0  0  0  0  0  0  0  0  0  0
    5.4336    0.6880   20.1293 C   0  0  0  0  0  0  0  0  0  0  0  0
    4.9870    0.7225   21.1243 H   0  0  0  0  0  0  0  0  0  0  0  0
    4.7988    1.3254   19.0622 C   0  0  0  0  0  0  0  0  0  0  0  0
    3.8694    1.8685   19.1985 H   0  0  0  0  0  0  0  0  0  0  0  0
  1  2  1  0
  2  3  2  0
  3  4  1  0
  4  5  1  0
  4  6  2  0
  6  7  1  0
  7  8  1  0
  8  9  1  0
  8 10  1  0
 10 11  1  0
 10 12  1  0
 10 13  1  0
 13 14  1  0
 14 15  1  0
 14 16  2  0
 16 17  1  0
 17 18  1  0
 17 19  2  0
 19 20  1  0
  7 21  1  0
 21 22  1  0
 21 23  1  0
 21 24  1  0
 24 25  1  0
 24 26  1  0
 24 27  1  0
 27 28  1  0
 27 29  1  0
  6 30  1  0
 30 31  1  0
 30 32  2  0
 32 33  1  0
 32  2  1  0
 27  7  1  0
 19 13  1  0
M  END
>  <cnnaffinity>  (1) 
-5.04825

>  <filename>  (1) 
c1cncc(C2(NCn3ccnc3)CCC2)c1

$$$$
