
     RDKit          3D

 52 56  0  0  0  0  0  0  0  0999 V2000
    4.8732    1.3401   18.9082 C   0  0  0  0  0  0  0  0  0  0  0  0
    5.4131    1.2384   17.6225 C   0  0  0  0  0  0  0  0  0  0  0  0
    6.5300    0.5490   17.3433 N   0  0  0  0  0  0  0  0  0  0  0  0
    7.1581   -0.0405   18.3684 C   0  0  0  0  0  0  0  0  0  0  0  0
    6.7246    0.0215   19.7036 C   0  0  0  0  0  0  0  0  0  0  0  0
    7.5498   -0.5167   20.8620 C   0  0  0  0  0  0  0  0  0  0  0  0
    8.1638    0.5799   21.6787 C   0  0  0  0  0  0  0  0  0  0  0  0
    9.2730    1.1941   21.3094 N   0  0  0  0  0  0  0  0  0  0  0  0
    9.5159    2.0193   22.3603 N   0  0  0  0  0  0  0  0  0  0  0  0
   10.9161    2.5117   22.6390 C   0  0  0  0  0  0  0  0  0  0  0  0
   11.4026    3.8568   22.1536 C   0  0  0  0  0  0  0  0  0  0  0  0
   12.6424    4.2656   22.1740 C   0  0  0  0  0  0  0  0  0  0  0  0
   13.6520    3.2589   22.5162 C   0  0  0  0  0  0  0  0  0  0  0  0
   13.3382    1.8998   22.6013 C   0  0  0  0  0  0  0  0  0  0  0  0
   14.3684    0.9172   22.7347 C   0  0  0  0  0  0  0  0  0  0  0  0
   14.0543   -0.4145   22.6244 C   0  0  0  0  0  0  0  0  0  0  0  0
   12.8014   -0.8622   22.3669 N   0  0  0  0  0  0  0  0  0  0  0  0
   11.8334    0.0507   22.2779 C   0  0  0  0  0  0  0  0  0  0  0  0
   12.0112    1.4402   22.4476 C   0  0  0  0  0  0  0  0  0  0  0  0
   10.8495   -0.3342   22.0251 H   0  0  0  0  0  0  0  0  0  0  0  0
   14.8219   -1.1816   22.7007 H   0  0  0  0  0  0  0  0  0  0  0  0
   15.3731    1.2923   22.8070 H   0  0  0  0  0  0  0  0  0  0  0  0
   14.6908    3.5462   22.5885 H   0  0  0  0  0  0  0  0  0  0  0  0
   13.0391    5.2993   21.9633 H   0  0  0  0  0  0  0  0  0  0  0  0
   10.9477    2.9321   23.6874 H   0  0  0  0  0  0  0  0  0  0  0  0
    8.4944    1.9198   23.2605 C   0  0  0  0  0  0  0  0  0  0  0  0
    8.2772    2.7556   24.4743 C   0  0  0  0  0  0  0  0  0  0  0  0
    7.2131    3.8631   24.2894 C   0  0  0  0  0  0  0  0  0  0  0  0
    7.3340    4.6982   22.9876 C   0  0  0  0  0  0  0  0  0  0  0  0
    7.9643    6.0766   23.2088 C   0  0  0  0  0  0  0  0  0  0  0  0
    7.2063    6.8603   24.2948 C   0  0  0  0  0  0  0  0  0  0  0  0
    6.6736    5.9284   25.4152 C   0  0  0  0  0  0  0  0  0  0  0  0
    7.3201    4.6650   25.4603 O   0  0  0  0  0  0  0  0  0  0  0  0
    5.5831    5.8040   25.3004 H   0  0  0  0  0  0  0  0  0  0  0  0
    6.8407    6.3713   26.4016 H   0  0  0  0  0  0  0  0  0  0  0  0
    7.8611    7.6325   24.7144 H   0  0  0  0  0  0  0  0  0  0  0  0
    6.3483    7.3930   23.8659 H   0  0  0  0  0  0  0  0  0  0  0  0
    9.0104    5.9634   23.5118 H   0  0  0  0  0  0  0  0  0  0  0  0
    7.9723    6.6319   22.2644 H   0  0  0  0  0  0  0  0  0  0  0  0
    6.3222    4.8244   22.5780 H   0  0  0  0  0  0  0  0  0  0  0  0
    7.8888    4.1377   22.2290 H   0  0  0  0  0  0  0  0  0  0  0  0
    6.2288    3.3637   24.2842 H   0  0  0  0  0  0  0  0  0  0  0  0
    7.9158    2.0805   25.2513 H   0  0  0  0  0  0  0  0  0  0  0  0
    9.2050    3.1920   24.8458 H   0  0  0  0  0  0  0  0  0  0  0  0
    7.6359    1.0000   22.8519 N   0  0  0  0  0  0  0  0  0  0  0  0
    6.9368   -1.1100   21.5487 H   0  0  0  0  0  0  0  0  0  0  0  0
    8.3584   -1.1577   20.4989 H   0  0  0  0  0  0  0  0  0  0  0  0
    5.5404    0.7221   19.9667 C   0  0  0  0  0  0  0  0  0  0  0  0
    5.1681    0.7928   20.9917 H   0  0  0  0  0  0  0  0  0  0  0  0
    8.0738   -0.5804   18.1208 H   0  0  0  0  0  0  0  0  0  0  0  0
    4.9398    1.7454   16.7836 H   0  0  0  0  0  0  0  0  0  0  0  0
    3.9706    1.9191   19.0684 H   0  0  0  0  0  0  0  0  0  0  0  0
  1  2  2  0
  2  3  1  0
  3  4  2  0
  4  5  1  0
  5  6  1  0
  6  7  1  0
  7  8  2  0
  8  9  1  0
  9 10  1  0
 10 11  2  0
 11 12  1  0
 12 13  2  0
 13 14  1  0
 14 15  2  0
 15 16  1  0
 16 17  2  0
 17 18  1  0
 18 19  2  0
 18 20  1  0
 16 21  1  0
 15 22  1  0
 13 23  1  0
 12 24  1  0
 11 25  1  0
  9 26  1  0
 26 27  1  0
 27 28  1  0
 28 29  1  0
 29 30  1  0
 30 31  1  0
 31 32  1  0
 32 33  1  0
 32 34  1  0
 32 35  1  0
 31 36  1  0
 31 37  1  0
 30 38  1  0
 30 39  1  0
 29 40  1  0
 29 41  1  0
 28 42  1  0
 27 43  1  0
 27 44  1  0
 26 45  2  0
  6 46  1  0
  6 47  1  0
  5 48  2  0
 48 49  1  0
  4 50  1  0
  2 51  1  0
  1 52  1  0
 48  1  1  0
 45  7  1  0
 19 10  1  0
 33 28  1  0
 19 14  1  0
M  END
>  <cnnaffinity>  (1) 
-6.28161

>  <filename>  (1) 
c1cncc(Cc2nc(CC3CCCCO3)n(-c3cccc4ccncc34)n2)c1

$$$$
