
     RDKit          3D

 51 56  0  0  0  0  0  0  0  0999 V2000
    4.6886    1.3725   18.8052 C   0  0  0  0  0  0  0  0  0  0  0  0
    5.3227    1.3133   17.5588 C   0  0  0  0  0  0  0  0  0  0  0  0
    6.4081    0.5650   17.3141 N   0  0  0  0  0  0  0  0  0  0  0  0
    6.9237   -0.1168   18.3449 C   0  0  0  0  0  0  0  0  0  0  0  0
    6.4069   -0.0853   19.6525 C   0  0  0  0  0  0  0  0  0  0  0  0
    7.1534   -0.6765   20.8333 C   0  0  0  0  0  0  0  0  0  0  0  0
    8.0059    0.3573   21.5085 C   0  0  0  0  0  0  0  0  0  0  0  0
    7.7275    0.9006   22.6718 N   0  0  0  0  0  0  0  0  0  0  0  0
    8.7908    1.7310   22.8821 N   0  0  0  0  0  0  0  0  0  0  0  0
    8.8087    2.6554   23.9687 C   0  0  0  0  0  0  0  0  0  0  0  0
    9.1523    3.9864   23.7534 C   0  0  0  0  0  0  0  0  0  0  0  0
    9.0158    4.9207   24.8085 C   0  0  0  0  0  0  0  0  0  0  0  0
    8.5724    4.6285   26.0170 N   0  0  0  0  0  0  0  0  0  0  0  0
    8.2744    3.3101   26.2572 C   0  0  0  0  0  0  0  0  0  0  0  0
    7.7676    2.9427   27.5387 C   0  0  0  0  0  0  0  0  0  0  0  0
    7.5965    1.6091   27.8506 C   0  0  0  0  0  0  0  0  0  0  0  0
    7.9019    0.6211   26.8752 C   0  0  0  0  0  0  0  0  0  0  0  0
    8.3202    0.9042   25.6523 N   0  0  0  0  0  0  0  0  0  0  0  0
    8.4441    2.2302   25.3000 C   0  0  0  0  0  0  0  0  0  0  0  0
    7.7789   -0.4345   27.1072 H   0  0  0  0  0  0  0  0  0  0  0  0
    7.2623    1.2882   28.8317 H   0  0  0  0  0  0  0  0  0  0  0  0
    7.5636    3.7560   28.2321 H   0  0  0  0  0  0  0  0  0  0  0  0
    9.2730    5.9640   24.6304 H   0  0  0  0  0  0  0  0  0  0  0  0
    9.4678    4.3365   22.7759 H   0  0  0  0  0  0  0  0  0  0  0  0
    9.6552    1.6131   21.8305 C   0  0  0  0  0  0  0  0  0  0  0  0
   11.1082    1.9726   21.8923 C   0  0  0  0  0  0  0  0  0  0  0  0
   11.8078    0.9324   22.7499 C   0  0  0  0  0  0  0  0  0  0  0  0
   11.6626    1.0742   24.2619 C   0  0  0  0  0  0  0  0  0  0  0  0
   12.8979    0.3622   24.8553 C   0  0  0  0  0  0  0  0  0  0  0  0
   13.9316    0.3184   23.7189 C   0  0  0  0  0  0  0  0  0  0  0  0
   13.1441    0.3557   22.4409 C   0  0  0  0  0  0  0  0  0  0  0  0
   11.9101   -0.4837   22.2439 C   0  0  0  0  0  0  0  0  0  0  0  0
   11.6971   -1.3112   22.9202 H   0  0  0  0  0  0  0  0  0  0  0  0
   11.5682   -0.6516   21.2238 H   0  0  0  0  0  0  0  0  0  0  0  0
   13.7461    0.6347   21.5904 H   0  0  0  0  0  0  0  0  0  0  0  0
   14.5074    1.2467   23.7300 H   0  0  0  0  0  0  0  0  0  0  0  0
   14.6599   -0.4977   23.7266 H   0  0  0  0  0  0  0  0  0  0  0  0
   12.5932   -0.6169   25.2124 H   0  0  0  0  0  0  0  0  0  0  0  0
   13.3079    0.8438   25.7319 H   0  0  0  0  0  0  0  0  0  0  0  0
   10.7258    0.6126   24.6049 H   0  0  0  0  0  0  0  0  0  0  0  0
   11.6328    2.1372   24.5317 H   0  0  0  0  0  0  0  0  0  0  0  0
   11.2659    2.9640   22.3167 H   0  0  0  0  0  0  0  0  0  0  0  0
   11.4944    1.9711   20.8692 H   0  0  0  0  0  0  0  0  0  0  0  0
    9.1646    0.7816   20.9356 N   0  0  0  0  0  0  0  0  0  0  0  0
    6.4627   -1.0774   21.5812 H   0  0  0  0  0  0  0  0  0  0  0  0
    7.8176   -1.4861   20.5128 H   0  0  0  0  0  0  0  0  0  0  0  0
    5.2434    0.6596   19.8696 C   0  0  0  0  0  0  0  0  0  0  0  0
    4.7934    0.6857   20.8657 H   0  0  0  0  0  0  0  0  0  0  0  0
    7.8081   -0.7167   18.1280 H   0  0  0  0  0  0  0  0  0  0  0  0
    4.9425    1.8877   16.7166 H   0  0  0  0  0  0  0  0  0  0  0  0
    3.8064    1.9892   18.9326 H   0  0  0  0  0  0  0  0  0  0  0  0
  1  2  2  0
  2  3  1  0
  3  4  2  0
  4  5  1  0
  5  6  1  0
  6  7  1  0
  7  8  2  0
  8  9  1  0
  9 10  1  0
 10 11  2  0
 11 12  1  0
 12 13  2  0
 13 14  1  0
 14 15  2  0
 15 16  1  0
 16 17  2  0
 17 18  1  0
 18 19  2  0
 17 20  1  0
 16 21  1  0
 15 22  1  0
 12 23  1  0
 11 24  1  0
  9 25  1  0
 25 26  1  0
 26 27  1  0
 27 28  1  0
 28 29  1  0
 29 30  1  0
 30 31  1  0
 31 32  1  0
 32 33  1  0
 32 34  1  0
 31 35  1  0
 30 36  1  0
 30 37  1  0
 29 38  1  0
 29 39  1  0
 28 40  1  0
 28 41  1  0
 26 42  1  0
 26 43  1  0
 25 44  2  0
  6 45  1  0
  6 46  1  0
  5 47  2  0
 47 48  1  0
  4 49  1  0
  2 50  1  0
  1 51  1  0
 47  1  1  0
 44  7  1  0
 19 10  1  0
 31 27  1  0
 19 14  1  0
 32 27  1  0
M  END
>  <cnnaffinity>  (1) 
-6.27198

>  <filename>  (1) 
c1cncc(Cc2nc(CC34CCCC3C4)n(-c3ccnc4cccnc34)n2)c1

$$$$
