
     RDKit          3D

 30 33  0  0  0  0  0  0  0  0999 V2000
    4.8380    1.3372   19.1294 C   0  0  0  0  0  0  0  0  0  0  0  0
    5.4551    1.2945   17.8744 C   0  0  0  0  0  0  0  0  0  0  0  0
    6.6118    0.6478   17.6481 N   0  0  0  0  0  0  0  0  0  0  0  0
    7.1995    0.0560   18.6855 C   0  0  0  0  0  0  0  0  0  0  0  0
    6.7009    0.1269   20.0003 C   0  0  0  0  0  0  0  0  0  0  0  0
    7.4401   -0.5329   21.0067 N   0  0  0  0  0  0  0  0  0  0  0  0
    8.0198   -1.7050   20.6869 N   0  0  0  0  0  0  0  0  0  0  0  0
    8.4666   -2.1999   21.8274 C   0  0  0  0  0  0  0  0  0  0  0  0
    8.1957   -1.3486   22.9077 C   0  0  0  0  0  0  0  0  0  0  0  0
    7.5547   -0.2593   22.3479 C   0  0  0  0  0  0  0  0  0  0  0  0
    6.9921    0.9227   23.0120 C   0  0  0  0  0  0  0  0  0  0  0  0
    6.1866    0.8076   24.0407 N   0  0  0  0  0  0  0  0  0  0  0  0
    5.8246    2.0389   24.4742 N   0  0  0  0  0  0  0  0  0  0  0  0
    6.4378    2.9185   23.7065 C   0  0  0  0  0  0  0  0  0  0  0  0
    6.4332    4.3475   23.7643 C   0  0  0  0  0  0  0  0  0  0  0  0
    7.1642    5.0351   22.8396 C   0  0  0  0  0  0  0  0  0  0  0  0
    7.9115    4.3424   21.8211 C   0  0  0  0  0  0  0  0  0  0  0  0
    7.9559    2.9762   21.7913 C   0  0  0  0  0  0  0  0  0  0  0  0
    7.2124    2.2672   22.7365 N   0  0  0  0  0  0  0  0  0  0  0  0
    8.5630    2.4131   21.0885 H   0  0  0  0  0  0  0  0  0  0  0  0
    8.4203    4.9361   21.0689 H   0  0  0  0  0  0  0  0  0  0  0  0
    7.2041    6.1202   22.8569 H   0  0  0  0  0  0  0  0  0  0  0  0
    5.8733    4.8003   24.5731 H   0  0  0  0  0  0  0  0  0  0  0  0
    8.4043   -1.5302   23.9509 H   0  0  0  0  0  0  0  0  0  0  0  0
    8.9369   -3.1745   21.8479 H   0  0  0  0  0  0  0  0  0  0  0  0
    5.4662    0.7404   20.2278 C   0  0  0  0  0  0  0  0  0  0  0  0
    4.9999    0.7032   21.2152 H   0  0  0  0  0  0  0  0  0  0  0  0
    8.0963   -0.5313   18.5003 H   0  0  0  0  0  0  0  0  0  0  0  0
    4.9977    1.7755   17.0129 H   0  0  0  0  0  0  0  0  0  0  0  0
    3.8796    1.8306   19.2354 H   0  0  0  0  0  0  0  0  0  0  0  0
  1  2  2  0
  2  3  1  0
  3  4  2  0
  4  5  1  0
  5  6  1  0
  6  7  1  0
  7  8  2  0
  8  9  1  0
  9 10  2  0
 10 11  1  0
 11 12  2  0
 12 13  1  0
 13 14  2  0
 14 15  1  0
 15 16  2  0
 16 17  1  0
 17 18  2  0
 18 19  1  0
 18 20  1  0
 17 21  1  0
 16 22  1  0
 15 23  1  0
  9 24  1  0
  8 25  1  0
  5 26  2  0
 26 27  1  0
  4 28  1  0
  2 29  1  0
  1 30  1  0
 26  1  1  0
 10  6  1  0
 19 11  1  0
 19 14  1  0
M  END
>  <cnnaffinity>  (1) 
-5.27496

>  <filename>  (1) 
c1cncc(-n2nccc2-c2nnc3ccccn23)c1

$$$$
