
     RDKit          3D

 44 47  0  0  0  0  0  0  0  0999 V2000
    4.9080    1.8687   16.9563 H   0  0  0  0  0  0  0  0  0  0  0  0
    5.3661    1.3180   17.7730 C   0  0  0  0  0  0  0  0  0  0  0  0
    6.5193    0.6902   17.4860 N   0  0  0  0  0  0  0  0  0  0  0  0
    7.1293    0.0357   18.4829 C   0  0  0  0  0  0  0  0  0  0  0  0
    8.0897   -0.4124   18.2186 H   0  0  0  0  0  0  0  0  0  0  0  0
    6.6279   -0.0515   19.8009 C   0  0  0  0  0  0  0  0  0  0  0  0
    7.3752   -0.6859   20.9160 C   0  0  0  0  0  0  0  0  0  0  0  0
    7.5779   -0.2291   22.2037 C   0  0  0  0  0  0  0  0  0  0  0  0
    8.5024   -1.0922   22.7835 C   0  0  0  0  0  0  0  0  0  0  0  0
    8.8608   -2.0742   21.9743 N   0  0  0  0  0  0  0  0  0  0  0  0
    8.1677   -1.8036   20.8365 N   0  0  0  0  0  0  0  0  0  0  0  0
    8.3646   -2.3647   20.0196 H   0  0  0  0  0  0  0  0  0  0  0  0
    8.9757   -0.6146   24.1272 C   0  0  0  0  0  0  0  0  0  0  0  0
   10.0217   -0.2935   24.0864 H   0  0  0  0  0  0  0  0  0  0  0  0
    8.9445   -1.3975   24.8857 H   0  0  0  0  0  0  0  0  0  0  0  0
    8.0503    0.6155   24.4188 C   0  0  2  0  0  0  0  0  0  0  0  0
    8.6912    1.4674   24.6731 H   0  0  0  0  0  0  0  0  0  0  0  0
    7.0936    0.4516   25.6220 C   0  0  0  0  0  0  0  0  0  0  0  0
    7.6771    0.2015   26.5231 H   0  0  0  0  0  0  0  0  0  0  0  0
    6.6781    1.4490   25.8198 H   0  0  0  0  0  0  0  0  0  0  0  0
    5.9113   -0.5294   25.4956 C   0  0  0  0  0  0  0  0  0  0  0  0
    5.5074   -0.4566   24.4777 H   0  0  0  0  0  0  0  0  0  0  0  0
    6.3060   -1.9986   25.7254 C   0  0  0  0  0  0  0  0  0  0  0  0
    6.8037   -2.0815   26.7048 H   0  0  0  0  0  0  0  0  0  0  0  0
    7.0391   -2.3004   24.9720 H   0  0  0  0  0  0  0  0  0  0  0  0
    5.1064   -2.9581   25.6956 C   0  0  0  0  0  0  0  0  0  0  0  0
    4.6983   -2.9897   24.6749 H   0  0  0  0  0  0  0  0  0  0  0  0
    5.4362   -3.9787   25.9255 H   0  0  0  0  0  0  0  0  0  0  0  0
    3.9957   -2.5217   26.6620 C   0  0  0  0  0  0  0  0  0  0  0  0
    4.3653   -2.5968   27.6962 H   0  0  0  0  0  0  0  0  0  0  0  0
    3.1371   -3.1997   26.5906 H   0  0  0  0  0  0  0  0  0  0  0  0
    3.5644   -1.0744   26.3878 C   0  0  0  0  0  0  0  0  0  0  0  0
    3.1052   -1.0173   25.3897 H   0  0  0  0  0  0  0  0  0  0  0  0
    2.7932   -0.7587   27.1012 H   0  0  0  0  0  0  0  0  0  0  0  0
    4.7637   -0.1199   26.4470 C   0  0  0  0  0  0  0  0  0  0  0  0
    4.4386    0.9020   26.2092 H   0  0  0  0  0  0  0  0  0  0  0  0
    5.1489   -0.0973   27.4778 H   0  0  0  0  0  0  0  0  0  0  0  0
    7.3048    0.9565   23.0786 C   0  0  0  0  0  0  0  0  0  0  0  0
    7.7034    1.8855   22.6419 H   0  0  0  0  0  0  0  0  0  0  0  0
    6.2320    1.1198   23.2359 H   0  0  0  0  0  0  0  0  0  0  0  0
    5.4173    0.6183   20.0659 C   0  0  0  0  0  0  0  0  0  0  0  0
    4.9952    0.6128   21.0692 H   0  0  0  0  0  0  0  0  0  0  0  0
    4.7736    1.3081   19.0365 C   0  0  0  0  0  0  0  0  0  0  0  0
    3.8575    1.8639   19.2084 H   0  0  0  0  0  0  0  0  0  0  0  0
  1  2  1  0
  2  3  2  0
  3  4  1  0
  4  5  1  0
  4  6  2  0
  6  7  1  0
  7  8  2  0
  8  9  1  0
  9 10  2  0
 10 11  1  0
 11 12  1  0
  9 13  1  0
 13 14  1  0
 13 15  1  0
 13 16  1  0
 16 17  1  1
 16 18  1  0
 18 19  1  0
 18 20  1  0
 18 21  1  0
 21 22  1  0
 21 23  1  0
 23 24  1  0
 23 25  1  0
 23 26  1  0
 26 27  1  0
 26 28  1  0
 26 29  1  0
 29 30  1  0
 29 31  1  0
 29 32  1  0
 32 33  1  0
 32 34  1  0
 32 35  1  0
 35 36  1  0
 35 37  1  0
 16 38  1  0
 38 39  1  0
 38 40  1  0
  6 41  1  0
 41 42  1  0
 41 43  2  0
 43 44  1  0
 43  2  1  0
 11  7  1  0
 35 21  1  0
 38  8  1  0
M  END
>  <cnnaffinity>  (1) 
-5.50314

>  <filename>  (1) 
c1cncc(-c2[nH]nc3c2C[C@@H](CC2CCCCC2)C3)c1

$$$$
