
     RDKit          3D

 23 25  0  0  0  0  0  0  0  0999 V2000
    4.9267    1.7754   16.9998 H   0  0  0  0  0  0  0  0  0  0  0  0
    5.4106    1.2873   17.8415 C   0  0  0  0  0  0  0  0  0  0  0  0
    6.5728    0.6696   17.5838 N   0  0  0  0  0  0  0  0  0  0  0  0
    7.1801    0.0570   18.6011 C   0  0  0  0  0  0  0  0  0  0  0  0
    8.1265   -0.4291   18.3723 H   0  0  0  0  0  0  0  0  0  0  0  0
    6.6442    0.0209   19.8930 C   0  0  0  0  0  0  0  0  0  0  0  0
    7.3397   -0.6746   20.9606 C   0  0  0  0  0  0  0  0  0  0  0  0
    6.9446   -0.7801   22.1947 N   0  0  0  0  0  0  0  0  0  0  0  0
    7.9565   -1.5257   22.7565 C   0  0  0  0  0  0  0  0  0  0  0  0
    7.9765   -1.9272   24.1883 C   0  0  0  0  0  0  0  0  0  0  0  0
    8.9141   -2.6390   24.7817 N   0  0  0  0  0  0  0  0  0  0  0  0
    8.5321   -2.7674   26.0795 C   0  0  0  0  0  0  0  0  0  0  0  0
    9.1465   -3.3168   26.7741 H   0  0  0  0  0  0  0  0  0  0  0  0
    7.3395   -2.1304   26.3039 C   0  0  0  0  0  0  0  0  0  0  0  0
    6.7501   -2.0309   27.2081 H   0  0  0  0  0  0  0  0  0  0  0  0
    6.9939   -1.5976   25.0890 N   0  0  0  0  0  0  0  0  0  0  0  0
    6.1732   -1.0606   24.8685 H   0  0  0  0  0  0  0  0  0  0  0  0
    8.9055   -1.8563   21.9123 N   0  0  0  0  0  0  0  0  0  0  0  0
    8.4969   -1.2908   20.7234 O   0  0  0  0  0  0  0  0  0  0  0  0
    5.4266    0.6600   20.1600 C   0  0  0  0  0  0  0  0  0  0  0  0
    5.0021    0.6348   21.1707 H   0  0  0  0  0  0  0  0  0  0  0  0
    4.8024    1.3117   19.1048 C   0  0  0  0  0  0  0  0  0  0  0  0
    3.8704    1.8462   19.2561 H   0  0  0  0  0  0  0  0  0  0  0  0
  1  2  1  0
  2  3  2  0
  3  4  1  0
  4  5  1  0
  4  6  2  0
  6  7  1  0
  7  8  2  0
  8  9  1  0
  9 10  1  0
 10 11  2  0
 11 12  1  0
 12 13  1  0
 12 14  2  0
 14 15  1  0
 14 16  1  0
 16 17  1  0
  9 18  2  0
 18 19  1  0
  6 20  1  0
 20 21  1  0
 20 22  2  0
 22 23  1  0
 22  2  1  0
 19  7  1  0
 16 10  1  0
M  END
>  <cnnaffinity>  (1) 
-4.52359

>  <filename>  (1) 
c1cncc(-c2nc(-c3ncc[nH]3)no2)c1

$$$$
