
     RDKit          3D

 29 31  0  0  0  0  0  0  0  0999 V2000
    4.9466    2.1424   16.2663 H   0  0  0  0  0  0  0  0  0  0  0  0
    5.2016    1.7221   17.2328 C   0  0  0  0  0  0  0  0  0  0  0  0
    6.4164    1.1577   17.3229 N   0  0  0  0  0  0  0  0  0  0  0  0
    6.7699    0.6612   18.5150 C   0  0  0  0  0  0  0  0  0  0  0  0
    7.7638    0.2228   18.5827 H   0  0  0  0  0  0  0  0  0  0  0  0
    5.9454    0.6725   19.6740 C   0  0  0  0  0  0  0  0  0  0  0  0
    6.3698    0.1592   20.9112 N   0  0  0  0  0  0  0  0  0  0  0  0
    5.6899   -0.2842   21.5089 H   0  0  0  0  0  0  0  0  0  0  0  0
    7.7129    0.0292   21.2971 C   0  0  0  0  0  0  0  0  0  0  0  0
    8.6269    1.0846   20.9900 C   0  0  0  0  0  0  0  0  0  0  0  0
    8.2254    1.9568   20.4877 H   0  0  0  0  0  0  0  0  0  0  0  0
    9.9639    0.9657   21.2572 C   0  0  0  0  0  0  0  0  0  0  0  0
   10.6503    1.7891   21.0661 H   0  0  0  0  0  0  0  0  0  0  0  0
   10.4746   -0.2568   21.7790 C   0  0  0  0  0  0  0  0  0  0  0  0
   11.8699   -0.4825   21.9191 C   0  0  0  0  0  0  0  0  0  0  0  0
   12.5504    0.3270   21.6886 H   0  0  0  0  0  0  0  0  0  0  0  0
   12.3449   -1.6904   22.3560 C   0  0  0  0  0  0  0  0  0  0  0  0
   13.4168   -1.8550   22.4261 H   0  0  0  0  0  0  0  0  0  0  0  0
   11.4354   -2.7074   22.7598 C   0  0  0  0  0  0  0  0  0  0  0  0
   11.8186   -3.6143   23.2123 H   0  0  0  0  0  0  0  0  0  0  0  0
   10.0797   -2.5277   22.6510 C   0  0  0  0  0  0  0  0  0  0  0  0
    9.3875   -3.3154   22.9298 H   0  0  0  0  0  0  0  0  0  0  0  0
    9.5585   -1.3050   22.1321 C   0  0  0  0  0  0  0  0  0  0  0  0
    8.1619   -1.1052   21.9274 C   0  0  0  0  0  0  0  0  0  0  0  0
    7.4577   -1.8650   22.2565 H   0  0  0  0  0  0  0  0  0  0  0  0
    4.6717    1.2446   19.5395 C   0  0  0  0  0  0  0  0  0  0  0  0
    4.0205    1.3133   20.4093 H   0  0  0  0  0  0  0  0  0  0  0  0
    4.3011    1.7779   18.3020 C   0  0  0  0  0  0  0  0  0  0  0  0
    3.3308    2.2423   18.1623 H   0  0  0  0  0  0  0  0  0  0  0  0
  1  2  1  0
  2  3  2  0
  3  4  1  0
  4  5  1  0
  4  6  2  0
  6  7  1  0
  7  8  1  0
  7  9  1  0
  9 10  2  0
 10 11  1  0
 10 12  1  0
 12 13  1  0
 12 14  2  0
 14 15  1  0
 15 16  1  0
 15 17  2  0
 17 18  1  0
 17 19  1  0
 19 20  1  0
 19 21  2  0
 21 22  1  0
 21 23  1  0
 23 24  2  0
 24 25  1  0
  6 26  1  0
 26 27  1  0
 26 28  2  0
 28 29  1  0
 28  2  1  0
 24  9  1  0
 23 14  1  0
M  END
>  <cnnaffinity>  (1) 
-4.94339

>  <filename>  (1) 
c1cncc(Nc2ccc3ccccc3c2)c1

$$$$
