
     RDKit          3D

 42 46  0  0  0  0  0  0  0  0999 V2000
    4.7845    1.3218   19.0148 C   0  0  0  0  0  0  0  0  0  0  0  0
    5.3998    1.3053   17.7605 C   0  0  0  0  0  0  0  0  0  0  0  0
    6.5374    0.6419   17.5012 N   0  0  0  0  0  0  0  0  0  0  0  0
    7.1169   -0.0050   18.5210 C   0  0  0  0  0  0  0  0  0  0  0  0
    6.6134   -0.0238   19.8350 C   0  0  0  0  0  0  0  0  0  0  0  0
    7.3765   -0.6560   20.9987 C   0  0  0  0  0  0  0  0  0  0  0  0
    8.2574    0.3120   21.7424 C   0  0  0  0  0  0  0  0  0  0  0  0
    7.8119    1.0998   22.6979 N   0  0  0  0  0  0  0  0  0  0  0  0
    8.8954    1.8454   23.0239 N   0  0  0  0  0  0  0  0  0  0  0  0
    8.8072    2.8524   24.0700 C   0  0  0  0  0  0  0  0  0  0  0  0
    7.9861    4.1073   23.7018 C   0  0  0  0  0  0  0  0  0  0  0  0
    7.0352    4.0097   25.2576 S   0  0  0  0  0  0  0  0  0  0  0  0
    8.0260    2.4710   25.3495 C   0  0  0  0  0  0  0  0  0  0  0  0
    7.4282    1.5629   25.2515 H   0  0  0  0  0  0  0  0  0  0  0  0
    8.6450    2.4139   26.2477 H   0  0  0  0  0  0  0  0  0  0  0  0
    7.3828    3.9886   22.7975 H   0  0  0  0  0  0  0  0  0  0  0  0
    8.5797    5.0207   23.6314 H   0  0  0  0  0  0  0  0  0  0  0  0
    9.8179    3.1396   24.3536 H   0  0  0  0  0  0  0  0  0  0  0  0
    9.9419    1.4756   22.2353 C   0  0  0  0  0  0  0  0  0  0  0  0
   11.2638    2.1137   22.3418 C   0  0  0  0  0  0  0  0  0  0  0  0
   11.4279    3.5096   22.3825 C   0  0  0  0  0  0  0  0  0  0  0  0
   12.6882    4.0979   22.5906 C   0  0  0  0  0  0  0  0  0  0  0  0
   13.8196    3.3220   22.7933 C   0  0  0  0  0  0  0  0  0  0  0  0
   13.6701    1.9260   22.6867 C   0  0  0  0  0  0  0  0  0  0  0  0
   12.4206    1.3051   22.4233 C   0  0  0  0  0  0  0  0  0  0  0  0
   12.6764   -0.1095   22.3238 C   0  0  0  0  0  0  0  0  0  0  0  0
   14.0181   -0.2891   22.4976 C   0  0  0  0  0  0  0  0  0  0  0  0
   14.6154    0.9324   22.7378 N   0  0  0  0  0  0  0  0  0  0  0  0
   15.6044    1.1225   22.7221 H   0  0  0  0  0  0  0  0  0  0  0  0
   14.6053   -1.1967   22.4644 H   0  0  0  0  0  0  0  0  0  0  0  0
   11.9082   -0.8543   22.1452 H   0  0  0  0  0  0  0  0  0  0  0  0
   14.7766    3.8040   22.9643 H   0  0  0  0  0  0  0  0  0  0  0  0
   12.7813    5.1800   22.5748 H   0  0  0  0  0  0  0  0  0  0  0  0
   10.5722    4.1650   22.2672 H   0  0  0  0  0  0  0  0  0  0  0  0
    9.5674    0.4868   21.4350 N   0  0  0  0  0  0  0  0  0  0  0  0
    8.0246   -1.4620   20.6409 H   0  0  0  0  0  0  0  0  0  0  0  0
    6.6697   -1.0883   21.7170 H   0  0  0  0  0  0  0  0  0  0  0  0
    5.4037    0.6418   20.0664 C   0  0  0  0  0  0  0  0  0  0  0  0
    4.9720    0.6309   21.0683 H   0  0  0  0  0  0  0  0  0  0  0  0
    8.0378   -0.5407   18.2825 H   0  0  0  0  0  0  0  0  0  0  0  0
    4.9637    1.8458   16.9229 H   0  0  0  0  0  0  0  0  0  0  0  0
    3.8611    1.8727   19.1593 H   0  0  0  0  0  0  0  0  0  0  0  0
  1  2  2  0
  2  3  1  0
  3  4  2  0
  4  5  1  0
  5  6  1  0
  6  7  1  0
  7  8  2  0
  8  9  1  0
  9 10  1  0
 10 11  1  0
 11 12  1  0
 12 13  1  0
 13 14  1  0
 13 15  1  0
 11 16  1  0
 11 17  1  0
 10 18  1  0
  9 19  1  0
 19 20  1  0
 20 21  2  0
 21 22  1  0
 22 23  2  0
 23 24  1  0
 24 25  2  0
 25 26  1  0
 26 27  2  0
 27 28  1  0
 28 29  1  0
 27 30  1  0
 26 31  1  0
 23 32  1  0
 22 33  1  0
 21 34  1  0
 19 35  2  0
  6 36  1  0
  6 37  1  0
  5 38  2  0
 38 39  1  0
  4 40  1  0
  2 41  1  0
  1 42  1  0
 38  1  1  0
 35  7  1  0
 13 10  1  0
 25 20  1  0
 28 24  1  0
M  END
>  <cnnaffinity>  (1) 
-6.39667

>  <filename>  (1) 
c1cncc(Cc2nc(-c3cccc4[nH]ccc34)n(C3CSC3)n2)c1

$$$$
