
     RDKit          3D

 31 34  0  0  0  0  0  0  0  0999 V2000
    4.8085    1.3068   19.1129 C   0  0  0  0  0  0  0  0  0  0  0  0
    5.4078    1.2870   17.8463 C   0  0  0  0  0  0  0  0  0  0  0  0
    6.5707    0.6721   17.5886 N   0  0  0  0  0  0  0  0  0  0  0  0
    7.1798    0.0568   18.6035 C   0  0  0  0  0  0  0  0  0  0  0  0
    6.6570    0.0095   19.8997 C   0  0  0  0  0  0  0  0  0  0  0  0
    7.3967   -0.7055   20.9363 C   0  0  0  0  0  0  0  0  0  0  0  0
    8.5366   -1.3171   20.7428 N   0  0  0  0  0  0  0  0  0  0  0  0
    8.8339   -1.8321   21.9970 O   0  0  0  0  0  0  0  0  0  0  0  0
    7.8420   -1.4693   22.8186 C   0  0  0  0  0  0  0  0  0  0  0  0
    7.8934   -1.8321   24.2462 C   0  0  0  0  0  0  0  0  0  0  0  0
    7.3186   -0.9368   25.1398 C   0  0  0  0  0  0  0  0  0  0  0  0
    7.3489   -1.1620   26.5311 C   0  0  0  0  0  0  0  0  0  0  0  0
    7.9572   -2.2934   27.0108 C   0  0  0  0  0  0  0  0  0  0  0  0
    8.5303   -3.2571   26.1568 C   0  0  0  0  0  0  0  0  0  0  0  0
    9.1355   -4.4363   26.6687 C   0  0  0  0  0  0  0  0  0  0  0  0
    9.6402   -5.3588   25.7918 C   0  0  0  0  0  0  0  0  0  0  0  0
    9.5880   -5.2256   24.4400 N   0  0  0  0  0  0  0  0  0  0  0  0
    9.0349   -4.1247   23.9559 C   0  0  0  0  0  0  0  0  0  0  0  0
    8.4926   -3.0583   24.7454 C   0  0  0  0  0  0  0  0  0  0  0  0
    8.9872   -4.0300   22.8780 H   0  0  0  0  0  0  0  0  0  0  0  0
   10.1070   -6.2691   26.1513 H   0  0  0  0  0  0  0  0  0  0  0  0
    9.1817   -4.6080   27.7435 H   0  0  0  0  0  0  0  0  0  0  0  0
    8.0399   -2.4854   28.0566 H   0  0  0  0  0  0  0  0  0  0  0  0
    6.9020   -0.4426   27.2136 H   0  0  0  0  0  0  0  0  0  0  0  0
    6.8417   -0.0334   24.7699 H   0  0  0  0  0  0  0  0  0  0  0  0
    6.9277   -0.7652   22.2175 N   0  0  0  0  0  0  0  0  0  0  0  0
    5.4381    0.6513   20.1666 C   0  0  0  0  0  0  0  0  0  0  0  0
    5.0039    0.6316   21.1717 H   0  0  0  0  0  0  0  0  0  0  0  0
    8.1248   -0.4287   18.3728 H   0  0  0  0  0  0  0  0  0  0  0  0
    4.9221    1.7738   17.0032 H   0  0  0  0  0  0  0  0  0  0  0  0
    3.8755    1.8421   19.2612 H   0  0  0  0  0  0  0  0  0  0  0  0
  1  2  2  0
  2  3  1  0
  3  4  2  0
  4  5  1  0
  5  6  1  0
  6  7  2  0
  7  8  1  0
  8  9  1  0
  9 10  1  0
 10 11  2  0
 11 12  1  0
 12 13  2  0
 13 14  1  0
 14 15  2  0
 15 16  1  0
 16 17  2  0
 17 18  1  0
 18 19  2  0
 18 20  1  0
 16 21  1  0
 15 22  1  0
 13 23  1  0
 12 24  1  0
 11 25  1  0
  9 26  2  0
  5 27  2  0
 27 28  1  0
  4 29  1  0
  2 30  1  0
  1 31  1  0
 27  1  1  0
 26  6  1  0
 19 10  1  0
 19 14  1  0
M  END
>  <cnnaffinity>  (1) 
-5.32702

>  <filename>  (1) 
c1cncc(-c2noc(-c3cccc4ccncc34)n2)c1

$$$$
