
     RDKit          3D

 36 39  0  0  0  0  0  0  0  0999 V2000
    4.9222    1.8217   16.9695 H   0  0  0  0  0  0  0  0  0  0  0  0
    5.3837    1.2979   17.8059 C   0  0  0  0  0  0  0  0  0  0  0  0
    6.5432    0.6752   17.5390 N   0  0  0  0  0  0  0  0  0  0  0  0
    7.1537    0.0588   18.5601 C   0  0  0  0  0  0  0  0  0  0  0  0
    8.1083   -0.4098   18.3216 H   0  0  0  0  0  0  0  0  0  0  0  0
    6.6623    0.0152   19.8814 C   0  0  0  0  0  0  0  0  0  0  0  0
    7.4030   -0.6755   20.9983 C   0  0  0  0  0  0  0  0  0  0  0  0
    7.6412   -2.0563   20.9151 C   0  0  0  0  0  0  0  0  0  0  0  0
    7.2122   -2.6023   20.0766 H   0  0  0  0  0  0  0  0  0  0  0  0
    8.3060   -2.7798   21.8206 N   0  0  0  0  0  0  0  0  0  0  0  0
    8.7174   -2.1536   22.9321 C   0  0  0  0  0  0  0  0  0  0  0  0
    9.2324   -2.7730   23.6681 H   0  0  0  0  0  0  0  0  0  0  0  0
    8.4673   -0.8018   23.1739 C   0  0  0  0  0  0  0  0  0  0  0  0
    8.7373   -0.3386   24.1180 H   0  0  0  0  0  0  0  0  0  0  0  0
    7.8059   -0.0354   22.1951 C   0  0  0  0  0  0  0  0  0  0  0  0
    7.5808    1.4258   22.4085 C   0  0  0  0  0  0  0  0  0  0  0  0
    8.2496    2.3298   21.6010 C   0  0  0  0  0  0  0  0  0  0  0  0
    8.9008    1.9372   20.8280 H   0  0  0  0  0  0  0  0  0  0  0  0
    8.0655    3.7228   21.7717 C   0  0  0  0  0  0  0  0  0  0  0  0
    8.5136    4.4661   21.1294 H   0  0  0  0  0  0  0  0  0  0  0  0
    7.2157    4.2032   22.7262 C   0  0  0  0  0  0  0  0  0  0  0  0
    7.0849    5.2760   22.8321 H   0  0  0  0  0  0  0  0  0  0  0  0
    6.4749    3.3176   23.5520 C   0  0  0  0  0  0  0  0  0  0  0  0
    5.5489    3.8194   24.5126 C   0  0  0  0  0  0  0  0  0  0  0  0
    5.4593    4.9010   24.6040 H   0  0  0  0  0  0  0  0  0  0  0  0
    4.7980    2.9676   25.2834 C   0  0  0  0  0  0  0  0  0  0  0  0
    4.1075    3.3648   26.0250 H   0  0  0  0  0  0  0  0  0  0  0  0
    4.9282    1.5616   25.1192 C   0  0  0  0  0  0  0  0  0  0  0  0
    4.3336    0.8890   25.7307 H   0  0  0  0  0  0  0  0  0  0  0  0
    5.8135    1.0455   24.1945 C   0  0  0  0  0  0  0  0  0  0  0  0
    5.9007   -0.0301   24.0546 H   0  0  0  0  0  0  0  0  0  0  0  0
    6.6406    1.9017   23.3954 C   0  0  0  0  0  0  0  0  0  0  0  0
    5.4440    0.6646   20.1260 C   0  0  0  0  0  0  0  0  0  0  0  0
    5.0630    0.6895   21.1502 H   0  0  0  0  0  0  0  0  0  0  0  0
    4.7862    1.3053   19.0717 C   0  0  0  0  0  0  0  0  0  0  0  0
    3.8553    1.8441   19.2213 H   0  0  0  0  0  0  0  0  0  0  0  0
  1  2  1  0
  2  3  2  0
  3  4  1  0
  4  5  1  0
  4  6  2  0
  6  7  1  0
  7  8  2  0
  8  9  1  0
  8 10  1  0
 10 11  2  0
 11 12  1  0
 11 13  1  0
 13 14  1  0
 13 15  2  0
 15 16  1  0
 16 17  2  0
 17 18  1  0
 17 19  1  0
 19 20  1  0
 19 21  2  0
 21 22  1  0
 21 23  1  0
 23 24  2  0
 24 25  1  0
 24 26  1  0
 26 27  1  0
 26 28  2  0
 28 29  1  0
 28 30  1  0
 30 31  1  0
 30 32  2  0
  6 33  1  0
 33 34  1  0
 33 35  2  0
 35 36  1  0
 35  2  1  0
 15  7  1  0
 32 16  1  0
 32 23  1  0
M  END
>  <cnnaffinity>  (1) 
-4.81325

>  <filename>  (1) 
c1cncc(-c2cnccc2-c2cccc3ccccc23)c1

$$$$
