
     RDKit          3D

 33 36  0  0  0  0  0  0  0  0999 V2000
    4.8089    1.2988   19.1087 C   0  0  0  0  0  0  0  0  0  0  0  0
    5.4054    1.2892   17.8440 C   0  0  0  0  0  0  0  0  0  0  0  0
    6.5731    0.6715   17.5938 N   0  0  0  0  0  0  0  0  0  0  0  0
    7.1757    0.0381   18.6016 C   0  0  0  0  0  0  0  0  0  0  0  0
    6.6523   -0.0146   19.9047 C   0  0  0  0  0  0  0  0  0  0  0  0
    7.3789   -0.6881   20.9258 N   0  0  0  0  0  0  0  0  0  0  0  0
    7.9598   -1.8850   20.6964 N   0  0  0  0  0  0  0  0  0  0  0  0
    8.4811   -2.2480   21.8595 C   0  0  0  0  0  0  0  0  0  0  0  0
    8.2564   -1.2921   22.8611 C   0  0  0  0  0  0  0  0  0  0  0  0
    7.5487   -0.2908   22.2312 C   0  0  0  0  0  0  0  0  0  0  0  0
    7.1943    1.0352   22.7462 C   0  0  0  0  0  0  0  0  0  0  0  0
    7.6840    2.1804   22.1330 C   0  0  0  0  0  0  0  0  0  0  0  0
    7.4082    3.4653   22.6568 C   0  0  0  0  0  0  0  0  0  0  0  0
    6.6443    3.6020   23.7953 C   0  0  0  0  0  0  0  0  0  0  0  0
    6.1196    2.4462   24.4518 C   0  0  0  0  0  0  0  0  0  0  0  0
    5.3164    2.5216   25.6311 C   0  0  0  0  0  0  0  0  0  0  0  0
    4.7894    1.4937   26.2603 N   0  0  0  0  0  0  0  0  0  0  0  0
    5.0426    0.2632   25.7399 C   0  0  0  0  0  0  0  0  0  0  0  0
    5.8064    0.0393   24.6229 C   0  0  0  0  0  0  0  0  0  0  0  0
    6.3899    1.1450   23.9282 C   0  0  0  0  0  0  0  0  0  0  0  0
    5.9491   -0.9659   24.2404 H   0  0  0  0  0  0  0  0  0  0  0  0
    4.5923   -0.5713   26.2700 H   0  0  0  0  0  0  0  0  0  0  0  0
    5.1161    3.5079   26.0417 H   0  0  0  0  0  0  0  0  0  0  0  0
    6.4363    4.5901   24.2006 H   0  0  0  0  0  0  0  0  0  0  0  0
    7.8082    4.3372   22.1424 H   0  0  0  0  0  0  0  0  0  0  0  0
    8.2890    2.0689   21.2364 H   0  0  0  0  0  0  0  0  0  0  0  0
    8.5823   -1.2787   23.8918 H   0  0  0  0  0  0  0  0  0  0  0  0
    9.0194   -3.1814   21.9510 H   0  0  0  0  0  0  0  0  0  0  0  0
    5.4347    0.6347   20.1665 C   0  0  0  0  0  0  0  0  0  0  0  0
    5.0145    0.6394   21.1774 H   0  0  0  0  0  0  0  0  0  0  0  0
    8.1246   -0.4401   18.3769 H   0  0  0  0  0  0  0  0  0  0  0  0
    4.9231    1.7796   16.9988 H   0  0  0  0  0  0  0  0  0  0  0  0
    3.8801    1.8382   19.2602 H   0  0  0  0  0  0  0  0  0  0  0  0
  1  2  2  0
  2  3  1  0
  3  4  2  0
  4  5  1  0
  5  6  1  0
  6  7  1  0
  7  8  2  0
  8  9  1  0
  9 10  2  0
 10 11  1  0
 11 12  2  0
 12 13  1  0
 13 14  2  0
 14 15  1  0
 15 16  2  0
 16 17  1  0
 17 18  2  0
 18 19  1  0
 19 20  2  0
 19 21  1  0
 18 22  1  0
 16 23  1  0
 14 24  1  0
 13 25  1  0
 12 26  1  0
  9 27  1  0
  8 28  1  0
  5 29  2  0
 29 30  1  0
  4 31  1  0
  2 32  1  0
  1 33  1  0
 29  1  1  0
 10  6  1  0
 20 11  1  0
 20 15  1  0
M  END
>  <cnnaffinity>  (1) 
-5.074

>  <filename>  (1) 
c1cncc(-n2nccc2-c2cccc3cnccc23)c1

$$$$
