
     RDKit          3D

 48 50  0  0  0  0  0  0  0  0999 V2000
    4.9175    1.8170   16.9754 H   0  0  0  0  0  0  0  0  0  0  0  0
    5.3853    1.3050   17.8159 C   0  0  0  0  0  0  0  0  0  0  0  0
    6.5377    0.6751   17.5481 N   0  0  0  0  0  0  0  0  0  0  0  0
    7.1434    0.0447   18.5659 C   0  0  0  0  0  0  0  0  0  0  0  0
    8.0981   -0.4239   18.3169 H   0  0  0  0  0  0  0  0  0  0  0  0
    6.6438   -0.0213   19.8806 C   0  0  0  0  0  0  0  0  0  0  0  0
    7.3939   -0.7090   21.0029 C   0  0  0  0  0  0  0  0  0  0  0  0
    8.0079   -1.5268   20.6051 H   0  0  0  0  0  0  0  0  0  0  0  0
    6.6726   -1.1686   21.6911 H   0  0  0  0  0  0  0  0  0  0  0  0
    8.3330    0.2024   21.8533 C   0  0  1  0  0  0  0  0  0  0  0  0
    7.6600    1.3771   22.2958 O   0  0  0  0  0  0  0  0  0  0  0  0
    6.7607    1.2060   23.3793 C   0  0  0  0  0  0  0  0  0  0  0  0
    7.3254    1.0999   24.3188 H   0  0  0  0  0  0  0  0  0  0  0  0
    6.1350    0.3067   23.2684 H   0  0  0  0  0  0  0  0  0  0  0  0
    5.8521    2.4288   23.4458 C   0  0  0  0  0  0  0  0  0  0  0  0
    5.4703    2.6289   22.4349 H   0  0  0  0  0  0  0  0  0  0  0  0
    6.4512    3.3213   23.7165 H   0  0  0  0  0  0  0  0  0  0  0  0
    4.7360    2.2061   24.3755 N   0  0  0  0  0  0  0  0  0  0  0  0
    3.5686    3.0233   24.0498 C   0  0  0  0  0  0  0  0  0  0  0  0
    3.3173    2.8325   22.9983 H   0  0  0  0  0  0  0  0  0  0  0  0
    3.7883    4.1098   24.1427 H   0  0  0  0  0  0  0  0  0  0  0  0
    2.3719    2.6702   24.9410 C   0  0  0  0  0  0  0  0  0  0  0  0
    1.5261    3.3161   24.6724 H   0  0  0  0  0  0  0  0  0  0  0  0
    2.0698    1.6355   24.7278 H   0  0  0  0  0  0  0  0  0  0  0  0
    2.7288    2.8122   26.4330 C   0  0  0  0  0  0  0  0  0  0  0  0
    1.8954    2.4890   27.0700 H   0  0  0  0  0  0  0  0  0  0  0  0
    2.9014    3.8747   26.6715 H   0  0  0  0  0  0  0  0  0  0  0  0
    4.0024    2.0028   26.7411 C   0  0  0  0  0  0  0  0  0  0  0  0
    4.3385    2.1734   27.7723 H   0  0  0  0  0  0  0  0  0  0  0  0
    3.8002    0.9265   26.6452 H   0  0  0  0  0  0  0  0  0  0  0  0
    5.1371    2.3777   25.7788 C   0  0  0  0  0  0  0  0  0  0  0  0
    6.0130    1.7460   25.9733 H   0  0  0  0  0  0  0  0  0  0  0  0
    5.4514    3.4270   25.9747 H   0  0  0  0  0  0  0  0  0  0  0  0
    8.9922   -0.6083   23.0051 C   0  0  0  0  0  0  0  0  0  0  0  0
    9.3226    0.1149   23.7635 H   0  0  0  0  0  0  0  0  0  0  0  0
    8.2888   -1.3004   23.4898 H   0  0  0  0  0  0  0  0  0  0  0  0
   10.1646   -1.2941   22.4545 N   0  0  0  0  0  0  0  0  0  0  0  0
    9.9215   -2.2341   22.1618 H   0  0  0  0  0  0  0  0  0  0  0  0
   10.5884   -0.5227   21.2691 C   0  0  0  0  0  0  0  0  0  0  0  0
   11.6242   -0.1746   21.3677 H   0  0  0  0  0  0  0  0  0  0  0  0
   10.5436   -1.1829   20.4086 H   0  0  0  0  0  0  0  0  0  0  0  0
    9.5841    0.6340   21.0800 C   0  0  0  0  0  0  0  0  0  0  0  0
    9.3470    0.8239   20.0307 H   0  0  0  0  0  0  0  0  0  0  0  0
    9.9478    1.5759   21.5024 H   0  0  0  0  0  0  0  0  0  0  0  0
    5.4323    0.6383   20.1277 C   0  0  0  0  0  0  0  0  0  0  0  0
    5.0073    0.6317   21.1321 H   0  0  0  0  0  0  0  0  0  0  0  0
    4.7953    1.3161   19.0831 C   0  0  0  0  0  0  0  0  0  0  0  0
    3.8676    1.8531   19.2355 H   0  0  0  0  0  0  0  0  0  0  0  0
  1  2  1  0
  2  3  2  0
  3  4  1  0
  4  5  1  0
  4  6  2  0
  6  7  1  0
  7  8  1  0
  7  9  1  0
  7 10  1  0
 10 11  1  1
 11 12  1  0
 12 13  1  0
 12 14  1  0
 12 15  1  0
 15 16  1  0
 15 17  1  0
 15 18  1  0
 18 19  1  0
 19 20  1  0
 19 21  1  0
 19 22  1  0
 22 23  1  0
 22 24  1  0
 22 25  1  0
 25 26  1  0
 25 27  1  0
 25 28  1  0
 28 29  1  0
 28 30  1  0
 28 31  1  0
 31 32  1  0
 31 33  1  0
 10 34  1  0
 34 35  1  0
 34 36  1  0
 34 37  1  0
 37 38  1  0
 37 39  1  0
 39 40  1  0
 39 41  1  0
 39 42  1  0
 42 43  1  0
 42 44  1  0
  6 45  1  0
 45 46  1  0
 45 47  2  0
 47 48  1  0
 47  2  1  0
 42 10  1  0
 31 18  1  0
M  END
>  <cnnaffinity>  (1) 
-4.2347

>  <filename>  (1) 
c1cncc(C[C@]2(OCCN3CCCCC3)CCNC2)c1

$$$$
