
     RDKit          3D

 48 53  0  0  0  0  0  0  0  0999 V2000
    4.8451    1.3123   18.9556 C   0  0  0  0  0  0  0  0  0  0  0  0
    5.4253    1.2773   17.6858 C   0  0  0  0  0  0  0  0  0  0  0  0
    6.5404    0.5871   17.4021 N   0  0  0  0  0  0  0  0  0  0  0  0
    7.1280   -0.0705   18.4093 C   0  0  0  0  0  0  0  0  0  0  0  0
    6.6648   -0.0686   19.7385 C   0  0  0  0  0  0  0  0  0  0  0  0
    7.4279   -0.7497   20.8779 C   0  0  0  0  0  0  0  0  0  0  0  0
    8.2224    0.1697   21.7726 C   0  0  0  0  0  0  0  0  0  0  0  0
    9.5370    0.2482   21.7164 N   0  0  0  0  0  0  0  0  0  0  0  0
    9.8301    1.2046   22.6376 N   0  0  0  0  0  0  0  0  0  0  0  0
   11.1156    1.8086   22.7403 C   0  0  0  0  0  0  0  0  0  0  0  0
   12.3198    1.1489   22.6893 C   0  0  0  0  0  0  0  0  0  0  0  0
   13.5690    1.8958   22.8064 C   0  0  0  0  0  0  0  0  0  0  0  0
   13.6379    3.2522   22.9335 C   0  0  0  0  0  0  0  0  0  0  0  0
   12.4004    4.0565   23.1083 C   0  0  0  0  0  0  0  0  0  0  0  0
   11.0757    3.2719   22.8464 C   0  0  0  0  0  0  0  0  0  0  0  0
   11.3465    3.8943   24.0111 N   0  0  0  0  0  0  0  0  0  0  0  0
   11.2267    5.7517   22.2961 C   0  0  0  0  0  0  0  0  0  0  0  0
   12.3808    5.2937   22.3738 N   0  0  0  0  0  0  0  0  0  0  0  0
   10.8265    6.5300   21.6561 H   0  0  0  0  0  0  0  0  0  0  0  0
   10.4678    3.7848   22.0824 H   0  0  0  0  0  0  0  0  0  0  0  0
   14.5712    3.8040   22.8624 H   0  0  0  0  0  0  0  0  0  0  0  0
   14.4898    1.3164   22.7066 H   0  0  0  0  0  0  0  0  0  0  0  0
   12.3408    0.0780   22.5034 H   0  0  0  0  0  0  0  0  0  0  0  0
    8.6591    1.6362   23.2210 C   0  0  0  0  0  0  0  0  0  0  0  0
    8.6195    2.7401   24.2110 C   0  0  0  0  0  0  0  0  0  0  0  0
    7.4333    3.1803   25.0209 C   0  0  0  0  0  0  0  0  0  0  0  0
    7.8838    4.0213   23.8667 C   0  0  0  0  0  0  0  0  0  0  0  0
    7.0113    4.1562   22.6213 C   0  0  0  0  0  0  0  0  0  0  0  0
    6.7693    5.6583   22.6037 C   0  0  0  0  0  0  0  0  0  0  0  0
    8.0379    6.1966   22.9501 O   0  0  0  0  0  0  0  0  0  0  0  0
    8.5357    5.4041   24.0238 C   0  0  0  0  0  0  0  0  0  0  0  0
    9.6206    5.3996   23.9556 H   0  0  0  0  0  0  0  0  0  0  0  0
    8.2615    5.8638   24.9869 H   0  0  0  0  0  0  0  0  0  0  0  0
    6.4685    6.0731   21.6372 H   0  0  0  0  0  0  0  0  0  0  0  0
    6.0058    5.9427   23.3500 H   0  0  0  0  0  0  0  0  0  0  0  0
    7.5828    3.8536   21.7356 H   0  0  0  0  0  0  0  0  0  0  0  0
    6.1025    3.5488   22.6554 H   0  0  0  0  0  0  0  0  0  0  0  0
    7.6455    3.5483   26.0266 H   0  0  0  0  0  0  0  0  0  0  0  0
    6.4983    2.6295   24.9308 H   0  0  0  0  0  0  0  0  0  0  0  0
    9.5574    2.8539   24.7388 H   0  0  0  0  0  0  0  0  0  0  0  0
    7.6378    0.9876   22.6894 N   0  0  0  0  0  0  0  0  0  0  0  0
    6.7154   -1.2624   21.5320 H   0  0  0  0  0  0  0  0  0  0  0  0
    8.1138   -1.5144   20.4926 H   0  0  0  0  0  0  0  0  0  0  0  0
    5.4753    0.6282   19.9989 C   0  0  0  0  0  0  0  0  0  0  0  0
    5.0615    0.6394   21.0093 H   0  0  0  0  0  0  0  0  0  0  0  0
    8.0267   -0.6315   18.1480 H   0  0  0  0  0  0  0  0  0  0  0  0
    4.9772    1.8198   16.8553 H   0  0  0  0  0  0  0  0  0  0  0  0
    3.9348    1.8811   19.1122 H   0  0  0  0  0  0  0  0  0  0  0  0
  1  2  2  0
  2  3  1  0
  3  4  2  0
  4  5  1  0
  5  6  1  0
  6  7  1  0
  7  8  2  0
  8  9  1  0
  9 10  1  0
 10 11  2  0
 11 12  1  0
 12 13  2  0
 13 14  1  0
 14 15  2  0
 15 16  1  0
 16 17  1  0
 17 18  2  0
 17 19  1  0
 16 20  1  0
 13 21  1  0
 12 22  1  0
 11 23  1  0
  9 24  1  0
 24 25  1  0
 25 26  1  0
 26 27  1  0
 27 28  1  0
 28 29  1  0
 29 30  1  0
 30 31  1  0
 31 32  1  0
 31 33  1  0
 29 34  1  0
 29 35  1  0
 28 36  1  0
 28 37  1  0
 26 38  1  0
 26 39  1  0
 25 40  1  0
 24 41  2  0
  6 42  1  0
  6 43  1  0
  5 44  2  0
 44 45  1  0
  4 46  1  0
  2 47  1  0
  1 48  1  0
 44  1  1  0
 41  7  1  0
 15 10  1  0
 27 25  1  0
 18 14  1  0
 31 27  1  0
M  END
>  <cnnaffinity>  (1) 
-5.87573

>  <filename>  (1) 
c1cncc(Cc2nc(C3CC34CCOC4)n(-c3cccc4nc[nH]c34)n2)c1

$$$$
