
     RDKit          3D

 34 37  0  0  0  0  0  0  0  0999 V2000
    4.9098    1.7835   16.9936 H   0  0  0  0  0  0  0  0  0  0  0  0
    5.4018    1.2971   17.8337 C   0  0  0  0  0  0  0  0  0  0  0  0
    6.5674    0.6820   17.5706 N   0  0  0  0  0  0  0  0  0  0  0  0
    7.1722    0.0597   18.5938 C   0  0  0  0  0  0  0  0  0  0  0  0
    8.1208   -0.4268   18.3774 H   0  0  0  0  0  0  0  0  0  0  0  0
    6.6645    0.0029   19.9149 C   0  0  0  0  0  0  0  0  0  0  0  0
    7.3443   -0.6916   20.9509 N   0  0  0  0  0  0  0  0  0  0  0  0
    7.4076   -0.3813   22.3166 C   0  0  0  0  0  0  0  0  0  0  0  0
    7.2201    1.0069   22.8260 C   0  0  0  0  0  0  0  0  0  0  0  0
    6.6763    1.1814   24.1383 C   0  0  0  0  0  0  0  0  0  0  0  0
    6.4058    0.3089   24.7324 H   0  0  0  0  0  0  0  0  0  0  0  0
    6.4996    2.4464   24.6737 C   0  0  0  0  0  0  0  0  0  0  0  0
    6.0919    2.6004   25.6696 H   0  0  0  0  0  0  0  0  0  0  0  0
    6.8709    3.5716   23.9061 C   0  0  0  0  0  0  0  0  0  0  0  0
    6.8290    4.9827   24.1385 C   0  0  0  0  0  0  0  0  0  0  0  0
    6.4614    5.4469   25.0420 H   0  0  0  0  0  0  0  0  0  0  0  0
    7.3300    5.5940   23.0255 C   0  0  0  0  0  0  0  0  0  0  0  0
    7.4603    6.6529   22.8138 H   0  0  0  0  0  0  0  0  0  0  0  0
    7.6873    4.6272   22.1035 N   0  0  0  0  0  0  0  0  0  0  0  0
    8.0847    4.7753   21.1914 H   0  0  0  0  0  0  0  0  0  0  0  0
    7.4200    3.3841   22.6179 C   0  0  0  0  0  0  0  0  0  0  0  0
    7.6166    2.1163   22.0644 C   0  0  0  0  0  0  0  0  0  0  0  0
    8.0402    2.0241   21.0662 H   0  0  0  0  0  0  0  0  0  0  0  0
    7.7047   -1.3581   23.0879 N   0  0  0  0  0  0  0  0  0  0  0  0
    7.9139   -2.5327   22.2577 C   0  0  0  0  0  0  0  0  0  0  0  0
    8.9152   -2.9379   22.4275 H   0  0  0  0  0  0  0  0  0  0  0  0
    7.1941   -3.3057   22.5358 H   0  0  0  0  0  0  0  0  0  0  0  0
    7.7288   -2.0886   20.8004 C   0  0  0  0  0  0  0  0  0  0  0  0
    6.9410   -2.6527   20.2829 H   0  0  0  0  0  0  0  0  0  0  0  0
    8.6628   -2.1623   20.2335 H   0  0  0  0  0  0  0  0  0  0  0  0
    5.4384    0.6414   20.1607 C   0  0  0  0  0  0  0  0  0  0  0  0
    5.0224    0.6264   21.1715 H   0  0  0  0  0  0  0  0  0  0  0  0
    4.8080    1.3075   19.1041 C   0  0  0  0  0  0  0  0  0  0  0  0
    3.8748    1.8423   19.2619 H   0  0  0  0  0  0  0  0  0  0  0  0
  1  2  1  0
  2  3  2  0
  3  4  1  0
  4  5  1  0
  4  6  2  0
  6  7  1  0
  7  8  1  0
  8  9  1  0
  9 10  2  0
 10 11  1  0
 10 12  1  0
 12 13  1  0
 12 14  2  0
 14 15  1  0
 15 16  1  0
 15 17  2  0
 17 18  1  0
 17 19  1  0
 19 20  1  0
 19 21  1  0
 21 22  2  0
 22 23  1  0
  8 24  2  0
 24 25  1  0
 25 26  1  0
 25 27  1  0
 25 28  1  0
 28 29  1  0
 28 30  1  0
  6 31  1  0
 31 32  1  0
 31 33  2  0
 33 34  1  0
 33  2  1  0
 28  7  1  0
 22  9  1  0
 21 14  1  0
M  END
>  <cnnaffinity>  (1) 
-4.97274

>  <filename>  (1) 
c1cncc(N2CCN=C2c2ccc3cc[nH]c3c2)c1

$$$$
