
     RDKit          3D

 32 34  0  0  0  0  0  0  0  0999 V2000
    5.3609   -6.9517   19.9203 H   0  0  0  0  0  0  0  0  0  0  0  0
    5.3734   -6.0636   20.5474 C   0  0  0  0  0  0  0  0  0  0  0  0
    6.1932   -5.0190   20.1822 N   0  0  0  0  0  0  0  0  0  0  0  0
    6.0405   -4.0391   21.0132 C   0  0  0  0  0  0  0  0  0  0  0  0
    6.7706   -2.9290   20.8696 N   0  0  0  0  0  0  0  0  0  0  0  0
    7.4297   -2.9802   20.1164 H   0  0  0  0  0  0  0  0  0  0  0  0
    6.6754   -1.7478   21.6735 C   0  0  2  0  0  0  0  0  0  0  0  0
    5.6131   -1.4983   21.8103 H   0  0  0  0  0  0  0  0  0  0  0  0
    7.3530   -0.6900   20.9471 N   0  0  0  0  0  0  0  0  0  0  0  0
    6.6956   -0.0660   19.8554 C   0  0  0  0  0  0  0  0  0  0  0  0
    7.1994    0.0363   18.5264 C   0  0  0  0  0  0  0  0  0  0  0  0
    8.1479   -0.4292   18.2642 H   0  0  0  0  0  0  0  0  0  0  0  0
    6.5841    0.6885   17.5260 N   0  0  0  0  0  0  0  0  0  0  0  0
    5.4231    1.3020   17.8042 C   0  0  0  0  0  0  0  0  0  0  0  0
    4.9603    1.8605   16.9921 H   0  0  0  0  0  0  0  0  0  0  0  0
    4.8228    1.2509   19.0671 C   0  0  0  0  0  0  0  0  0  0  0  0
    3.8914    1.7763   19.2440 H   0  0  0  0  0  0  0  0  0  0  0  0
    5.4538    0.5445   20.0949 C   0  0  0  0  0  0  0  0  0  0  0  0
    5.0435    0.4839   21.1021 H   0  0  0  0  0  0  0  0  0  0  0  0
    8.8076   -0.6062   21.0850 C   0  0  0  0  0  0  0  0  0  0  0  0
    9.3290   -1.3740   20.4881 H   0  0  0  0  0  0  0  0  0  0  0  0
    9.1408    0.3733   20.7093 H   0  0  0  0  0  0  0  0  0  0  0  0
    9.2126   -0.7376   22.5620 C   0  0  0  0  0  0  0  0  0  0  0  0
    8.8806    0.1578   23.1133 H   0  0  0  0  0  0  0  0  0  0  0  0
   10.3018   -0.8219   22.6341 H   0  0  0  0  0  0  0  0  0  0  0  0
    8.6841   -1.9063   23.1641 O   0  0  0  0  0  0  0  0  0  0  0  0
    7.2662   -1.9574   23.0987 C   0  0  0  0  0  0  0  0  0  0  0  0
    6.9750   -2.9598   23.4274 H   0  0  0  0  0  0  0  0  0  0  0  0
    6.8144   -1.2150   23.7704 H   0  0  0  0  0  0  0  0  0  0  0  0
    4.8551   -4.2773   22.2729 S   0  0  0  0  0  0  0  0  0  0  0  0
    4.5920   -5.8743   21.6368 C   0  0  0  0  0  0  0  0  0  0  0  0
    3.8779   -6.5348   22.1045 H   0  0  0  0  0  0  0  0  0  0  0  0
  1  2  1  0
  2  3  1  0
  3  4  2  0
  4  5  1  0
  5  6  1  0
  5  7  1  0
  7  8  1  1
  7  9  1  0
  9 10  1  0
 10 11  2  0
 11 12  1  0
 11 13  1  0
 13 14  2  0
 14 15  1  0
 14 16  1  0
 16 17  1  0
 16 18  2  0
 18 19  1  0
  9 20  1  0
 20 21  1  0
 20 22  1  0
 20 23  1  0
 23 24  1  0
 23 25  1  0
 23 26  1  0
 26 27  1  0
 27 28  1  0
 27 29  1  0
  4 30  1  0
 30 31  1  0
 31 32  1  0
 31  2  2  0
 27  7  1  0
 18 10  1  0
M  END
>  <cnnaffinity>  (1) 
-4.5432

>  <filename>  (1) 
c1cncc(N2CCOC[C@@H]2Nc2nccs2)c1

$$$$
