
     RDKit          3D

 33 36  0  0  0  0  0  0  0  0999 V2000
    4.9845    1.8100   16.9589 H   0  0  0  0  0  0  0  0  0  0  0  0
    5.4298    1.3146   17.8226 C   0  0  0  0  0  0  0  0  0  0  0  0
    6.6119    0.7118   17.6224 N   0  0  0  0  0  0  0  0  0  0  0  0
    7.1791    0.0918   18.6654 C   0  0  0  0  0  0  0  0  0  0  0  0
    8.1451   -0.3740   18.4831 H   0  0  0  0  0  0  0  0  0  0  0  0
    6.6037    0.0205   19.9507 C   0  0  0  0  0  0  0  0  0  0  0  0
    7.2588   -0.6884   21.0122 N   0  0  0  0  0  0  0  0  0  0  0  0
    7.5571   -2.0313   21.0218 C   0  0  0  0  0  0  0  0  0  0  0  0
    7.2722   -2.6648   20.1931 H   0  0  0  0  0  0  0  0  0  0  0  0
    8.0954   -2.4188   22.1476 N   0  0  0  0  0  0  0  0  0  0  0  0
    8.1253   -1.3069   22.9454 C   0  0  0  0  0  0  0  0  0  0  0  0
    8.5156   -1.3291   23.9603 H   0  0  0  0  0  0  0  0  0  0  0  0
    7.6039   -0.2262   22.2899 C   0  0  0  0  0  0  0  0  0  0  0  0
    7.3930    1.1070   22.8651 C   0  0  0  0  0  0  0  0  0  0  0  0
    7.0811    1.1415   24.1464 N   0  0  0  0  0  0  0  0  0  0  0  0
    6.7955    2.3544   24.7039 C   0  0  0  0  0  0  0  0  0  0  0  0
    6.3598    2.3566   26.0628 C   0  0  0  0  0  0  0  0  0  0  0  0
    6.2598    1.3805   26.5307 H   0  0  0  0  0  0  0  0  0  0  0  0
    6.0859    3.5433   26.7061 C   0  0  0  0  0  0  0  0  0  0  0  0
    5.7617    3.5427   27.7436 H   0  0  0  0  0  0  0  0  0  0  0  0
    6.2242    4.7868   26.0197 C   0  0  0  0  0  0  0  0  0  0  0  0
    6.0093    5.7127   26.5529 H   0  0  0  0  0  0  0  0  0  0  0  0
    6.6186    4.8147   24.6995 C   0  0  0  0  0  0  0  0  0  0  0  0
    6.7097    5.7636   24.1747 H   0  0  0  0  0  0  0  0  0  0  0  0
    6.9106    3.5999   23.9996 C   0  0  0  0  0  0  0  0  0  0  0  0
    7.3190    3.5258   22.6302 C   0  0  0  0  0  0  0  0  0  0  0  0
    7.4276    4.4302   22.0309 H   0  0  0  0  0  0  0  0  0  0  0  0
    7.5554    2.2911   22.0750 C   0  0  0  0  0  0  0  0  0  0  0  0
    7.8349    2.1540   21.0393 H   0  0  0  0  0  0  0  0  0  0  0  0
    5.3691    0.6560   20.1482 C   0  0  0  0  0  0  0  0  0  0  0  0
    4.9048    0.6541   21.1376 H   0  0  0  0  0  0  0  0  0  0  0  0
    4.7808    1.3108   19.0622 C   0  0  0  0  0  0  0  0  0  0  0  0
    3.8261    1.8116   19.1624 H   0  0  0  0  0  0  0  0  0  0  0  0
  1  2  1  0
  2  3  2  0
  3  4  1  0
  4  5  1  0
  4  6  2  0
  6  7  1  0
  7  8  1  0
  8  9  1  0
  8 10  2  0
 10 11  1  0
 11 12  1  0
 11 13  2  0
 13 14  1  0
 14 15  2  0
 15 16  1  0
 16 17  2  0
 17 18  1  0
 17 19  1  0
 19 20  1  0
 19 21  2  0
 21 22  1  0
 21 23  1  0
 23 24  1  0
 23 25  2  0
 25 26  1  0
 26 27  1  0
 26 28  2  0
 28 29  1  0
  6 30  1  0
 30 31  1  0
 30 32  2  0
 32 33  1  0
 32  2  1  0
 13  7  1  0
 28 14  1  0
 25 16  1  0
M  END
>  <cnnaffinity>  (1) 
-5.28394

>  <filename>  (1) 
c1cncc(-n2cncc2-c2ccc3ccccc3n2)c1

$$$$
