
     RDKit          3D

 24 26  0  0  0  0  0  0  0  0999 V2000
    4.9250    1.7828   16.9971 H   0  0  0  0  0  0  0  0  0  0  0  0
    5.4070    1.2929   17.8422 C   0  0  0  0  0  0  0  0  0  0  0  0
    6.5751    0.6772   17.5926 N   0  0  0  0  0  0  0  0  0  0  0  0
    7.1779    0.0473   18.6027 C   0  0  0  0  0  0  0  0  0  0  0  0
    8.1252   -0.4401   18.3825 H   0  0  0  0  0  0  0  0  0  0  0  0
    6.6474   -0.0083   19.9029 C   0  0  0  0  0  0  0  0  0  0  0  0
    7.3484   -0.7000   20.9347 N   0  0  0  0  0  0  0  0  0  0  0  0
    7.8168   -1.9492   20.7334 N   0  0  0  0  0  0  0  0  0  0  0  0
    8.3076   -2.3841   21.8456 N   0  0  0  0  0  0  0  0  0  0  0  0
    8.1639   -1.4255   22.7940 C   0  0  0  0  0  0  0  0  0  0  0  0
    8.5164   -1.5383   23.8081 H   0  0  0  0  0  0  0  0  0  0  0  0
    7.5597   -0.3269   22.2380 C   0  0  0  0  0  0  0  0  0  0  0  0
    7.3008    0.9826   22.8107 C   0  0  0  0  0  0  0  0  0  0  0  0
    6.9904    1.1646   24.1275 C   0  0  0  0  0  0  0  0  0  0  0  0
    6.8659    0.3837   24.8618 H   0  0  0  0  0  0  0  0  0  0  0  0
    6.7939    2.8113   24.5407 S   0  0  0  0  0  0  0  0  0  0  0  0
    7.1576    3.2874   22.9271 C   0  0  0  0  0  0  0  0  0  0  0  0
    7.1599    4.3297   22.6552 H   0  0  0  0  0  0  0  0  0  0  0  0
    7.4156    2.2303   22.1154 C   0  0  0  0  0  0  0  0  0  0  0  0
    7.6714    2.2820   21.0606 H   0  0  0  0  0  0  0  0  0  0  0  0
    5.4263    0.6274   20.1606 C   0  0  0  0  0  0  0  0  0  0  0  0
    5.0078    0.6324   21.1701 H   0  0  0  0  0  0  0  0  0  0  0  0
    4.8075    1.3005   19.1056 C   0  0  0  0  0  0  0  0  0  0  0  0
    3.8792    1.8385   19.2590 H   0  0  0  0  0  0  0  0  0  0  0  0
  1  2  1  0
  2  3  2  0
  3  4  1  0
  4  5  1  0
  4  6  2  0
  6  7  1  0
  7  8  1  0
  8  9  2  0
  9 10  1  0
 10 11  1  0
 10 12  2  0
 12 13  1  0
 13 14  2  0
 14 15  1  0
 14 16  1  0
 16 17  1  0
 17 18  1  0
 17 19  2  0
 19 20  1  0
  6 21  1  0
 21 22  1  0
 21 23  2  0
 23 24  1  0
 23  2  1  0
 12  7  1  0
 19 13  1  0
M  END
>  <cnnaffinity>  (1) 
-4.88707

>  <filename>  (1) 
c1cncc(-n2nncc2-c2ccsc2)c1

$$$$
