
     RDKit          3D

 31 33  0  0  0  0  0  0  0  0999 V2000
    5.0684    1.8096   17.1164 H   0  0  0  0  0  0  0  0  0  0  0  0
    5.5225    1.1951   17.8925 C   0  0  0  0  0  0  0  0  0  0  0  0
    6.6621    0.5744   17.5498 N   0  0  0  0  0  0  0  0  0  0  0  0
    7.2563   -0.1668   18.4937 C   0  0  0  0  0  0  0  0  0  0  0  0
    8.2165   -0.6120   18.2311 H   0  0  0  0  0  0  0  0  0  0  0  0
    6.7332   -0.3759   19.7772 C   0  0  0  0  0  0  0  0  0  0  0  0
    7.5664   -1.0560   20.8012 C   0  0  0  0  0  0  0  0  0  0  0  0
    8.6315   -0.2997   21.2963 C   0  0  0  0  0  0  0  0  0  0  0  0
    8.8507    0.6653   20.8599 H   0  0  0  0  0  0  0  0  0  0  0  0
    9.3623   -0.7706   22.3786 C   0  0  0  0  0  0  0  0  0  0  0  0
   10.1428   -0.1627   22.8412 H   0  0  0  0  0  0  0  0  0  0  0  0
    9.1271   -1.9652   22.9343 N   0  0  0  0  0  0  0  0  0  0  0  0
    8.1477   -2.7097   22.4119 C   0  0  0  0  0  0  0  0  0  0  0  0
    7.9878   -3.6745   22.8958 H   0  0  0  0  0  0  0  0  0  0  0  0
    7.3187   -2.3317   21.3417 C   0  0  0  0  0  0  0  0  0  0  0  0
    6.1933   -3.2500   20.9038 C   0  0  2  0  0  0  0  0  0  0  0  0
    5.7353   -2.8035   20.0076 H   0  0  0  0  0  0  0  0  0  0  0  0
    5.1250   -3.4196   22.0157 C   0  0  0  0  0  0  0  0  0  0  0  0
    5.5694   -3.2617   23.0148 H   0  0  0  0  0  0  0  0  0  0  0  0
    4.2994   -2.7198   21.9231 H   0  0  0  0  0  0  0  0  0  0  0  0
    4.6106   -4.7204   21.8722 O   0  0  0  0  0  0  0  0  0  0  0  0
    5.6921   -5.5612   21.5260 C   0  0  0  0  0  0  0  0  0  0  0  0
    5.2550   -6.4284   21.0305 H   0  0  0  0  0  0  0  0  0  0  0  0
    6.2189   -5.9205   22.4291 H   0  0  0  0  0  0  0  0  0  0  0  0
    6.6084   -4.7209   20.6108 C   0  0  0  0  0  0  0  0  0  0  0  0
    6.4588   -4.9693   19.5545 H   0  0  0  0  0  0  0  0  0  0  0  0
    7.6692   -4.8863   20.8251 H   0  0  0  0  0  0  0  0  0  0  0  0
    5.5463    0.2825   20.1187 C   0  0  0  0  0  0  0  0  0  0  0  0
    5.1507    0.1850   21.1342 H   0  0  0  0  0  0  0  0  0  0  0  0
    4.9301    1.0878   19.1577 C   0  0  0  0  0  0  0  0  0  0  0  0
    4.0316    1.6533   19.3798 H   0  0  0  0  0  0  0  0  0  0  0  0
  1  2  1  0
  2  3  2  0
  3  4  1  0
  4  5  1  0
  4  6  2  0
  6  7  1  0
  7  8  2  0
  8  9  1  0
  8 10  1  0
 10 11  1  0
 10 12  2  0
 12 13  1  0
 13 14  1  0
 13 15  2  0
 15 16  1  0
 16 17  1  6
 16 18  1  0
 18 19  1  0
 18 20  1  0
 18 21  1  0
 21 22  1  0
 22 23  1  0
 22 24  1  0
 22 25  1  0
 25 26  1  0
 25 27  1  0
  6 28  1  0
 28 29  1  0
 28 30  2  0
 30 31  1  0
 30  2  1  0
 15  7  1  0
 25 16  1  0
M  END
>  <cnnaffinity>  (1) 
-4.14224

>  <filename>  (1) 
c1cncc(-c2ccncc2[C@H]2CCOC2)c1

$$$$
