
     RDKit          3D

 32 35  0  0  0  0  0  0  0  0999 V2000
    4.9191    1.7789   17.0004 H   0  0  0  0  0  0  0  0  0  0  0  0
    5.4047    1.2908   17.8420 C   0  0  0  0  0  0  0  0  0  0  0  0
    6.5702    0.6784   17.5777 N   0  0  0  0  0  0  0  0  0  0  0  0
    7.1704    0.0497   18.5902 C   0  0  0  0  0  0  0  0  0  0  0  0
    8.1206   -0.4356   18.3755 H   0  0  0  0  0  0  0  0  0  0  0  0
    6.6498    0.0013   19.8939 C   0  0  0  0  0  0  0  0  0  0  0  0
    7.3931   -0.6892   20.9529 C   0  0  0  0  0  0  0  0  0  0  0  0
    8.0191   -1.8742   20.6917 N   0  0  0  0  0  0  0  0  0  0  0  0
    8.5992   -2.4111   21.6917 N   0  0  0  0  0  0  0  0  0  0  0  0
    8.4388   -1.4632   23.0825 S   0  0  0  0  0  0  0  0  0  0  0  0
    7.5165   -0.2709   22.2730 C   0  0  0  0  0  0  0  0  0  0  0  0
    7.1214    1.0269   22.8323 C   0  0  0  0  0  0  0  0  0  0  0  0
    7.5938    2.1919   22.2297 C   0  0  0  0  0  0  0  0  0  0  0  0
    8.2026    2.1180   21.3328 H   0  0  0  0  0  0  0  0  0  0  0  0
    7.2947    3.4732   22.7573 C   0  0  0  0  0  0  0  0  0  0  0  0
    7.6802    4.3606   22.2572 H   0  0  0  0  0  0  0  0  0  0  0  0
    6.5205    3.5950   23.8890 C   0  0  0  0  0  0  0  0  0  0  0  0
    6.2888    4.5755   24.3069 H   0  0  0  0  0  0  0  0  0  0  0  0
    6.0030    2.4355   24.5413 C   0  0  0  0  0  0  0  0  0  0  0  0
    5.1916    2.5516   25.7128 C   0  0  0  0  0  0  0  0  0  0  0  0
    4.9895    3.5480   26.1066 H   0  0  0  0  0  0  0  0  0  0  0  0
    4.6719    1.4358   26.3254 C   0  0  0  0  0  0  0  0  0  0  0  0
    4.0544    1.5324   27.2165 H   0  0  0  0  0  0  0  0  0  0  0  0
    4.9340    0.1437   25.7980 C   0  0  0  0  0  0  0  0  0  0  0  0
    4.5110   -0.7339   26.2797 H   0  0  0  0  0  0  0  0  0  0  0  0
    5.7231   -0.0034   24.6755 C   0  0  0  0  0  0  0  0  0  0  0  0
    5.9024   -0.9923   24.2592 H   0  0  0  0  0  0  0  0  0  0  0  0
    6.2922    1.1292   24.0141 C   0  0  0  0  0  0  0  0  0  0  0  0
    5.4317    0.6456   20.1572 C   0  0  0  0  0  0  0  0  0  0  0  0
    5.0162    0.6373   21.1713 H   0  0  0  0  0  0  0  0  0  0  0  0
    4.8024    1.3054   19.1057 C   0  0  0  0  0  0  0  0  0  0  0  0
    3.8736    1.8434   19.2580 H   0  0  0  0  0  0  0  0  0  0  0  0
  1  2  1  0
  2  3  2  0
  3  4  1  0
  4  5  1  0
  4  6  2  0
  6  7  1  0
  7  8  1  0
  8  9  2  0
  9 10  1  0
 10 11  1  0
 11 12  1  0
 12 13  2  0
 13 14  1  0
 13 15  1  0
 15 16  1  0
 15 17  2  0
 17 18  1  0
 17 19  1  0
 19 20  2  0
 20 21  1  0
 20 22  1  0
 22 23  1  0
 22 24  2  0
 24 25  1  0
 24 26  1  0
 26 27  1  0
 26 28  2  0
  6 29  1  0
 29 30  1  0
 29 31  2  0
 31 32  1  0
 31  2  1  0
 11  7  2  0
 28 12  1  0
 28 19  1  0
M  END
>  <cnnaffinity>  (1) 
-4.84914

>  <filename>  (1) 
c1cncc(-c2nnsc2-c2cccc3ccccc23)c1

$$$$
