
     RDKit          3D

 30 33  0  0  0  0  0  0  0  0999 V2000
    8.7828   -3.2365   22.2206 H   0  0  0  0  0  0  0  0  0  0  0  0
    8.3203   -2.3055   21.9290 C   0  0  0  0  0  0  0  0  0  0  0  0
    7.8444   -1.9832   20.7780 N   0  0  0  0  0  0  0  0  0  0  0  0
    7.3600   -0.7011   20.9468 C   0  0  0  0  0  0  0  0  0  0  0  0
    6.6469    0.0035   19.8918 C   0  0  0  0  0  0  0  0  0  0  0  0
    7.1705    0.0462   18.5897 C   0  0  0  0  0  0  0  0  0  0  0  0
    8.1232   -0.4349   18.3735 H   0  0  0  0  0  0  0  0  0  0  0  0
    6.5705    0.6770   17.5790 N   0  0  0  0  0  0  0  0  0  0  0  0
    5.4043    1.2925   17.8385 C   0  0  0  0  0  0  0  0  0  0  0  0
    4.9187    1.7796   16.9980 H   0  0  0  0  0  0  0  0  0  0  0  0
    4.7956    1.3033   19.0968 C   0  0  0  0  0  0  0  0  0  0  0  0
    3.8714    1.8454   19.2614 H   0  0  0  0  0  0  0  0  0  0  0  0
    5.4185    0.6316   20.1413 C   0  0  0  0  0  0  0  0  0  0  0  0
    5.0056    0.6413   21.1525 H   0  0  0  0  0  0  0  0  0  0  0  0
    7.6232   -0.3093   22.2294 C   0  0  0  0  0  0  0  0  0  0  0  0
    7.4136    0.9698   22.8394 C   0  0  0  0  0  0  0  0  0  0  0  0
    7.0981    2.0565   22.1740 N   0  0  0  0  0  0  0  0  0  0  0  0
    7.0053    3.0522   23.1213 C   0  0  0  0  0  0  0  0  0  0  0  0
    6.6986    4.4225   22.9921 C   0  0  0  0  0  0  0  0  0  0  0  0
    6.4950    4.8343   22.0057 H   0  0  0  0  0  0  0  0  0  0  0  0
    6.6696    5.2032   24.1481 C   0  0  0  0  0  0  0  0  0  0  0  0
    6.4382    6.2644   24.0740 H   0  0  0  0  0  0  0  0  0  0  0  0
    6.9385    4.6369   25.4240 C   0  0  0  0  0  0  0  0  0  0  0  0
    6.9119    5.2630   26.3114 H   0  0  0  0  0  0  0  0  0  0  0  0
    7.2388    3.2838   25.5649 C   0  0  0  0  0  0  0  0  0  0  0  0
    7.4510    2.8128   26.5228 H   0  0  0  0  0  0  0  0  0  0  0  0
    7.2636    2.5183   24.4003 C   0  0  0  0  0  0  0  0  0  0  0  0
    7.5192    1.1923   24.1830 N   0  0  0  0  0  0  0  0  0  0  0  0
    7.7504    0.5109   24.8795 H   0  0  0  0  0  0  0  0  0  0  0  0
    8.2359   -1.3538   22.8740 O   0  0  0  0  0  0  0  0  0  0  0  0
  1  2  1  0
  2  3  2  0
  3  4  1  0
  4  5  1  0
  5  6  2  0
  6  7  1  0
  6  8  1  0
  8  9  2  0
  9 10  1  0
  9 11  1  0
 11 12  1  0
 11 13  2  0
 13 14  1  0
  4 15  2  0
 15 16  1  0
 16 17  2  0
 17 18  1  0
 18 19  2  0
 19 20  1  0
 19 21  1  0
 21 22  1  0
 21 23  2  0
 23 24  1  0
 23 25  1  0
 25 26  1  0
 25 27  2  0
 27 28  1  0
 28 29  1  0
 15 30  1  0
 30  2  1  0
 13  5  1  0
 28 16  1  0
 27 18  1  0
M  END
>  <cnnaffinity>  (1) 
-5.21479

>  <filename>  (1) 
c1cncc(-c2ncoc2-c2nc3ccccc3[nH]2)c1

$$$$
