
     RDKit          3D

 30 32  0  0  0  0  0  0  0  0999 V2000
    5.0352    1.9639   16.9879 H   0  0  0  0  0  0  0  0  0  0  0  0
    5.4373    1.3615   17.7988 C   0  0  0  0  0  0  0  0  0  0  0  0
    6.5577    0.6720   17.5254 N   0  0  0  0  0  0  0  0  0  0  0  0
    7.1022   -0.0663   18.5095 C   0  0  0  0  0  0  0  0  0  0  0  0
    8.0109   -0.6147   18.2543 H   0  0  0  0  0  0  0  0  0  0  0  0
    6.5497   -0.1750   19.8157 C   0  0  0  0  0  0  0  0  0  0  0  0
    7.0233   -0.9865   20.8729 N   0  0  0  0  0  0  0  0  0  0  0  0
    6.5601   -0.7698   21.7508 H   0  0  0  0  0  0  0  0  0  0  0  0
    8.6272   -1.5037   21.1064 S   0  0  0  0  0  0  0  0  0  0  0  0
    9.4766   -0.0090   21.6073 C   0  0  0  0  0  0  0  0  0  0  0  0
    9.8558    0.8874   20.6347 C   0  0  0  0  0  0  0  0  0  0  0  0
    9.5931    0.6611   19.6084 H   0  0  0  0  0  0  0  0  0  0  0  0
   10.5794    2.0666   20.9514 C   0  0  0  0  0  0  0  0  0  0  0  0
   10.9770    2.7040   20.1698 H   0  0  0  0  0  0  0  0  0  0  0  0
   10.8110    2.3859   22.2572 C   0  0  0  0  0  0  0  0  0  0  0  0
   11.3660    3.2799   22.5341 H   0  0  0  0  0  0  0  0  0  0  0  0
   10.3301    1.5451   23.2947 C   0  0  0  0  0  0  0  0  0  0  0  0
   10.4684    1.9405   24.6456 C   0  0  0  0  0  0  0  0  0  0  0  0
   10.8594    2.9355   24.8347 H   0  0  0  0  0  0  0  0  0  0  0  0
   10.1196    1.0799   25.6452 C   0  0  0  0  0  0  0  0  0  0  0  0
   10.2480    1.3978   26.6547 H   0  0  0  0  0  0  0  0  0  0  0  0
    9.6165   -0.2164   25.3715 C   0  0  0  0  0  0  0  0  0  0  0  0
    9.3615   -0.8725   26.1998 H   0  0  0  0  0  0  0  0  0  0  0  0
    9.4206   -0.6108   24.0651 C   0  0  0  0  0  0  0  0  0  0  0  0
    9.0338   -1.5998   23.8372 H   0  0  0  0  0  0  0  0  0  0  0  0
    9.7310    0.2770   22.9913 C   0  0  0  0  0  0  0  0  0  0  0  0
    5.3685    0.5430   20.0603 C   0  0  0  0  0  0  0  0  0  0  0  0
    4.9292    0.4790   21.0541 H   0  0  0  0  0  0  0  0  0  0  0  0
    4.8061    1.3210   19.0470 C   0  0  0  0  0  0  0  0  0  0  0  0
    3.9099    1.9064   19.2225 H   0  0  0  0  0  0  0  0  0  0  0  0
  1  2  1  0
  2  3  2  0
  3  4  1  0
  4  5  1  0
  4  6  2  0
  6  7  1  0
  7  8  1  0
  7  9  1  0
  9 10  1  0
 10 11  2  0
 11 12  1  0
 11 13  1  0
 13 14  1  0
 13 15  2  0
 15 16  1  0
 15 17  1  0
 17 18  2  0
 18 19  1  0
 18 20  1  0
 20 21  1  0
 20 22  2  0
 22 23  1  0
 22 24  1  0
 24 25  1  0
 24 26  2  0
  6 27  1  0
 27 28  1  0
 27 29  2  0
 29 30  1  0
 29  2  1  0
 26 10  1  0
 26 17  1  0
M  END
>  <cnnaffinity>  (1) 
-5.05597

>  <filename>  (1) 
c1cncc(NSc2cccc3ccccc23)c1

$$$$
