
     RDKit          3D

 39 41  0  0  0  0  0  0  0  0999 V2000
    4.9156    1.7878   16.9906 H   0  0  0  0  0  0  0  0  0  0  0  0
    5.3990    1.2968   17.8317 C   0  0  0  0  0  0  0  0  0  0  0  0
    6.5652    0.6816   17.5737 N   0  0  0  0  0  0  0  0  0  0  0  0
    7.1715    0.0522   18.5917 C   0  0  0  0  0  0  0  0  0  0  0  0
    8.1232   -0.4253   18.3626 H   0  0  0  0  0  0  0  0  0  0  0  0
    6.6616   -0.0101   19.9089 C   0  0  0  0  0  0  0  0  0  0  0  0
    7.3217   -0.7115   20.9265 N   0  0  0  0  0  0  0  0  0  0  0  0
    7.8733   -1.5216   20.6815 H   0  0  0  0  0  0  0  0  0  0  0  0
    7.4486   -0.2783   22.2507 C   0  0  0  0  0  0  0  0  0  0  0  0
    7.2431    1.0040   22.8120 C   0  0  0  0  0  0  0  0  0  0  0  0
    6.9846    1.9032   22.2729 H   0  0  0  0  0  0  0  0  0  0  0  0
    7.4405    1.0158   24.1273 N   0  0  0  0  0  0  0  0  0  0  0  0
    7.7761   -0.2544   24.4031 N   0  0  0  0  0  0  0  0  0  0  0  0
    7.9466   -0.5207   25.3587 H   0  0  0  0  0  0  0  0  0  0  0  0
    7.8074   -1.0759   23.3199 C   0  0  0  0  0  0  0  0  0  0  0  0
    8.0556   -2.5437   23.3677 C   0  0  0  0  0  0  0  0  0  0  0  0
    8.5433   -2.8287   24.3128 H   0  0  0  0  0  0  0  0  0  0  0  0
    8.7717   -2.7928   22.5716 H   0  0  0  0  0  0  0  0  0  0  0  0
    6.7699   -3.3741   23.1794 C   0  0  0  0  0  0  0  0  0  0  0  0
    6.2680   -3.0137   22.2674 H   0  0  0  0  0  0  0  0  0  0  0  0
    7.1066   -4.8595   22.9768 C   0  0  0  0  0  0  0  0  0  0  0  0
    7.7662   -4.9772   22.1064 H   0  0  0  0  0  0  0  0  0  0  0  0
    7.6803   -5.2092   23.8491 H   0  0  0  0  0  0  0  0  0  0  0  0
    5.8488   -5.7216   22.8115 C   0  0  0  0  0  0  0  0  0  0  0  0
    5.3461   -5.4368   21.8762 H   0  0  0  0  0  0  0  0  0  0  0  0
    6.1240   -6.7774   22.7107 H   0  0  0  0  0  0  0  0  0  0  0  0
    4.8753   -5.5271   23.9833 C   0  0  0  0  0  0  0  0  0  0  0  0
    5.3419   -5.9101   24.9022 H   0  0  0  0  0  0  0  0  0  0  0  0
    3.9647   -6.1159   23.8264 H   0  0  0  0  0  0  0  0  0  0  0  0
    4.5263   -4.0472   24.1870 C   0  0  0  0  0  0  0  0  0  0  0  0
    3.8698   -3.9195   25.0559 H   0  0  0  0  0  0  0  0  0  0  0  0
    3.9613   -3.6844   23.3176 H   0  0  0  0  0  0  0  0  0  0  0  0
    5.7837   -3.1867   24.3475 C   0  0  0  0  0  0  0  0  0  0  0  0
    6.2943   -3.4523   25.2849 H   0  0  0  0  0  0  0  0  0  0  0  0
    5.4919   -2.1370   24.4511 H   0  0  0  0  0  0  0  0  0  0  0  0
    5.4425    0.6425   20.1557 C   0  0  0  0  0  0  0  0  0  0  0  0
    5.0330    0.6140   21.1664 H   0  0  0  0  0  0  0  0  0  0  0  0
    4.8102    1.3063   19.1001 C   0  0  0  0  0  0  0  0  0  0  0  0
    3.8820    1.8362   19.2605 H   0  0  0  0  0  0  0  0  0  0  0  0
  1  2  1  0
  2  3  2  0
  3  4  1  0
  4  5  1  0
  4  6  2  0
  6  7  1  0
  7  8  1  0
  7  9  1  0
  9 10  1  0
 10 11  1  0
 10 12  2  0
 12 13  1  0
 13 14  1  0
 13 15  1  0
 15 16  1  0
 16 17  1  0
 16 18  1  0
 16 19  1  0
 19 20  1  0
 19 21  1  0
 21 22  1  0
 21 23  1  0
 21 24  1  0
 24 25  1  0
 24 26  1  0
 24 27  1  0
 27 28  1  0
 27 29  1  0
 27 30  1  0
 30 31  1  0
 30 32  1  0
 30 33  1  0
 33 34  1  0
 33 35  1  0
  6 36  1  0
 36 37  1  0
 36 38  2  0
 38 39  1  0
 38  2  1  0
 15  9  2  0
 33 19  1  0
M  END
>  <cnnaffinity>  (1) 
-5.53893

>  <filename>  (1) 
c1cncc(Nc2cn[nH]c2CC2CCCCC2)c1

$$$$
