
     RDKit          3D

 49 54  0  0  0  0  0  0  0  0999 V2000
    4.8010    1.3101   19.0590 C   0  0  0  0  0  0  0  0  0  0  0  0
    5.3966    1.3027   17.7949 C   0  0  0  0  0  0  0  0  0  0  0  0
    6.5439    0.6628   17.5203 N   0  0  0  0  0  0  0  0  0  0  0  0
    7.1367    0.0142   18.5314 C   0  0  0  0  0  0  0  0  0  0  0  0
    6.6310   -0.0453   19.8430 C   0  0  0  0  0  0  0  0  0  0  0  0
    7.4091   -0.6863   20.9872 C   0  0  0  0  0  0  0  0  0  0  0  0
    8.3013    0.2990   21.6942 C   0  0  0  0  0  0  0  0  0  0  0  0
    7.8275    1.1281   22.6054 N   0  0  0  0  0  0  0  0  0  0  0  0
    8.9140    1.8680   22.9385 N   0  0  0  0  0  0  0  0  0  0  0  0
    8.8786    2.9098   23.9738 C   0  0  0  0  0  0  0  0  0  0  0  0
    8.1231    4.1899   23.5377 C   0  0  0  0  0  0  0  0  0  0  0  0
    6.8313    4.2531   24.3925 C   0  0  0  0  0  0  0  0  0  0  0  0
    7.0232    3.1930   25.4616 C   0  0  0  0  0  0  0  0  0  0  0  0
    6.2077    2.8622   26.5505 C   0  0  0  0  0  0  0  0  0  0  0  0
    6.5928    1.8062   27.3899 C   0  0  0  0  0  0  0  0  0  0  0  0
    7.7762    1.0914   27.1538 C   0  0  0  0  0  0  0  0  0  0  0  0
    8.5851    1.4149   26.0596 C   0  0  0  0  0  0  0  0  0  0  0  0
    8.1815    2.4586   25.2269 C   0  0  0  0  0  0  0  0  0  0  0  0
    9.5008    0.8628   25.8502 H   0  0  0  0  0  0  0  0  0  0  0  0
    8.0702    0.2793   27.8137 H   0  0  0  0  0  0  0  0  0  0  0  0
    5.9624    1.5347   28.2322 H   0  0  0  0  0  0  0  0  0  0  0  0
    5.2842    3.4059   26.7377 H   0  0  0  0  0  0  0  0  0  0  0  0
    6.6798    5.2469   24.8229 H   0  0  0  0  0  0  0  0  0  0  0  0
    5.9485    4.0257   23.7835 H   0  0  0  0  0  0  0  0  0  0  0  0
    8.7642    5.0584   23.7302 H   0  0  0  0  0  0  0  0  0  0  0  0
    7.9072    4.1699   22.4630 H   0  0  0  0  0  0  0  0  0  0  0  0
    9.9161    3.1271   24.2328 H   0  0  0  0  0  0  0  0  0  0  0  0
    9.9662    1.4784   22.1825 C   0  0  0  0  0  0  0  0  0  0  0  0
   11.2790    2.0913   22.2641 C   0  0  0  0  0  0  0  0  0  0  0  0
   11.5126    3.4652   22.2825 C   0  0  0  0  0  0  0  0  0  0  0  0
   12.7239    4.0286   22.4812 N   0  0  0  0  0  0  0  0  0  0  0  0
   13.7884    3.2329   22.6580 C   0  0  0  0  0  0  0  0  0  0  0  0
   13.6794    1.8200   22.6471 C   0  0  0  0  0  0  0  0  0  0  0  0
   12.4123    1.2877   22.3933 C   0  0  0  0  0  0  0  0  0  0  0  0
   12.5811   -0.0546   22.2840 N   0  0  0  0  0  0  0  0  0  0  0  0
   13.9212   -0.2945   22.4532 C   0  0  0  0  0  0  0  0  0  0  0  0
   14.6145    0.7808   22.6855 N   0  0  0  0  0  0  0  0  0  0  0  0
   14.3344   -1.2934   22.3918 H   0  0  0  0  0  0  0  0  0  0  0  0
   11.8758   -0.6403   21.8672 H   0  0  0  0  0  0  0  0  0  0  0  0
   14.7535    3.7180   22.7878 H   0  0  0  0  0  0  0  0  0  0  0  0
   10.6758    4.1577   22.1803 H   0  0  0  0  0  0  0  0  0  0  0  0
    9.6243    0.4492   21.4231 N   0  0  0  0  0  0  0  0  0  0  0  0
    6.7107   -1.0976   21.7260 H   0  0  0  0  0  0  0  0  0  0  0  0
    8.0306   -1.5135   20.6327 H   0  0  0  0  0  0  0  0  0  0  0  0
    5.4342    0.6341   20.1050 C   0  0  0  0  0  0  0  0  0  0  0  0
    5.0240    0.6529   21.1179 H   0  0  0  0  0  0  0  0  0  0  0  0
    8.0801   -0.4777   18.2901 H   0  0  0  0  0  0  0  0  0  0  0  0
    4.9339    1.8357   16.9657 H   0  0  0  0  0  0  0  0  0  0  0  0
    3.8748    1.8518   19.2144 H   0  0  0  0  0  0  0  0  0  0  0  0
  1  2  2  0
  2  3  1  0
  3  4  2  0
  4  5  1  0
  5  6  1  0
  6  7  1  0
  7  8  2  0
  8  9  1  0
  9 10  1  0
 10 11  1  0
 11 12  1  0
 12 13  1  0
 13 14  2  0
 14 15  1  0
 15 16  2  0
 16 17  1  0
 17 18  2  0
 17 19  1  0
 16 20  1  0
 15 21  1  0
 14 22  1  0
 12 23  1  0
 12 24  1  0
 11 25  1  0
 11 26  1  0
 10 27  1  0
  9 28  1  0
 28 29  1  0
 29 30  2  0
 30 31  1  0
 31 32  2  0
 32 33  1  0
 33 34  2  0
 34 35  1  0
 35 36  1  0
 36 37  2  0
 36 38  1  0
 35 39  1  0
 32 40  1  0
 30 41  1  0
 28 42  2  0
  6 43  1  0
  6 44  1  0
  5 45  2  0
 45 46  1  0
  4 47  1  0
  2 48  1  0
  1 49  1  0
 45  1  1  0
 42  7  1  0
 18 10  1  0
 34 29  1  0
 18 13  1  0
 37 33  1  0
M  END
>  <cnnaffinity>  (1) 
-7.00376

>  <filename>  (1) 
c1cncc(Cc2nc(-c3cncc4nc[nH]c34)n(C3CCc4ccccc43)n2)c1

$$$$
