
     RDKit          3D

 55 59  0  0  0  0  0  0  0  0999 V2000
    4.7700    1.3300   19.0025 C   0  0  0  0  0  0  0  0  0  0  0  0
    5.3998    1.3116   17.7547 C   0  0  0  0  0  0  0  0  0  0  0  0
    6.5343    0.6379   17.5069 N   0  0  0  0  0  0  0  0  0  0  0  0
    7.0939   -0.0207   18.5293 C   0  0  0  0  0  0  0  0  0  0  0  0
    6.5763   -0.0339   19.8375 C   0  0  0  0  0  0  0  0  0  0  0  0
    7.3347   -0.6433   21.0126 C   0  0  0  0  0  0  0  0  0  0  0  0
    8.2044    0.3386   21.7492 C   0  0  0  0  0  0  0  0  0  0  0  0
    7.7772    1.0625   22.7651 N   0  0  0  0  0  0  0  0  0  0  0  0
    8.8625    1.7973   23.0973 N   0  0  0  0  0  0  0  0  0  0  0  0
    8.7655    2.7282   24.2079 C   0  0  0  0  0  0  0  0  0  0  0  0
    7.9474    3.9537   23.8179 C   0  0  0  0  0  0  0  0  0  0  0  0
    7.9380    4.9690   24.8969 N   0  0  0  0  0  4  0  0  0  0  0  0
    6.8652    5.9985   24.6864 C   0  0  0  0  0  0  0  0  0  0  0  0
    6.6603    6.8182   25.9676 C   0  0  0  0  0  0  0  0  0  0  0  0
    7.9663    7.0023   26.7770 C   0  0  0  0  0  0  0  0  0  0  0  0
    9.1918    6.9623   25.8543 C   0  0  0  0  0  0  0  0  0  0  0  0
    9.3082    5.6144   25.1271 C   0  0  0  0  0  0  0  0  0  0  0  0
    9.9216    4.9230   25.7135 H   0  0  0  0  0  0  0  0  0  0  0  0
    9.8014    5.7339   24.1539 H   0  0  0  0  0  0  0  0  0  0  0  0
    9.1110    7.7647   25.1104 H   0  0  0  0  0  0  0  0  0  0  0  0
   10.1158    7.1467   26.4103 H   0  0  0  0  0  0  0  0  0  0  0  0
    7.9366    7.9410   27.3422 H   0  0  0  0  0  0  0  0  0  0  0  0
    8.0491    6.2020   27.5263 H   0  0  0  0  0  0  0  0  0  0  0  0
    5.8995    6.3358   26.5923 H   0  0  0  0  0  0  0  0  0  0  0  0
    6.2528    7.7917   25.6730 H   0  0  0  0  0  0  0  0  0  0  0  0
    7.1675    6.6381   23.8483 H   0  0  0  0  0  0  0  0  0  0  0  0
    5.9428    5.4942   24.3816 H   0  0  0  0  0  0  0  0  0  0  0  0
    7.6842    4.4867   25.7882 H   0  0  0  0  0  0  0  0  0  0  0  0
    6.9243    3.6434   23.5755 H   0  0  0  0  0  0  0  0  0  0  0  0
    8.3506    4.4057   22.9010 H   0  0  0  0  0  0  0  0  0  0  0  0
    8.2967    2.2381   25.0678 H   0  0  0  0  0  0  0  0  0  0  0  0
    9.7727    3.0174   24.5041 H   0  0  0  0  0  0  0  0  0  0  0  0
    9.8832    1.5074   22.2499 C   0  0  0  0  0  0  0  0  0  0  0  0
   11.2365    2.1445   22.3589 C   0  0  0  0  0  0  0  0  0  0  0  0
   11.4803    3.5345   22.4617 C   0  0  0  0  0  0  0  0  0  0  0  0
   12.7829    4.0262   22.6932 C   0  0  0  0  0  0  0  0  0  0  0  0
   13.8781    3.2695   22.8347 N   0  0  0  0  0  0  0  0  0  0  0  0
   13.6365    1.9666   22.6801 C   0  0  0  0  0  0  0  0  0  0  0  0
   12.3878    1.3305   22.4058 C   0  0  0  0  0  0  0  0  0  0  0  0
   12.6724   -0.0756   22.2737 C   0  0  0  0  0  0  0  0  0  0  0  0
   14.0145   -0.2370   22.4656 C   0  0  0  0  0  0  0  0  0  0  0  0
   14.5887    0.9906   22.7249 N   0  0  0  0  0  0  0  0  0  0  0  0
   15.5557    1.2416   22.8113 H   0  0  0  0  0  0  0  0  0  0  0  0
   14.6022   -1.1518   22.4401 H   0  0  0  0  0  0  0  0  0  0  0  0
   11.9308   -0.8357   22.0424 H   0  0  0  0  0  0  0  0  0  0  0  0
   12.9449    5.0953   22.7701 H   0  0  0  0  0  0  0  0  0  0  0  0
   10.6891    4.2717   22.3615 H   0  0  0  0  0  0  0  0  0  0  0  0
    9.4956    0.5661   21.4001 N   0  0  0  0  0  0  0  0  0  0  0  0
    7.9836   -1.4553   20.6704 H   0  0  0  0  0  0  0  0  0  0  0  0
    6.6302   -1.0629   21.7382 H   0  0  0  0  0  0  0  0  0  0  0  0
    5.3685    0.6391   20.0579 C   0  0  0  0  0  0  0  0  0  0  0  0
    4.9243    0.6266   21.0544 H   0  0  0  0  0  0  0  0  0  0  0  0
    8.0137   -0.5633   18.3031 H   0  0  0  0  0  0  0  0  0  0  0  0
    4.9764    1.8588   16.9152 H   0  0  0  0  0  0  0  0  0  0  0  0
    3.8494    1.8876   19.1363 H   0  0  0  0  0  0  0  0  0  0  0  0
  1  2  2  0
  2  3  1  0
  3  4  2  0
  4  5  1  0
  5  6  1  0
  6  7  1  0
  7  8  2  0
  8  9  1  0
  9 10  1  0
 10 11  1  0
 11 12  1  0
 12 13  1  0
 13 14  1  0
 14 15  1  0
 15 16  1  0
 16 17  1  0
 17 18  1  0
 17 19  1  0
 16 20  1  0
 16 21  1  0
 15 22  1  0
 15 23  1  0
 14 24  1  0
 14 25  1  0
 13 26  1  0
 13 27  1  0
 12 28  1  0
 11 29  1  0
 11 30  1  0
 10 31  1  0
 10 32  1  0
  9 33  1  0
 33 34  1  0
 34 35  2  0
 35 36  1  0
 36 37  2  0
 37 38  1  0
 38 39  2  0
 39 40  1  0
 40 41  2  0
 41 42  1  0
 42 43  1  0
 41 44  1  0
 40 45  1  0
 36 46  1  0
 35 47  1  0
 33 48  2  0
  6 49  1  0
  6 50  1  0
  5 51  2  0
 51 52  1  0
  4 53  1  0
  2 54  1  0
  1 55  1  0
 51  1  1  0
 48  7  1  0
 17 12  1  0
 39 34  1  0
 42 38  1  0
M  CHG  1  12   1
M  END
>  <cnnaffinity>  (1) 
-6.62727

>  <filename>  (1) 
c1cncc(Cc2nc(-c3ccnc4[nH]ccc34)n(CC[NH+]3CCCCC3)n2)c1

$$$$
