
     RDKit          3D

 39 41  0  0  0  0  0  0  0  0999 V2000
    5.1436    1.6814   16.6383 H   0  0  0  0  0  0  0  0  0  0  0  0
    5.5480    1.2732   17.5650 C   0  0  0  0  0  0  0  0  0  0  0  0
    6.7181    0.6262   17.4846 N   0  0  0  0  0  0  0  0  0  0  0  0
    7.2383    0.1356   18.6243 C   0  0  0  0  0  0  0  0  0  0  0  0
    8.1873   -0.3823   18.5035 H   0  0  0  0  0  0  0  0  0  0  0  0
    6.6348    0.2485   19.8908 C   0  0  0  0  0  0  0  0  0  0  0  0
    7.1925   -0.2623   21.2205 C   0  0  1  0  0  0  0  0  0  0  0  0
    6.3091   -0.6471   21.7529 H   0  0  0  0  0  0  0  0  0  0  0  0
    8.2085   -1.4279   21.1618 C   0  0  0  0  0  0  0  0  0  0  0  0
    8.2755   -1.8500   22.1739 H   0  0  0  0  0  0  0  0  0  0  0  0
    7.8403   -2.2376   20.5300 H   0  0  0  0  0  0  0  0  0  0  0  0
    9.6259   -1.0009   20.7715 C   0  0  0  0  0  0  0  0  0  0  0  0
   10.3125   -1.8556   20.8065 H   0  0  0  0  0  0  0  0  0  0  0  0
    9.6561   -0.6242   19.7440 H   0  0  0  0  0  0  0  0  0  0  0  0
   10.1332    0.0446   21.6611 N   0  0  0  0  0  0  0  0  0  0  0  0
   10.1180   -0.3475   22.6048 H   0  0  0  0  0  0  0  0  0  0  0  0
    9.2350    1.2148   21.7135 C   0  0  0  0  0  0  0  0  0  0  0  0
    9.6490    1.9152   22.4492 H   0  0  0  0  0  0  0  0  0  0  0  0
    9.2558    1.7273   20.7431 H   0  0  0  0  0  0  0  0  0  0  0  0
    7.7647    0.9172   22.0868 C   0  0  2  0  0  0  0  0  0  0  0  0
    7.1698    1.8313   21.9165 H   0  0  0  0  0  0  0  0  0  0  0  0
    7.7679    0.5974   23.4734 O   0  0  0  0  0  0  0  0  0  0  0  0
    6.5323    0.4313   24.1516 C   0  0  0  0  0  0  0  0  0  0  0  0
    6.2093    1.3844   24.5970 H   0  0  0  0  0  0  0  0  0  0  0  0
    5.7369    0.1091   23.4733 H   0  0  0  0  0  0  0  0  0  0  0  0
    6.7530   -0.6267   25.2118 C   0  0  0  0  0  0  0  0  0  0  0  0
    6.1764   -1.8945   25.1021 C   0  0  0  0  0  0  0  0  0  0  0  0
    5.4860   -2.1347   24.3045 H   0  0  0  0  0  0  0  0  0  0  0  0
    6.4998   -2.8812   26.0347 C   0  0  0  0  0  0  0  0  0  0  0  0
    6.0698   -3.8759   25.9369 H   0  0  0  0  0  0  0  0  0  0  0  0
    7.3324   -2.6822   27.0599 N   0  0  0  0  0  0  0  0  0  0  0  0
    7.8728   -1.4601   27.1790 C   0  0  0  0  0  0  0  0  0  0  0  0
    8.5596   -1.3174   28.0063 H   0  0  0  0  0  0  0  0  0  0  0  0
    7.6213   -0.4112   26.2885 C   0  0  0  0  0  0  0  0  0  0  0  0
    8.1144    0.5448   26.4239 H   0  0  0  0  0  0  0  0  0  0  0  0
    5.3943    0.9154   19.9332 C   0  0  0  0  0  0  0  0  0  0  0  0
    4.8746    1.0309   20.8879 H   0  0  0  0  0  0  0  0  0  0  0  0
    4.8403    1.4293   18.7611 C   0  0  0  0  0  0  0  0  0  0  0  0
    3.8987    1.9702   18.7687 H   0  0  0  0  0  0  0  0  0  0  0  0
  1  2  1  0
  2  3  2  0
  3  4  1  0
  4  5  1  0
  4  6  2  0
  6  7  1  0
  7  8  1  1
  7  9  1  0
  9 10  1  0
  9 11  1  0
  9 12  1  0
 12 13  1  0
 12 14  1  0
 12 15  1  0
 15 16  1  0
 15 17  1  0
 17 18  1  0
 17 19  1  0
 17 20  1  0
 20 21  1  1
 20 22  1  0
 22 23  1  0
 23 24  1  0
 23 25  1  0
 23 26  1  0
 26 27  2  0
 27 28  1  0
 27 29  1  0
 29 30  1  0
 29 31  2  0
 31 32  1  0
 32 33  1  0
 32 34  2  0
 34 35  1  0
  6 36  1  0
 36 37  1  0
 36 38  2  0
 38 39  1  0
 38  2  1  0
 20  7  1  0
 34 26  1  0
M  END
>  <cnnaffinity>  (1) 
-4.43416

>  <filename>  (1) 
c1cncc([C@H]2CCNC[C@@H]2OCc2ccncc2)c1

$$$$
