
     RDKit          3D

 29 31  0  0  0  0  0  0  0  0999 V2000
    4.9051    1.8487   16.9701 H   0  0  0  0  0  0  0  0  0  0  0  0
    5.3621    1.2935   17.7862 C   0  0  0  0  0  0  0  0  0  0  0  0
    6.5071    0.6589   17.4952 N   0  0  0  0  0  0  0  0  0  0  0  0
    7.1259    0.0147   18.4914 C   0  0  0  0  0  0  0  0  0  0  0  0
    8.0741   -0.4729   18.2614 H   0  0  0  0  0  0  0  0  0  0  0  0
    6.6259   -0.0330   19.8077 C   0  0  0  0  0  0  0  0  0  0  0  0
    7.6291   -0.8267   21.0771 S   0  0  0  0  0  0  0  0  0  0  0  0
    8.5333    0.5950   21.6165 C   0  0  0  0  0  0  0  0  0  0  0  0
    9.7072    1.0353   21.2066 N   0  0  0  0  0  0  0  0  0  0  0  0
    9.8907    2.2181   21.8436 N   0  0  0  0  0  0  0  0  0  0  0  0
    8.8950    2.4956   22.6018 N   0  0  0  0  0  0  0  0  0  0  0  0
    8.0189    1.4956   22.4938 N   0  0  0  0  0  0  0  0  0  0  0  0
    6.8081    1.5866   23.2136 N   0  0  0  0  0  0  0  0  0  0  0  0
    6.9653    2.4061   23.7989 H   0  0  0  0  0  0  0  0  0  0  0  0
    6.4180    0.4299   24.0518 C   0  0  0  0  0  0  0  0  0  0  0  0
    5.6172    0.7947   24.7082 H   0  0  0  0  0  0  0  0  0  0  0  0
    5.9552   -0.3088   23.3994 H   0  0  0  0  0  0  0  0  0  0  0  0
    7.5034   -0.2539   24.8594 C   0  0  0  0  0  0  0  0  0  0  0  0
    7.6850   -1.9748   24.7602 S   0  0  0  0  0  0  0  0  0  0  0  0
    8.9943   -1.9677   25.8686 C   0  0  0  0  0  0  0  0  0  0  0  0
    9.5079   -2.8875   26.1156 H   0  0  0  0  0  0  0  0  0  0  0  0
    9.2694   -0.7080   26.3083 C   0  0  0  0  0  0  0  0  0  0  0  0
   10.0504   -0.4884   27.0274 H   0  0  0  0  0  0  0  0  0  0  0  0
    8.4139    0.2793   25.7268 C   0  0  0  0  0  0  0  0  0  0  0  0
    8.4673    1.3405   25.9627 H   0  0  0  0  0  0  0  0  0  0  0  0
    5.4203    0.6185   20.0937 C   0  0  0  0  0  0  0  0  0  0  0  0
    5.0267    0.6477   21.1148 H   0  0  0  0  0  0  0  0  0  0  0  0
    4.7716    1.2944   19.0552 C   0  0  0  0  0  0  0  0  0  0  0  0
    3.8582    1.8540   19.2271 H   0  0  0  0  0  0  0  0  0  0  0  0
  1  2  1  0
  2  3  2  0
  3  4  1  0
  4  5  1  0
  4  6  2  0
  6  7  1  0
  7  8  1  0
  8  9  2  0
  9 10  1  0
 10 11  2  0
 11 12  1  0
 12 13  1  0
 13 14  1  0
 13 15  1  0
 15 16  1  0
 15 17  1  0
 15 18  1  0
 18 19  1  0
 19 20  1  0
 20 21  1  0
 20 22  2  0
 22 23  1  0
 22 24  1  0
 24 25  1  0
  6 26  1  0
 26 27  1  0
 26 28  2  0
 28 29  1  0
 28  2  1  0
 12  8  1  0
 24 18  2  0
M  END
>  <cnnaffinity>  (1) 
-5.10803

>  <filename>  (1) 
c1cncc(Sc2nnnn2NCc2cccs2)c1

$$$$
