
     RDKit          3D

 40 43  0  0  0  0  0  0  0  0999 V2000
    4.8218    1.3228   19.0312 C   0  0  0  0  0  0  0  0  0  0  0  0
    5.4485    1.2937   17.7812 C   0  0  0  0  0  0  0  0  0  0  0  0
    6.6092    0.6607   17.5516 N   0  0  0  0  0  0  0  0  0  0  0  0
    7.1903    0.0428   18.5851 C   0  0  0  0  0  0  0  0  0  0  0  0
    6.6515    0.0192   19.8849 C   0  0  0  0  0  0  0  0  0  0  0  0
    7.3454   -0.6767   20.9708 C   0  0  0  0  0  0  0  0  0  0  0  0
    6.9745   -0.8066   22.2876 C   0  0  0  0  0  0  0  0  0  0  0  0
    7.9492   -1.5538   22.8490 N   0  0  0  0  0  0  0  0  0  0  0  0
    7.9916   -2.0954   24.1978 C   0  0  0  0  0  0  0  0  0  0  0  0
    7.2087   -3.4118   24.2978 C   0  0  0  0  0  0  0  0  0  0  0  0
    7.1783   -3.8780   25.6335 O   0  0  0  0  0  0  0  0  0  0  0  0
    6.2677   -3.4244   26.5431 C   0  0  0  0  0  0  0  0  0  0  0  0
    5.3765   -2.3884   26.3416 C   0  0  0  0  0  0  0  0  0  0  0  0
    4.5230   -1.9767   27.4077 C   0  0  0  0  0  0  0  0  0  0  0  0
    4.5452   -2.6079   28.6285 C   0  0  0  0  0  0  0  0  0  0  0  0
    5.4334   -3.7005   28.8576 C   0  0  0  0  0  0  0  0  0  0  0  0
    5.5635   -4.3282   30.1369 C   0  0  0  0  0  0  0  0  0  0  0  0
    6.4371   -5.3744   30.3219 C   0  0  0  0  0  0  0  0  0  0  0  0
    7.2171   -5.8624   29.2449 C   0  0  0  0  0  0  0  0  0  0  0  0
    7.1487   -5.2565   28.0177 C   0  0  0  0  0  0  0  0  0  0  0  0
    6.2933   -4.1381   27.7971 C   0  0  0  0  0  0  0  0  0  0  0  0
    7.7214   -5.6392   27.1802 H   0  0  0  0  0  0  0  0  0  0  0  0
    7.8608   -6.7295   29.3760 H   0  0  0  0  0  0  0  0  0  0  0  0
    6.5386   -5.8525   31.2906 H   0  0  0  0  0  0  0  0  0  0  0  0
    4.9503   -3.9813   30.9621 H   0  0  0  0  0  0  0  0  0  0  0  0
    3.9001   -2.2731   29.4367 H   0  0  0  0  0  0  0  0  0  0  0  0
    3.8407   -1.1487   27.2368 H   0  0  0  0  0  0  0  0  0  0  0  0
    5.2908   -1.9028   25.3751 H   0  0  0  0  0  0  0  0  0  0  0  0
    6.1967   -3.3195   23.8818 H   0  0  0  0  0  0  0  0  0  0  0  0
    7.7330   -4.1920   23.7405 H   0  0  0  0  0  0  0  0  0  0  0  0
    7.5754   -1.3483   24.8809 H   0  0  0  0  0  0  0  0  0  0  0  0
    9.0376   -2.2568   24.4672 H   0  0  0  0  0  0  0  0  0  0  0  0
    8.8726   -1.8778   21.9406 N   0  0  0  0  0  0  0  0  0  0  0  0
    8.5234   -1.3481   20.8107 N   0  0  0  0  0  0  0  0  0  0  0  0
    6.1361   -0.4226   22.8449 H   0  0  0  0  0  0  0  0  0  0  0  0
    5.4312    0.6770   20.1032 C   0  0  0  0  0  0  0  0  0  0  0  0
    4.9660    0.6847   21.0898 H   0  0  0  0  0  0  0  0  0  0  0  0
    8.1295   -0.4649   18.3748 H   0  0  0  0  0  0  0  0  0  0  0  0
    4.9982    1.7959   16.9273 H   0  0  0  0  0  0  0  0  0  0  0  0
    3.8851    1.8534   19.1524 H   0  0  0  0  0  0  0  0  0  0  0  0
  1  2  2  0
  2  3  1  0
  3  4  2  0
  4  5  1  0
  5  6  1  0
  6  7  2  0
  7  8  1  0
  8  9  1  0
  9 10  1  0
 10 11  1  0
 11 12  1  0
 12 13  2  0
 13 14  1  0
 14 15  2  0
 15 16  1  0
 16 17  2  0
 17 18  1  0
 18 19  2  0
 19 20  1  0
 20 21  2  0
 20 22  1  0
 19 23  1  0
 18 24  1  0
 17 25  1  0
 15 26  1  0
 14 27  1  0
 13 28  1  0
 10 29  1  0
 10 30  1  0
  9 31  1  0
  9 32  1  0
  8 33  1  0
 33 34  2  0
  7 35  1  0
  5 36  2  0
 36 37  1  0
  4 38  1  0
  2 39  1  0
  1 40  1  0
 36  1  1  0
 34  6  1  0
 21 12  1  0
 21 16  1  0
M  END
>  <cnnaffinity>  (1) 
-5.21206

>  <filename>  (1) 
c1cncc(-c2cn(CCOc3cccc4ccccc34)nn2)c1

$$$$
