
     RDKit          3D

 49 53  0  0  0  0  0  0  0  0999 V2000
    4.7672    1.3409   18.8455 C   0  0  0  0  0  0  0  0  0  0  0  0
    5.3903    1.2977   17.5953 C   0  0  0  0  0  0  0  0  0  0  0  0
    6.4892    0.5689   17.3423 N   0  0  0  0  0  0  0  0  0  0  0  0
    7.0078   -0.1220   18.3637 C   0  0  0  0  0  0  0  0  0  0  0  0
    6.4936   -0.1208   19.6700 C   0  0  0  0  0  0  0  0  0  0  0  0
    7.2252   -0.7901   20.8276 C   0  0  0  0  0  0  0  0  0  0  0  0
    8.1074    0.1730   21.5690 C   0  0  0  0  0  0  0  0  0  0  0  0
    7.6747    0.8767   22.5928 N   0  0  0  0  0  0  0  0  0  0  0  0
    8.7258    1.6950   22.8726 N   0  0  0  0  0  0  0  0  0  0  0  0
    8.6561    2.6333   23.9541 C   0  0  0  0  0  0  0  0  0  0  0  0
    8.4470    2.1702   25.2350 C   0  0  0  0  0  0  0  0  0  0  0  0
    8.5279    3.0509   26.3424 C   0  0  0  0  0  0  0  0  0  0  0  0
    8.8389    4.3776   26.1465 C   0  0  0  0  0  0  0  0  0  0  0  0
    8.9703    4.9088   24.8324 C   0  0  0  0  0  0  0  0  0  0  0  0
    9.2162    6.2557   24.7127 N   0  0  0  0  0  0  0  0  0  0  0  0
    9.1917    6.7727   23.5058 C   0  0  0  0  0  0  0  0  0  0  0  0
    8.9189    6.0279   22.3239 C   0  0  0  0  0  0  0  0  0  0  0  0
    8.6895    4.6737   22.4228 C   0  0  0  0  0  0  0  0  0  0  0  0
    8.7890    4.0461   23.7035 C   0  0  0  0  0  0  0  0  0  0  0  0
    8.4308    4.0766   21.5468 H   0  0  0  0  0  0  0  0  0  0  0  0
    8.9022    6.5294   21.3629 H   0  0  0  0  0  0  0  0  0  0  0  0
    9.3708    7.8477   23.4379 H   0  0  0  0  0  0  0  0  0  0  0  0
    8.9542    5.0909   26.9514 H   0  0  0  0  0  0  0  0  0  0  0  0
    8.3286    2.6596   27.3412 H   0  0  0  0  0  0  0  0  0  0  0  0
    8.2368    1.1180   25.3927 H   0  0  0  0  0  0  0  0  0  0  0  0
    9.7403    1.4209   22.0033 C   0  0  0  0  0  0  0  0  0  0  0  0
   11.0877    2.0502   22.0328 C   0  0  0  0  0  0  0  0  0  0  0  0
   11.9173    1.5568   23.2377 C   0  0  0  0  0  0  0  0  0  0  0  0
   13.4310    1.7332   23.0367 C   0  0  0  0  0  0  0  0  0  0  0  0
   13.9101    0.3410   22.5521 C   0  0  0  0  0  0  0  0  0  0  0  0
   12.5989   -0.4463   22.4593 C   0  0  0  0  0  0  0  0  0  0  0  0
   11.7601    0.1590   23.4305 O   0  0  0  0  0  0  0  0  0  0  0  0
   12.6879   -1.5061   22.7004 H   0  0  0  0  0  0  0  0  0  0  0  0
   12.1430   -0.3859   21.4590 H   0  0  0  0  0  0  0  0  0  0  0  0
   14.4531    0.3232   21.6036 H   0  0  0  0  0  0  0  0  0  0  0  0
   14.5571   -0.1030   23.3123 H   0  0  0  0  0  0  0  0  0  0  0  0
   13.6607    2.5667   22.3695 H   0  0  0  0  0  0  0  0  0  0  0  0
   13.8780    1.9806   23.9964 H   0  0  0  0  0  0  0  0  0  0  0  0
   11.5484    2.0539   24.1436 H   0  0  0  0  0  0  0  0  0  0  0  0
   11.0069    3.1411   22.0527 H   0  0  0  0  0  0  0  0  0  0  0  0
   11.5698    1.7710   21.0913 H   0  0  0  0  0  0  0  0  0  0  0  0
    9.3805    0.4586   21.1798 N   0  0  0  0  0  0  0  0  0  0  0  0
    6.5047   -1.1918   21.5467 H   0  0  0  0  0  0  0  0  0  0  0  0
    7.8453   -1.6217   20.4773 H   0  0  0  0  0  0  0  0  0  0  0  0
    5.3299    0.6242   19.9035 C   0  0  0  0  0  0  0  0  0  0  0  0
    4.8927    0.6422   20.9044 H   0  0  0  0  0  0  0  0  0  0  0  0
    7.8946   -0.7163   18.1400 H   0  0  0  0  0  0  0  0  0  0  0  0
    4.9933    1.8600   16.7524 H   0  0  0  0  0  0  0  0  0  0  0  0
    3.8771    1.9452   18.9816 H   0  0  0  0  0  0  0  0  0  0  0  0
  1  2  2  0
  2  3  1  0
  3  4  2  0
  4  5  1  0
  5  6  1  0
  6  7  1  0
  7  8  2  0
  8  9  1  0
  9 10  1  0
 10 11  2  0
 11 12  1  0
 12 13  2  0
 13 14  1  0
 14 15  2  0
 15 16  1  0
 16 17  2  0
 17 18  1  0
 18 19  2  0
 18 20  1  0
 17 21  1  0
 16 22  1  0
 13 23  1  0
 12 24  1  0
 11 25  1  0
  9 26  1  0
 26 27  1  0
 27 28  1  0
 28 29  1  0
 29 30  1  0
 30 31  1  0
 31 32  1  0
 31 33  1  0
 31 34  1  0
 30 35  1  0
 30 36  1  0
 29 37  1  0
 29 38  1  0
 28 39  1  0
 27 40  1  0
 27 41  1  0
 26 42  2  0
  6 43  1  0
  6 44  1  0
  5 45  2  0
 45 46  1  0
  4 47  1  0
  2 48  1  0
  1 49  1  0
 45  1  1  0
 42  7  1  0
 19 10  1  0
 32 28  1  0
 19 14  1  0
M  END
>  <cnnaffinity>  (1) 
-5.65109

>  <filename>  (1) 
c1cncc(Cc2nc(CC3CCCO3)n(-c3cccc4ncccc34)n2)c1

$$$$
