
     RDKit          3D

 35 38  0  0  0  0  0  0  0  0999 V2000
    4.9049    1.9534   16.7148 H   0  0  0  0  0  0  0  0  0  0  0  0
    5.4255    1.4428   17.5222 C   0  0  0  0  0  0  0  0  0  0  0  0
    6.5717    0.8263   17.1925 N   0  0  0  0  0  0  0  0  0  0  0  0
    7.2429    0.2039   18.1699 C   0  0  0  0  0  0  0  0  0  0  0  0
    8.1666   -0.2843   17.8582 H   0  0  0  0  0  0  0  0  0  0  0  0
    6.8090    0.1381   19.5075 C   0  0  0  0  0  0  0  0  0  0  0  0
    7.5068   -0.6433   20.5366 C   0  0  0  0  0  0  0  0  0  0  0  0
    8.8951   -0.9572   20.6375 C   0  0  0  0  0  0  0  0  0  0  0  0
    9.6503   -0.5790   19.9633 H   0  0  0  0  0  0  0  0  0  0  0  0
    9.0588   -1.7829   21.7213 C   0  0  0  0  0  0  0  0  0  0  0  0
    9.9303   -2.2667   22.1412 H   0  0  0  0  0  0  0  0  0  0  0  0
    7.8213   -1.9911   22.2971 N   0  0  0  0  0  0  0  0  0  0  0  0
    7.5070   -2.6991   23.4957 C   0  0  0  0  0  0  0  0  0  0  0  0
    6.5985   -3.7382   23.4525 C   0  0  0  0  0  0  0  0  0  0  0  0
    6.1042   -3.9904   22.5139 H   0  0  0  0  0  0  0  0  0  0  0  0
    6.2734   -4.4605   24.6338 C   0  0  0  0  0  0  0  0  0  0  0  0
    5.5324   -5.2532   24.5878 H   0  0  0  0  0  0  0  0  0  0  0  0
    6.8573   -4.1424   25.8390 C   0  0  0  0  0  0  0  0  0  0  0  0
    6.6114   -4.6898   26.7509 H   0  0  0  0  0  0  0  0  0  0  0  0
    7.7582   -3.0320   25.9216 C   0  0  0  0  0  0  0  0  0  0  0  0
    8.3214   -2.6338   27.1676 C   0  0  0  0  0  0  0  0  0  0  0  0
    8.1428   -3.2823   28.0150 H   0  0  0  0  0  0  0  0  0  0  0  0
    9.0498   -1.4742   27.2811 C   0  0  0  0  0  0  0  0  0  0  0  0
    9.4412   -1.1483   28.2433 H   0  0  0  0  0  0  0  0  0  0  0  0
    9.2810   -0.6645   26.1379 C   0  0  0  0  0  0  0  0  0  0  0  0
    9.8200    0.2697   26.2511 H   0  0  0  0  0  0  0  0  0  0  0  0
    8.8151   -1.0522   24.9016 C   0  0  0  0  0  0  0  0  0  0  0  0
    8.9903   -0.4473   24.0131 H   0  0  0  0  0  0  0  0  0  0  0  0
    8.0559   -2.2588   24.7544 C   0  0  0  0  0  0  0  0  0  0  0  0
    6.8925   -1.2837   21.5834 C   0  0  0  0  0  0  0  0  0  0  0  0
    5.8551   -1.3260   21.8783 H   0  0  0  0  0  0  0  0  0  0  0  0
    5.6158    0.7998   19.8269 C   0  0  0  0  0  0  0  0  0  0  0  0
    5.2660    0.8034   20.8601 H   0  0  0  0  0  0  0  0  0  0  0  0
    4.9107    1.4564   18.8226 C   0  0  0  0  0  0  0  0  0  0  0  0
    3.9872    1.9788   19.0397 H   0  0  0  0  0  0  0  0  0  0  0  0
  1  2  1  0
  2  3  2  0
  3  4  1  0
  4  5  1  0
  4  6  2  0
  6  7  1  0
  7  8  1  0
  8  9  1  0
  8 10  2  0
 10 11  1  0
 10 12  1  0
 12 13  1  0
 13 14  2  0
 14 15  1  0
 14 16  1  0
 16 17  1  0
 16 18  2  0
 18 19  1  0
 18 20  1  0
 20 21  2  0
 21 22  1  0
 21 23  1  0
 23 24  1  0
 23 25  2  0
 25 26  1  0
 25 27  1  0
 27 28  1  0
 27 29  2  0
 12 30  1  0
 30 31  1  0
  6 32  1  0
 32 33  1  0
 32 34  2  0
 34 35  1  0
 34  2  1  0
 30  7  2  0
 29 13  1  0
 29 20  1  0
M  END
>  <cnnaffinity>  (1) 
-5.17456

>  <filename>  (1) 
c1cncc(-c2ccn(-c3cccc4ccccc34)c2)c1

$$$$
