
     RDKit          3D

 39 43  0  0  0  0  0  0  0  0999 V2000
    4.8042    1.3014   19.0320 C   0  0  0  0  0  0  0  0  0  0  0  0
    5.3950    1.3001   17.7657 C   0  0  0  0  0  0  0  0  0  0  0  0
    6.5298    0.6425   17.4851 N   0  0  0  0  0  0  0  0  0  0  0  0
    7.1341    0.0063   18.4978 C   0  0  0  0  0  0  0  0  0  0  0  0
    6.6609   -0.0109   19.8247 C   0  0  0  0  0  0  0  0  0  0  0  0
    7.4617   -0.5868   20.9882 C   0  0  0  0  0  0  0  0  0  0  0  0
    8.3702    0.3995   21.6719 C   0  0  0  0  0  0  0  0  0  0  0  0
    9.5638    0.6758   21.1853 N   0  0  0  0  0  0  0  0  0  0  0  0
   10.0705    1.5495   22.0872 N   0  0  0  0  0  0  0  0  0  0  0  0
   11.4822    1.8853   22.0648 C   0  0  0  0  0  0  0  0  0  0  0  0
   12.5003    0.8184   22.3653 C   0  0  0  0  0  0  0  0  0  0  0  0
   12.2174    1.8916   23.3770 C   0  0  0  0  0  0  0  0  0  0  0  0
   11.6204    1.6095   24.2468 H   0  0  0  0  0  0  0  0  0  0  0  0
   12.9440    2.6831   23.5507 H   0  0  0  0  0  0  0  0  0  0  0  0
   12.1243   -0.1917   22.5249 H   0  0  0  0  0  0  0  0  0  0  0  0
   13.4540    0.8785   21.8476 H   0  0  0  0  0  0  0  0  0  0  0  0
   11.7103    2.6281   21.3045 H   0  0  0  0  0  0  0  0  0  0  0  0
    9.1286    1.8034   23.0407 C   0  0  0  0  0  0  0  0  0  0  0  0
    9.2546    2.7759   24.1407 C   0  0  0  0  0  0  0  0  0  0  0  0
    8.7196    2.5226   25.4105 C   0  0  0  0  0  0  0  0  0  0  0  0
    8.7612    3.5019   26.4133 C   0  0  0  0  0  0  0  0  0  0  0  0
    9.2896    4.7730   26.1750 C   0  0  0  0  0  0  0  0  0  0  0  0
    9.7751    5.0576   24.8966 C   0  0  0  0  0  0  0  0  0  0  0  0
    9.8155    4.0570   23.9025 C   0  0  0  0  0  0  0  0  0  0  0  0
   10.3086    4.4732   22.6848 N   0  0  0  0  0  0  0  0  0  0  0  0
   10.5384    5.7384   22.6936 C   0  0  0  0  0  0  0  0  0  0  0  0
   10.3017    6.5718   24.2067 S   0  0  0  0  0  0  0  0  0  0  0  0
   10.8402    6.3063   21.8219 H   0  0  0  0  0  0  0  0  0  0  0  0
    9.3114    5.5224   26.9590 H   0  0  0  0  0  0  0  0  0  0  0  0
    8.3572    3.2762   27.3953 H   0  0  0  0  0  0  0  0  0  0  0  0
    8.2373    1.5674   25.6171 H   0  0  0  0  0  0  0  0  0  0  0  0
    8.0696    1.0303   22.8319 N   0  0  0  0  0  0  0  0  0  0  0  0
    6.7842   -0.9726   21.7552 H   0  0  0  0  0  0  0  0  0  0  0  0
    8.0865   -1.4219   20.6564 H   0  0  0  0  0  0  0  0  0  0  0  0
    5.4446    0.6347   20.0772 C   0  0  0  0  0  0  0  0  0  0  0  0
    5.0124    0.6318   21.0816 H   0  0  0  0  0  0  0  0  0  0  0  0
    8.0608   -0.5073   18.2395 H   0  0  0  0  0  0  0  0  0  0  0  0
    4.9396    1.8529   16.9445 H   0  0  0  0  0  0  0  0  0  0  0  0
    3.8796    1.8404   19.1937 H   0  0  0  0  0  0  0  0  0  0  0  0
  1  2  2  0
  2  3  1  0
  3  4  2  0
  4  5  1  0
  5  6  1  0
  6  7  1  0
  7  8  2  0
  8  9  1  0
  9 10  1  0
 10 11  1  0
 11 12  1  0
 12 13  1  0
 12 14  1  0
 11 15  1  0
 11 16  1  0
 10 17  1  0
  9 18  1  0
 18 19  1  0
 19 20  2  0
 20 21  1  0
 21 22  2  0
 22 23  1  0
 23 24  2  0
 24 25  1  0
 25 26  2  0
 26 27  1  0
 26 28  1  0
 22 29  1  0
 21 30  1  0
 20 31  1  0
 18 32  2  0
  6 33  1  0
  6 34  1  0
  5 35  2  0
 35 36  1  0
  4 37  1  0
  2 38  1  0
  1 39  1  0
 35  1  1  0
 32  7  1  0
 12 10  1  0
 24 19  1  0
 27 23  1  0
M  END
>  <cnnaffinity>  (1) 
-6.38376

>  <filename>  (1) 
c1cncc(Cc2nc(-c3cccc4scnc34)n(C3CC3)n2)c1

$$$$
