
     RDKit          3D

 26 28  0  0  0  0  0  0  0  0999 V2000
    3.4133   -3.6591   24.8660 H   0  0  0  0  0  0  0  0  0  0  0  0
    4.5005   -3.5866   24.9519 C   0  0  0  0  0  0  0  0  0  0  0  0
    5.0551   -3.9946   26.0939 N   0  0  0  0  0  0  0  0  0  0  0  0
    6.3828   -3.8847   26.1782 C   0  0  0  0  0  0  0  0  0  0  0  0
    6.8527   -4.1997   27.1142 H   0  0  0  0  0  0  0  0  0  0  0  0
    7.1597   -3.3810   25.1375 C   0  0  0  0  0  0  0  0  0  0  0  0
    8.2374   -3.3708   25.1909 H   0  0  0  0  0  0  0  0  0  0  0  0
    6.4718   -2.9098   23.9938 C   0  0  0  0  0  0  0  0  0  0  0  0
    7.2295   -2.1761   22.8634 C   0  0  0  0  0  0  0  0  0  0  0  0
    8.5752   -2.1999   22.9804 N   0  0  0  0  0  0  0  0  0  0  0  0
    9.3417   -1.5318   22.1145 N   0  0  0  0  0  0  0  0  0  0  0  0
    8.7522   -0.8405   21.1378 C   0  0  0  0  0  0  0  0  0  0  0  0
    9.4119   -0.2783   20.4853 H   0  0  0  0  0  0  0  0  0  0  0  0
    7.3326   -0.8327   21.0073 C   0  0  0  0  0  0  0  0  0  0  0  0
    6.6302   -0.0679   19.9422 C   0  0  0  0  0  0  0  0  0  0  0  0
    7.1695   -0.0315   18.6468 C   0  0  0  0  0  0  0  0  0  0  0  0
    8.0904   -0.5664   18.4190 H   0  0  0  0  0  0  0  0  0  0  0  0
    6.6251    0.6191   17.6170 N   0  0  0  0  0  0  0  0  0  0  0  0
    5.4846    1.2841   17.8465 C   0  0  0  0  0  0  0  0  0  0  0  0
    5.0567    1.8069   16.9922 H   0  0  0  0  0  0  0  0  0  0  0  0
    4.8505    1.3115   19.0935 C   0  0  0  0  0  0  0  0  0  0  0  0
    3.9256    1.8667   19.2014 H   0  0  0  0  0  0  0  0  0  0  0  0
    5.4256    0.6241   20.1650 C   0  0  0  0  0  0  0  0  0  0  0  0
    4.9510    0.6215   21.1501 H   0  0  0  0  0  0  0  0  0  0  0  0
    6.5810   -1.5170   21.8688 N   0  0  0  0  0  0  0  0  0  0  0  0
    5.1423   -3.0819   23.9015 N   0  0  0  0  0  0  0  0  0  0  0  0
  1  2  1  0
  2  3  2  0
  3  4  1  0
  4  5  1  0
  4  6  2  0
  6  7  1  0
  6  8  1  0
  8  9  1  0
  9 10  2  0
 10 11  1  0
 11 12  2  0
 12 13  1  0
 12 14  1  0
 14 15  1  0
 15 16  2  0
 16 17  1  0
 16 18  1  0
 18 19  2  0
 19 20  1  0
 19 21  1  0
 21 22  1  0
 21 23  2  0
 23 24  1  0
 14 25  2  0
  8 26  2  0
 26  2  1  0
 25  9  1  0
 23 15  1  0
M  END
>  <cnnaffinity>  (1) 
-4.8971

>  <filename>  (1) 
c1cncc(-c2cnnc(-c3ccncn3)n2)c1

$$$$
