
     RDKit          3D

 42 46  0  0  0  0  0  0  0  0999 V2000
    4.7427    1.3950   18.9338 C   0  0  0  0  0  0  0  0  0  0  0  0
    5.4012    1.3541   17.6990 C   0  0  0  0  0  0  0  0  0  0  0  0
    6.5558    0.7008   17.4913 N   0  0  0  0  0  0  0  0  0  0  0  0
    7.1042    0.0775   18.5368 C   0  0  0  0  0  0  0  0  0  0  0  0
    6.5331    0.0881   19.8200 C   0  0  0  0  0  0  0  0  0  0  0  0
    7.2306   -0.5914   20.8975 C   0  0  0  0  0  0  0  0  0  0  0  0
    8.3488   -1.2560   20.6824 N   0  0  0  0  0  0  0  0  0  0  0  0
    8.6556   -1.7002   21.9167 N   0  0  0  0  0  0  0  0  0  0  0  0
    9.8576   -2.4204   22.1634 C   0  0  0  0  0  0  0  0  0  0  0  0
   10.7476   -2.0640   23.3096 C   0  0  0  0  0  0  0  0  0  0  0  0
   11.1542   -1.7249   21.9024 C   0  0  0  0  0  0  0  0  0  0  0  0
   11.9526   -2.2504   21.3892 H   0  0  0  0  0  0  0  0  0  0  0  0
   11.0849   -0.6690   21.6577 H   0  0  0  0  0  0  0  0  0  0  0  0
   11.2314   -2.9033   23.8011 H   0  0  0  0  0  0  0  0  0  0  0  0
   10.4647   -1.2513   23.9765 H   0  0  0  0  0  0  0  0  0  0  0  0
    9.7308   -3.4701   21.9680 H   0  0  0  0  0  0  0  0  0  0  0  0
    7.7062   -1.3321   22.7988 C   0  0  0  0  0  0  0  0  0  0  0  0
    7.7554   -1.7685   24.2396 C   0  0  0  0  0  0  0  0  0  0  0  0
    6.4235   -2.2308   24.7667 C   0  0  0  0  0  0  0  0  0  0  0  0
    5.6832   -1.3526   25.5277 C   0  0  0  0  0  0  0  0  0  0  0  0
    4.3608   -1.6596   25.9435 C   0  0  0  0  0  0  0  0  0  0  0  0
    3.7978   -2.8630   25.5958 C   0  0  0  0  0  0  0  0  0  0  0  0
    4.5398   -3.8111   24.8238 C   0  0  0  0  0  0  0  0  0  0  0  0
    3.9981   -5.0701   24.4285 C   0  0  0  0  0  0  0  0  0  0  0  0
    4.6246   -5.9666   23.7006 N   0  0  0  0  0  0  0  0  0  0  0  0
    5.8936   -5.6693   23.3021 C   0  0  0  0  0  0  0  0  0  0  0  0
    6.5445   -4.5027   23.6184 C   0  0  0  0  0  0  0  0  0  0  0  0
    5.8737   -3.5056   24.4016 C   0  0  0  0  0  0  0  0  0  0  0  0
    7.5619   -4.3471   23.2748 H   0  0  0  0  0  0  0  0  0  0  0  0
    6.3812   -6.4317   22.6969 H   0  0  0  0  0  0  0  0  0  0  0  0
    2.9797   -5.3171   24.7403 H   0  0  0  0  0  0  0  0  0  0  0  0
    2.7855   -3.1153   25.9059 H   0  0  0  0  0  0  0  0  0  0  0  0
    3.8059   -0.9272   26.5248 H   0  0  0  0  0  0  0  0  0  0  0  0
    6.1204   -0.3896   25.7922 H   0  0  0  0  0  0  0  0  0  0  0  0
    8.4954   -2.5627   24.3577 H   0  0  0  0  0  0  0  0  0  0  0  0
    8.1248   -0.9247   24.8366 H   0  0  0  0  0  0  0  0  0  0  0  0
    6.8012   -0.5981   22.1860 N   0  0  0  0  0  0  0  0  0  0  0  0
    5.3181    0.7554   20.0256 C   0  0  0  0  0  0  0  0  0  0  0  0
    4.8599    0.7737   21.0184 H   0  0  0  0  0  0  0  0  0  0  0  0
    8.0389   -0.4509   18.3413 H   0  0  0  0  0  0  0  0  0  0  0  0
    4.9790    1.8678   16.8406 H   0  0  0  0  0  0  0  0  0  0  0  0
    3.8096    1.9384   19.0330 H   0  0  0  0  0  0  0  0  0  0  0  0
  1  2  2  0
  2  3  1  0
  3  4  2  0
  4  5  1  0
  5  6  1  0
  6  7  2  0
  7  8  1  0
  8  9  1  0
  9 10  1  0
 10 11  1  0
 11 12  1  0
 11 13  1  0
 10 14  1  0
 10 15  1  0
  9 16  1  0
  8 17  1  0
 17 18  1  0
 18 19  1  0
 19 20  2  0
 20 21  1  0
 21 22  2  0
 22 23  1  0
 23 24  2  0
 24 25  1  0
 25 26  2  0
 26 27  1  0
 27 28  2  0
 27 29  1  0
 26 30  1  0
 24 31  1  0
 22 32  1  0
 21 33  1  0
 20 34  1  0
 18 35  1  0
 18 36  1  0
 17 37  2  0
  5 38  2  0
 38 39  1  0
  4 40  1  0
  2 41  1  0
  1 42  1  0
 38  1  1  0
 37  6  1  0
 11  9  1  0
 28 19  1  0
 28 23  1  0
M  END
>  <cnnaffinity>  (1) 
-6.08501

>  <filename>  (1) 
c1cncc(-c2nc(Cc3cccc4cnccc34)n(C3CC3)n2)c1

$$$$
