
     RDKit          3D

 24 26  0  0  0  0  0  0  0  0999 V2000
    8.7832   -3.4666   21.8214 H   0  0  0  0  0  0  0  0  0  0  0  0
    8.3580   -2.4763   21.7819 C   0  0  0  0  0  0  0  0  0  0  0  0
    7.8592   -1.9553   20.7105 N   0  0  0  0  0  0  0  0  0  0  0  0
    7.3636   -0.7034   20.9690 C   0  0  0  0  0  0  0  0  0  0  0  0
    6.6395   -0.0064   19.9018 C   0  0  0  0  0  0  0  0  0  0  0  0
    7.1655    0.0399   18.6005 C   0  0  0  0  0  0  0  0  0  0  0  0
    8.1177   -0.4344   18.3750 H   0  0  0  0  0  0  0  0  0  0  0  0
    6.5730    0.6761   17.5873 N   0  0  0  0  0  0  0  0  0  0  0  0
    5.4076    1.2922   17.8411 C   0  0  0  0  0  0  0  0  0  0  0  0
    4.9293    1.7833   16.9969 H   0  0  0  0  0  0  0  0  0  0  0  0
    4.7997    1.3056   19.1008 C   0  0  0  0  0  0  0  0  0  0  0  0
    3.8728    1.8422   19.2521 H   0  0  0  0  0  0  0  0  0  0  0  0
    5.4222    0.6435   20.1547 C   0  0  0  0  0  0  0  0  0  0  0  0
    5.0066    0.6491   21.1666 H   0  0  0  0  0  0  0  0  0  0  0  0
    7.5721   -0.2496   22.2515 C   0  0  0  0  0  0  0  0  0  0  0  0
    7.2994    1.0222   22.7748 N   0  0  0  0  0  0  0  0  0  0  0  0
    6.9646    1.3469   24.0770 C   0  0  0  0  0  0  0  0  0  0  0  0
    6.8349    0.6082   24.8592 H   0  0  0  0  0  0  0  0  0  0  0  0
    6.8277    2.6305   24.2378 N   0  0  0  0  0  0  0  0  0  0  0  0
    7.0841    3.1922   23.0062 C   0  0  0  0  0  0  0  0  0  0  0  0
    7.0474    4.2667   22.8686 H   0  0  0  0  0  0  0  0  0  0  0  0
    7.3812    2.2321   22.0895 C   0  0  0  0  0  0  0  0  0  0  0  0
    7.6239    2.2847   21.0396 H   0  0  0  0  0  0  0  0  0  0  0  0
    8.3294   -1.4897   23.1936 S   0  0  0  0  0  0  0  0  0  0  0  0
  1  2  1  0
  2  3  2  0
  3  4  1  0
  4  5  1  0
  5  6  2  0
  6  7  1  0
  6  8  1  0
  8  9  2  0
  9 10  1  0
  9 11  1  0
 11 12  1  0
 11 13  2  0
 13 14  1  0
  4 15  2  0
 15 16  1  0
 16 17  1  0
 17 18  1  0
 17 19  2  0
 19 20  1  0
 20 21  1  0
 20 22  2  0
 22 23  1  0
 15 24  1  0
 24  2  1  0
 13  5  1  0
 22 16  1  0
M  END
>  <cnnaffinity>  (1) 
-4.68059

>  <filename>  (1) 
c1cncc(-c2ncsc2-n2ccnc2)c1

$$$$
