
     RDKit          3D

 28 30  0  0  0  0  0  0  0  0999 V2000
    5.1092    1.7461   16.5059 H   0  0  0  0  0  0  0  0  0  0  0  0
    5.4947    1.3748   17.4524 C   0  0  0  0  0  0  0  0  0  0  0  0
    6.6861    0.7550   17.4009 N   0  0  0  0  0  0  0  0  0  0  0  0
    7.1767    0.2867   18.5561 C   0  0  0  0  0  0  0  0  0  0  0  0
    8.1541   -0.1881   18.4865 H   0  0  0  0  0  0  0  0  0  0  0  0
    6.5287    0.3896   19.8084 C   0  0  0  0  0  0  0  0  0  0  0  0
    7.1114   -0.1834   21.0368 C   0  0  0  0  0  0  0  0  0  0  0  0
    7.0730    0.1643   22.3639 C   0  0  0  0  0  0  0  0  0  0  0  0
    6.6065    1.0256   22.8229 H   0  0  0  0  0  0  0  0  0  0  0  0
    7.7554   -0.7465   23.1253 N   0  0  0  0  0  0  0  0  0  0  0  0
    8.2111   -1.6532   22.2928 C   0  0  0  0  0  0  0  0  0  0  0  0
    8.9362   -2.8912   22.7230 C   0  0  0  0  0  0  0  0  0  0  0  0
    9.3178   -2.6097   23.7231 H   0  0  0  0  0  0  0  0  0  0  0  0
    9.8069   -3.0204   22.0710 H   0  0  0  0  0  0  0  0  0  0  0  0
    8.0534   -4.0841   22.6576 C   0  0  0  0  0  0  0  0  0  0  0  0
    8.1735   -4.7547   21.8642 H   0  0  0  0  0  0  0  0  0  0  0  0
    8.1985   -5.0483   23.5183 C   0  0  0  0  0  0  0  0  0  0  0  0
    8.8993   -4.3080   24.9930 H   0  0  0  0  0  0  0  0  0  0  0  0
    9.2712   -5.6595   23.7115 H   0  0  0  0  0  0  0  0  0  0  0  0
    8.1531   -5.0055   23.7882 C   0  0  0  0  0  0  0  0  0  0  0  0
    7.3886   -6.0145   23.4299 H   0  0  0  0  0  0  0  0  0  0  0  0
    7.0153   -4.7945   24.8907 H   0  0  0  0  0  0  0  0  0  0  0  0
    7.8739   -1.3407   21.0095 N   0  0  0  0  0  0  0  0  0  0  0  0
    7.9611   -1.9392   20.2052 H   0  0  0  0  0  0  0  0  0  0  0  0
    5.2866    1.0489   19.8264 C   0  0  0  0  0  0  0  0  0  0  0  0
    4.7323    1.1489   20.7594 H   0  0  0  0  0  0  0  0  0  0  0  0
    4.7639    1.5463   18.6317 C   0  0  0  0  0  0  0  0  0  0  0  0
    3.8162    2.0738   18.6014 H   0  0  0  0  0  0  0  0  0  0  0  0
  1  2  1  0
  2  3  2  0
  3  4  1  0
  4  5  1  0
  4  6  2  0
  6  7  1  0
  7  8  2  0
  8  9  1  0
  8 10  1  0
 10 11  2  0
 11 12  1  0
 12 13  1  0
 12 14  1  0
 12 15  1  0
 15 16  1  0
 15 17  1  0
 17 18  1  0
 17 19  1  0
 17 20  1  0
 20 21  1  0
 20 22  1  0
 11 23  1  0
 23 24  1  0
  6 25  1  0
 25 26  1  0
 25 27  2  0
 27 28  1  0
 27  2  1  0
 23  7  1  0
 20 15  1  0
M  END
>  <cnnaffinity>  (1) 
-4.67123

>  <filename>  (1) 
c1cncc(-c2cnc(CC3CC3)[nH]2)c1

$$$$
