
     RDKit          3D

 40 44  0  0  0  0  0  0  0  0999 V2000
    4.6731    1.4477   18.9023 C   0  0  0  0  0  0  0  0  0  0  0  0
    5.3470    1.3997   17.6757 C   0  0  0  0  0  0  0  0  0  0  0  0
    6.4815    0.7104   17.4816 N   0  0  0  0  0  0  0  0  0  0  0  0
    6.9901    0.0660   18.5325 C   0  0  0  0  0  0  0  0  0  0  0  0
    6.3961    0.0595   19.8065 C   0  0  0  0  0  0  0  0  0  0  0  0
    7.1118   -0.6241   20.8812 C   0  0  0  0  0  0  0  0  0  0  0  0
    8.3175   -1.1086   20.6723 N   0  0  0  0  0  0  0  0  0  0  0  0
    8.6906   -1.5516   21.8911 N   0  0  0  0  0  0  0  0  0  0  0  0
    9.8935   -2.3267   21.9899 C   0  0  0  0  0  0  0  0  0  0  0  0
   11.1703   -1.6295   21.6102 C   0  0  0  0  0  0  0  0  0  0  0  0
   10.9370   -2.0667   23.0247 C   0  0  0  0  0  0  0  0  0  0  0  0
   10.7439   -1.3325   23.7943 H   0  0  0  0  0  0  0  0  0  0  0  0
   11.4900   -2.9371   23.3730 H   0  0  0  0  0  0  0  0  0  0  0  0
   11.9371   -2.1344   21.0276 H   0  0  0  0  0  0  0  0  0  0  0  0
   11.0568   -0.5721   21.3707 H   0  0  0  0  0  0  0  0  0  0  0  0
    9.7019   -3.3441   21.6984 H   0  0  0  0  0  0  0  0  0  0  0  0
    7.6693   -1.3904   22.7595 C   0  0  0  0  0  0  0  0  0  0  0  0
    7.7686   -1.8439   24.1835 C   0  0  0  0  0  0  0  0  0  0  0  0
    8.2744   -0.8061   25.0581 N   0  0  0  0  0  0  0  0  0  0  0  0
    9.5313   -0.8927   25.5538 N   0  0  0  0  0  0  0  0  0  0  0  0
    9.8073    0.2845   26.0775 C   0  0  0  0  0  0  0  0  0  0  0  0
    8.7179    1.1852   25.9321 C   0  0  0  0  0  0  0  0  0  0  0  0
    8.4714    2.5476   26.2468 C   0  0  0  0  0  0  0  0  0  0  0  0
    7.2172    3.0609   25.9769 C   0  0  0  0  0  0  0  0  0  0  0  0
    6.1873    2.2501   25.4158 C   0  0  0  0  0  0  0  0  0  0  0  0
    6.4181    0.9291   25.0646 C   0  0  0  0  0  0  0  0  0  0  0  0
    7.7171    0.4158   25.3007 C   0  0  0  0  0  0  0  0  0  0  0  0
    5.6550    0.3128   24.5959 H   0  0  0  0  0  0  0  0  0  0  0  0
    5.1958    2.6721   25.2621 H   0  0  0  0  0  0  0  0  0  0  0  0
    7.0070    4.1073   26.1778 H   0  0  0  0  0  0  0  0  0  0  0  0
    9.2549    3.1639   26.6766 H   0  0  0  0  0  0  0  0  0  0  0  0
   10.7619    0.4927   26.5408 H   0  0  0  0  0  0  0  0  0  0  0  0
    6.7864   -2.1512   24.5477 H   0  0  0  0  0  0  0  0  0  0  0  0
    8.4564   -2.6878   24.2739 H   0  0  0  0  0  0  0  0  0  0  0  0
    6.6595   -0.7938   22.1508 N   0  0  0  0  0  0  0  0  0  0  0  0
    5.1974    0.7599   19.9961 C   0  0  0  0  0  0  0  0  0  0  0  0
    4.7094    0.7672   20.9741 H   0  0  0  0  0  0  0  0  0  0  0  0
    7.9225   -0.4705   18.3634 H   0  0  0  0  0  0  0  0  0  0  0  0
    4.9665    1.9309   16.8068 H   0  0  0  0  0  0  0  0  0  0  0  0
    3.7631    2.0301   18.9852 H   0  0  0  0  0  0  0  0  0  0  0  0
  1  2  2  0
  2  3  1  0
  3  4  2  0
  4  5  1  0
  5  6  1  0
  6  7  2  0
  7  8  1  0
  8  9  1  0
  9 10  1  0
 10 11  1  0
 11 12  1  0
 11 13  1  0
 10 14  1  0
 10 15  1  0
  9 16  1  0
  8 17  1  0
 17 18  1  0
 18 19  1  0
 19 20  1  0
 20 21  2  0
 21 22  1  0
 22 23  2  0
 23 24  1  0
 24 25  2  0
 25 26  1  0
 26 27  2  0
 26 28  1  0
 25 29  1  0
 24 30  1  0
 23 31  1  0
 21 32  1  0
 18 33  1  0
 18 34  1  0
 17 35  2  0
  5 36  2  0
 36 37  1  0
  4 38  1  0
  2 39  1  0
  1 40  1  0
 36  1  1  0
 35  6  1  0
 11  9  1  0
 27 19  1  0
 27 22  1  0
M  END
>  <cnnaffinity>  (1) 
-5.62542

>  <filename>  (1) 
c1cncc(-c2nc(Cn3ncc4ccccc43)n(C3CC3)n2)c1

$$$$
