
     RDKit          3D

 33 36  0  0  0  0  0  0  0  0999 V2000
    4.9963    1.8070   17.0029 H   0  0  0  0  0  0  0  0  0  0  0  0
    5.4438    1.2838   17.8461 C   0  0  0  0  0  0  0  0  0  0  0  0
    6.5870    0.6260   17.5982 N   0  0  0  0  0  0  0  0  0  0  0  0
    7.1539   -0.0289   18.6183 C   0  0  0  0  0  0  0  0  0  0  0  0
    8.0842   -0.5449   18.3788 H   0  0  0  0  0  0  0  0  0  0  0  0
    6.6317   -0.0846   19.9302 C   0  0  0  0  0  0  0  0  0  0  0  0
    7.3479   -0.8081   21.0365 C   0  0  0  0  0  0  0  0  0  0  0  0
    8.7423   -0.6547   21.2194 C   0  0  0  0  0  0  0  0  0  0  0  0
    9.3155    0.0129   20.5874 H   0  0  0  0  0  0  0  0  0  0  0  0
    9.4406   -1.2813   22.1707 N   0  0  0  0  0  0  0  0  0  0  0  0
    8.8215   -2.1008   23.0252 N   0  0  0  0  0  0  0  0  0  0  0  0
    7.4884   -2.2747   22.9656 C   0  0  0  0  0  0  0  0  0  0  0  0
    6.8882   -3.1760   24.0092 C   0  0  0  0  0  0  0  0  0  0  0  0
    5.6113   -2.8562   24.5392 C   0  0  0  0  0  0  0  0  0  0  0  0
    5.2210   -1.8714   24.3641 H   0  0  0  0  0  0  0  0  0  0  0  0
    4.9127   -3.7201   25.3619 C   0  0  0  0  0  0  0  0  0  0  0  0
    3.9089   -3.4828   25.6859 H   0  0  0  0  0  0  0  0  0  0  0  0
    5.5223   -4.9096   25.7852 C   0  0  0  0  0  0  0  0  0  0  0  0
    5.1571   -5.9544   26.6971 C   0  0  0  0  0  0  0  0  0  0  0  0
    4.1901   -6.0854   27.1673 H   0  0  0  0  0  0  0  0  0  0  0  0
    6.2598   -6.7356   26.8579 C   0  0  0  0  0  0  0  0  0  0  0  0
    6.4225   -7.5235   27.5789 H   0  0  0  0  0  0  0  0  0  0  0  0
    7.2769   -6.2829   26.0306 N   0  0  0  0  0  0  0  0  0  0  0  0
    8.2401   -6.5652   26.0542 H   0  0  0  0  0  0  0  0  0  0  0  0
    6.8536   -5.1578   25.3711 C   0  0  0  0  0  0  0  0  0  0  0  0
    7.5375   -4.3278   24.4672 C   0  0  0  0  0  0  0  0  0  0  0  0
    8.5373   -4.5702   24.1216 H   0  0  0  0  0  0  0  0  0  0  0  0
    6.7147   -1.6448   21.9546 C   0  0  0  0  0  0  0  0  0  0  0  0
    5.6512   -1.8556   21.8735 H   0  0  0  0  0  0  0  0  0  0  0  0
    5.4313    0.6094   20.1537 C   0  0  0  0  0  0  0  0  0  0  0  0
    4.9975    0.6199   21.1525 H   0  0  0  0  0  0  0  0  0  0  0  0
    4.8309    1.3047   19.1010 C   0  0  0  0  0  0  0  0  0  0  0  0
    3.9100    1.8601   19.2417 H   0  0  0  0  0  0  0  0  0  0  0  0
  1  2  1  0
  2  3  2  0
  3  4  1  0
  4  5  1  0
  4  6  2  0
  6  7  1  0
  7  8  2  0
  8  9  1  0
  8 10  1  0
 10 11  2  0
 11 12  1  0
 12 13  1  0
 13 14  2  0
 14 15  1  0
 14 16  1  0
 16 17  1  0
 16 18  2  0
 18 19  1  0
 19 20  1  0
 19 21  2  0
 21 22  1  0
 21 23  1  0
 23 24  1  0
 23 25  1  0
 25 26  2  0
 26 27  1  0
 12 28  2  0
 28 29  1  0
  6 30  1  0
 30 31  1  0
 30 32  2  0
 32 33  1  0
 32  2  1  0
 28  7  1  0
 26 13  1  0
 25 18  1  0
M  END
>  <cnnaffinity>  (1) 
-5.18149

>  <filename>  (1) 
c1cncc(-c2cnnc(-c3ccc4cc[nH]c4c3)c2)c1

$$$$
