
     RDKit          3D

 49 54  0  0  0  0  0  0  0  0999 V2000
    4.7652    1.3138   18.9969 C   0  0  0  0  0  0  0  0  0  0  0  0
    5.4020    1.3043   17.7532 C   0  0  0  0  0  0  0  0  0  0  0  0
    6.5511    0.6536   17.5093 N   0  0  0  0  0  0  0  0  0  0  0  0
    7.1075   -0.0108   18.5304 C   0  0  0  0  0  0  0  0  0  0  0  0
    6.5627   -0.0614   19.8255 C   0  0  0  0  0  0  0  0  0  0  0  0
    7.2778   -0.7346   20.9953 C   0  0  0  0  0  0  0  0  0  0  0  0
    8.0982    0.2326   21.8084 C   0  0  0  0  0  0  0  0  0  0  0  0
    7.5764    1.1565   22.6033 N   0  0  0  0  0  0  0  0  0  0  0  0
    8.6608    1.8905   22.9666 N   0  0  0  0  0  0  0  0  0  0  0  0
    8.6331    2.9835   23.9400 C   0  0  0  0  0  0  0  0  0  0  0  0
    7.7275    2.7175   25.1691 C   0  0  0  0  0  0  0  0  0  0  0  0
    6.7946    3.9459   25.1436 C   0  0  0  0  0  0  0  0  0  0  0  0
    5.8694    3.8131   23.8977 C   0  0  0  0  0  0  0  0  0  0  0  0
    6.7968    4.2098   22.7079 C   0  0  0  0  0  0  0  0  0  0  0  0
    8.1494    4.3730   23.4066 C   0  0  0  0  0  0  0  0  0  0  0  0
    7.7663    5.0650   24.7185 C   0  0  0  0  0  0  0  0  0  0  0  0
    8.6239    5.2100   25.3888 H   0  0  0  0  0  0  0  0  0  0  0  0
    7.2924    6.0453   24.5780 H   0  0  0  0  0  0  0  0  0  0  0  0
    8.8773    4.9241   22.8076 H   0  0  0  0  0  0  0  0  0  0  0  0
    6.4814    5.1484   22.2370 H   0  0  0  0  0  0  0  0  0  0  0  0
    6.8549    3.4491   21.9256 H   0  0  0  0  0  0  0  0  0  0  0  0
    5.0033    4.4784   23.9680 H   0  0  0  0  0  0  0  0  0  0  0  0
    5.4952    2.7887   23.7839 H   0  0  0  0  0  0  0  0  0  0  0  0
    6.2609    4.1120   26.0837 H   0  0  0  0  0  0  0  0  0  0  0  0
    8.3285    2.6849   26.0861 H   0  0  0  0  0  0  0  0  0  0  0  0
    7.1994    1.7620   25.0865 H   0  0  0  0  0  0  0  0  0  0  0  0
    9.6611    3.0967   24.2838 H   0  0  0  0  0  0  0  0  0  0  0  0
    9.7589    1.3757   22.3736 C   0  0  0  0  0  0  0  0  0  0  0  0
   11.0677    2.0054   22.4720 C   0  0  0  0  0  0  0  0  0  0  0  0
   12.1764    1.1226   22.5934 C   0  0  0  0  0  0  0  0  0  0  0  0
   13.4310    1.5197   22.6596 N   0  0  0  0  0  0  0  0  0  0  0  0
   13.6182    2.8702   22.5444 C   0  0  0  0  0  0  0  0  0  0  0  0
   14.7945    3.6347   22.3995 C   0  0  0  0  0  0  0  0  0  0  0  0
   14.5524    4.9244   22.2594 N   0  0  0  0  0  0  0  0  0  0  0  0
   13.2046    5.0338   22.2966 N   0  0  0  0  0  0  0  0  0  0  0  0
   12.5888    3.8296   22.4451 C   0  0  0  0  0  0  0  0  0  0  0  0
   11.2698    3.3950   22.4314 C   0  0  0  0  0  0  0  0  0  0  0  0
   10.4863    4.1336   22.3725 H   0  0  0  0  0  0  0  0  0  0  0  0
   12.7734    5.9428   22.2131 H   0  0  0  0  0  0  0  0  0  0  0  0
   15.7643    3.1701   22.3633 H   0  0  0  0  0  0  0  0  0  0  0  0
   12.0080    0.0458   22.6319 H   0  0  0  0  0  0  0  0  0  0  0  0
    9.4481    0.2974   21.6774 N   0  0  0  0  0  0  0  0  0  0  0  0
    6.5398   -1.2080   21.6542 H   0  0  0  0  0  0  0  0  0  0  0  0
    7.9688   -1.5117   20.6471 H   0  0  0  0  0  0  0  0  0  0  0  0
    5.3602    0.6189   20.0515 C   0  0  0  0  0  0  0  0  0  0  0  0
    4.9296    0.6086   21.0541 H   0  0  0  0  0  0  0  0  0  0  0  0
    8.0430   -0.5336   18.3168 H   0  0  0  0  0  0  0  0  0  0  0  0
    4.9758    1.8386   16.9078 H   0  0  0  0  0  0  0  0  0  0  0  0
    3.8398    1.8632   19.1322 H   0  0  0  0  0  0  0  0  0  0  0  0
  1  2  2  0
  2  3  1  0
  3  4  2  0
  4  5  1  0
  5  6  1  0
  6  7  1  0
  7  8  2  0
  8  9  1  0
  9 10  1  0
 10 11  1  0
 11 12  1  0
 12 13  1  0
 13 14  1  0
 14 15  1  0
 15 16  1  0
 16 17  1  0
 16 18  1  0
 15 19  1  0
 14 20  1  0
 14 21  1  0
 13 22  1  0
 13 23  1  0
 12 24  1  0
 11 25  1  0
 11 26  1  0
 10 27  1  0
  9 28  1  0
 28 29  1  0
 29 30  2  0
 30 31  1  0
 31 32  2  0
 32 33  1  0
 33 34  2  0
 34 35  1  0
 35 36  1  0
 36 37  2  0
 37 38  1  0
 35 39  1  0
 33 40  1  0
 30 41  1  0
 28 42  2  0
  6 43  1  0
  6 44  1  0
  5 45  2  0
 45 46  1  0
  4 47  1  0
  2 48  1  0
  1 49  1  0
 45  1  1  0
 42  7  1  0
 15 10  1  0
 37 29  1  0
 16 12  1  0
 36 32  1  0
M  END
>  <cnnaffinity>  (1) 
-6.73722

>  <filename>  (1) 
c1cncc(Cc2nc(-c3cnc4cn[nH]c4c3)n(C3CC4CCC3C4)n2)c1

$$$$
