
     RDKit          3D

 42 46  0  0  0  0  0  0  0  0999 V2000
    4.7834    1.3181   19.0601 C   0  0  0  0  0  0  0  0  0  0  0  0
    5.3928    1.3056   17.8034 C   0  0  0  0  0  0  0  0  0  0  0  0
    6.5445    0.6662   17.5482 N   0  0  0  0  0  0  0  0  0  0  0  0
    7.1270    0.0198   18.5665 C   0  0  0  0  0  0  0  0  0  0  0  0
    6.6068   -0.0395   19.8733 C   0  0  0  0  0  0  0  0  0  0  0  0
    7.3472   -0.7211   21.0275 C   0  0  0  0  0  0  0  0  0  0  0  0
    8.2466    0.2173   21.7939 C   0  0  0  0  0  0  0  0  0  0  0  0
    7.8453    0.9805   22.7923 N   0  0  0  0  0  0  0  0  0  0  0  0
    8.9246    1.7865   23.0107 N   0  0  0  0  0  0  0  0  0  0  0  0
    8.8785    2.8899   23.9040 C   0  0  0  0  0  0  0  0  0  0  0  0
    9.3425    4.1700   23.5878 C   0  0  0  0  0  0  0  0  0  0  0  0
    9.2780    5.2087   24.5434 C   0  0  0  0  0  0  0  0  0  0  0  0
    8.7646    4.9963   25.8230 C   0  0  0  0  0  0  0  0  0  0  0  0
    8.3117    3.7044   26.1549 C   0  0  0  0  0  0  0  0  0  0  0  0
    8.3673    2.6846   25.1934 C   0  0  0  0  0  0  0  0  0  0  0  0
    7.8766    1.5699   25.8222 N   0  0  0  0  0  0  0  0  0  0  0  0
    7.5451    1.9458   27.0882 C   0  0  0  0  0  0  0  0  0  0  0  0
    7.7827    3.2036   27.3373 N   0  0  0  0  0  0  0  0  0  0  0  0
    7.1343    1.2350   27.7972 H   0  0  0  0  0  0  0  0  0  0  0  0
    7.6853    0.7070   25.3405 H   0  0  0  0  0  0  0  0  0  0  0  0
    8.6995    5.7870   26.5622 H   0  0  0  0  0  0  0  0  0  0  0  0
    9.6437    6.1928   24.2649 H   0  0  0  0  0  0  0  0  0  0  0  0
    9.7851    4.3609   22.6133 H   0  0  0  0  0  0  0  0  0  0  0  0
    9.9413    1.3985   22.1913 C   0  0  0  0  0  0  0  0  0  0  0  0
   11.2488    2.1316   22.1416 C   0  0  0  0  0  0  0  0  0  0  0  0
   11.6397    2.7532   20.9485 C   0  0  0  0  0  0  0  0  0  0  0  0
   12.6798    3.6868   20.9528 C   0  0  0  0  0  0  0  0  0  0  0  0
   13.4227    3.9615   22.0304 N   0  0  0  0  0  0  0  0  0  0  0  0
   13.1360    3.2688   23.1380 C   0  0  0  0  0  0  0  0  0  0  0  0
   12.0826    2.3515   23.2549 C   0  0  0  0  0  0  0  0  0  0  0  0
   11.9084    1.8595   24.2075 H   0  0  0  0  0  0  0  0  0  0  0  0
   13.7996    3.4751   23.9656 H   0  0  0  0  0  0  0  0  0  0  0  0
   12.9497    4.2132   20.0436 H   0  0  0  0  0  0  0  0  0  0  0  0
   11.1337    2.5067   20.0323 H   0  0  0  0  0  0  0  0  0  0  0  0
    9.5325    0.4261   21.3997 N   0  0  0  0  0  0  0  0  0  0  0  0
    7.9851   -1.5298   20.6557 H   0  0  0  0  0  0  0  0  0  0  0  0
    6.6210   -1.1687   21.7159 H   0  0  0  0  0  0  0  0  0  0  0  0
    5.4033    0.6373   20.1104 C   0  0  0  0  0  0  0  0  0  0  0  0
    4.9778    0.6473   21.1152 H   0  0  0  0  0  0  0  0  0  0  0  0
    8.0724   -0.4717   18.3307 H   0  0  0  0  0  0  0  0  0  0  0  0
    4.9417    1.8310   16.9633 H   0  0  0  0  0  0  0  0  0  0  0  0
    3.8606    1.8685   19.2057 H   0  0  0  0  0  0  0  0  0  0  0  0
  1  2  2  0
  2  3  1  0
  3  4  2  0
  4  5  1  0
  5  6  1  0
  6  7  1  0
  7  8  2  0
  8  9  1  0
  9 10  1  0
 10 11  2  0
 11 12  1  0
 12 13  2  0
 13 14  1  0
 14 15  2  0
 15 16  1  0
 16 17  1  0
 17 18  2  0
 17 19  1  0
 16 20  1  0
 13 21  1  0
 12 22  1  0
 11 23  1  0
  9 24  1  0
 24 25  1  0
 25 26  2  0
 26 27  1  0
 27 28  2  0
 28 29  1  0
 29 30  2  0
 30 31  1  0
 29 32  1  0
 27 33  1  0
 26 34  1  0
 24 35  2  0
  6 36  1  0
  6 37  1  0
  5 38  2  0
 38 39  1  0
  4 40  1  0
  2 41  1  0
  1 42  1  0
 38  1  1  0
 35  7  1  0
 15 10  1  0
 30 25  1  0
 18 14  1  0
M  END
>  <cnnaffinity>  (1) 
-6.22704

>  <filename>  (1) 
c1cncc(Cc2nc(-c3ccncc3)n(-c3cccc4nc[nH]c34)n2)c1

$$$$
