
     RDKit          3D

 29 30  0  0  0  0  0  0  0  0999 V2000
    4.9428    1.9161   16.8517 H   0  0  0  0  0  0  0  0  0  0  0  0
    5.4579    1.4284   17.6770 C   0  0  0  0  0  0  0  0  0  0  0  0
    6.6190    0.8208   17.3820 N   0  0  0  0  0  0  0  0  0  0  0  0
    7.2653    0.1980   18.3790 C   0  0  0  0  0  0  0  0  0  0  0  0
    8.2180   -0.2623   18.1177 H   0  0  0  0  0  0  0  0  0  0  0  0
    6.7772    0.1180   19.6992 C   0  0  0  0  0  0  0  0  0  0  0  0
    7.6012   -0.8419   20.9551 S   0  0  0  0  0  0  0  0  0  0  0  0
    6.7131   -2.4426   20.7746 C   0  0  0  0  0  0  0  0  0  0  0  0
    6.5525   -2.6033   19.7000 H   0  0  0  0  0  0  0  0  0  0  0  0
    7.4293   -3.1928   21.1149 H   0  0  0  0  0  0  0  0  0  0  0  0
    5.4651   -2.5771   21.4776 N   0  0  0  0  0  0  0  0  0  0  0  0
    4.9438   -1.7109   21.4127 H   0  0  0  0  0  0  0  0  0  0  0  0
    5.4491   -3.0956   22.8507 C   0  0  0  0  0  0  0  0  0  0  0  0
    5.9329   -2.4083   23.5727 H   0  0  0  0  0  0  0  0  0  0  0  0
    4.4057   -3.2128   23.1763 H   0  0  0  0  0  0  0  0  0  0  0  0
    6.1632   -4.4347   22.9377 C   0  0  0  0  0  0  0  0  0  0  0  0
    5.6141   -5.6489   22.4895 C   0  0  0  0  0  0  0  0  0  0  0  0
    4.5529   -5.7565   22.2942 H   0  0  0  0  0  0  0  0  0  0  0  0
    6.4462   -6.7614   22.3374 C   0  0  0  0  0  0  0  0  0  0  0  0
    6.0419   -7.7033   21.9628 H   0  0  0  0  0  0  0  0  0  0  0  0
    7.7516   -6.7544   22.6315 N   0  0  0  0  0  0  0  0  0  0  0  0
    8.2380   -5.6268   23.1605 C   0  0  0  0  0  0  0  0  0  0  0  0
    9.2866   -5.6352   23.4255 H   0  0  0  0  0  0  0  0  0  0  0  0
    7.4931   -4.4625   23.3648 C   0  0  0  0  0  0  0  0  0  0  0  0
    7.9421   -3.5860   23.8293 H   0  0  0  0  0  0  0  0  0  0  0  0
    5.5914    0.8036   19.9973 C   0  0  0  0  0  0  0  0  0  0  0  0
    5.2281    0.8447   21.0248 H   0  0  0  0  0  0  0  0  0  0  0  0
    4.9121    1.4539   18.9643 C   0  0  0  0  0  0  0  0  0  0  0  0
    3.9883    1.9852   19.1558 H   0  0  0  0  0  0  0  0  0  0  0  0
  1  2  1  0
  2  3  2  0
  3  4  1  0
  4  5  1  0
  4  6  2  0
  6  7  1  0
  7  8  1  0
  8  9  1  0
  8 10  1  0
  8 11  1  0
 11 12  1  0
 11 13  1  0
 13 14  1  0
 13 15  1  0
 13 16  1  0
 16 17  2  0
 17 18  1  0
 17 19  1  0
 19 20  1  0
 19 21  2  0
 21 22  1  0
 22 23  1  0
 22 24  2  0
 24 25  1  0
  6 26  1  0
 26 27  1  0
 26 28  2  0
 28 29  1  0
 28  2  1  0
 24 16  1  0
M  END
>  <cnnaffinity>  (1) 
-4.65269

>  <filename>  (1) 
c1cncc(SCNCc2ccncc2)c1

$$$$
