
     RDKit          3D

 28 30  0  0  0  0  0  0  0  0999 V2000
    4.9397    1.7877   16.9989 H   0  0  0  0  0  0  0  0  0  0  0  0
    5.4005    1.2880   17.8483 C   0  0  0  0  0  0  0  0  0  0  0  0
    6.5607    0.6682   17.5929 N   0  0  0  0  0  0  0  0  0  0  0  0
    7.1671    0.0537   18.6082 C   0  0  0  0  0  0  0  0  0  0  0  0
    8.1136   -0.4225   18.3600 H   0  0  0  0  0  0  0  0  0  0  0  0
    6.6605    0.0034   19.9142 C   0  0  0  0  0  0  0  0  0  0  0  0
    7.3917   -0.7032   20.9640 C   0  0  0  0  0  0  0  0  0  0  0  0
    6.8393   -0.7752   22.2350 N   0  0  0  0  0  0  0  0  0  0  0  0
    7.6990   -1.4512   22.9136 C   0  0  0  0  0  0  0  0  0  0  0  0
    7.6765   -1.8241   24.2121 N   0  0  0  0  0  0  0  0  0  0  0  0
    8.3181   -2.5608   24.4160 H   0  0  0  0  0  0  0  0  0  0  0  0
    6.7214   -1.4347   25.1292 C   0  0  0  0  0  0  0  0  0  0  0  0
    6.2124   -0.1384   25.0699 C   0  0  0  0  0  0  0  0  0  0  0  0
    6.5613    0.5387   24.3001 H   0  0  0  0  0  0  0  0  0  0  0  0
    5.2500    0.2158   26.0026 C   0  0  0  0  0  0  0  0  0  0  0  0
    4.8100    1.2146   25.9915 H   0  0  0  0  0  0  0  0  0  0  0  0
    4.7886   -0.6133   26.9494 N   0  0  0  0  0  0  0  0  0  0  0  0
    5.3075   -1.8466   26.9943 C   0  0  0  0  0  0  0  0  0  0  0  0
    4.9107   -2.4905   27.7795 H   0  0  0  0  0  0  0  0  0  0  0  0
    6.2851   -2.3110   26.1192 C   0  0  0  0  0  0  0  0  0  0  0  0
    6.6683   -3.3211   26.1962 H   0  0  0  0  0  0  0  0  0  0  0  0
    8.7813   -1.8602   22.2359 O   0  0  0  0  0  0  0  0  0  0  0  0
    8.5787   -1.3519   20.9651 C   0  0  0  0  0  0  0  0  0  0  0  0
    9.3532   -1.5166   20.2372 H   0  0  0  0  0  0  0  0  0  0  0  0
    5.4356    0.6512   20.1695 C   0  0  0  0  0  0  0  0  0  0  0  0
    5.0060    0.6373   21.1742 H   0  0  0  0  0  0  0  0  0  0  0  0
    4.8044    1.3052   19.1142 C   0  0  0  0  0  0  0  0  0  0  0  0
    3.8723    1.8409   19.2478 H   0  0  0  0  0  0  0  0  0  0  0  0
  1  2  1  0
  2  3  2  0
  3  4  1  0
  4  5  1  0
  4  6  2  0
  6  7  1  0
  7  8  1  0
  8  9  2  0
  9 10  1  0
 10 11  1  0
 10 12  1  0
 12 13  2  0
 13 14  1  0
 13 15  1  0
 15 16  1  0
 15 17  2  0
 17 18  1  0
 18 19  1  0
 18 20  2  0
 20 21  1  0
  9 22  1  0
 22 23  1  0
 23 24  1  0
  6 25  1  0
 25 26  1  0
 25 27  2  0
 27 28  1  0
 27  2  1  0
 23  7  2  0
 20 12  1  0
M  END
>  <cnnaffinity>  (1) 
-4.97231

>  <filename>  (1) 
c1cncc(-c2coc(Nc3ccncc3)n2)c1

$$$$
