
     RDKit          3D

 40 43  0  0  0  0  0  0  0  0999 V2000
    4.9905    1.7957   16.9698 H   0  0  0  0  0  0  0  0  0  0  0  0
    5.4340    1.2752   17.8183 C   0  0  0  0  0  0  0  0  0  0  0  0
    6.5767    0.6186   17.5820 N   0  0  0  0  0  0  0  0  0  0  0  0
    7.1563   -0.0135   18.6191 C   0  0  0  0  0  0  0  0  0  0  0  0
    8.0931   -0.5099   18.3614 H   0  0  0  0  0  0  0  0  0  0  0  0
    6.6508   -0.0439   19.9378 C   0  0  0  0  0  0  0  0  0  0  0  0
    7.3141   -0.8868   21.0599 C   0  0  2  0  0  0  0  0  0  0  0  0
    6.6345   -2.3000   20.9719 C   0  0  0  0  0  0  0  0  0  0  0  0
    5.5577   -2.1210   21.0849 H   0  0  0  0  0  0  0  0  0  0  0  0
    6.7485   -2.6568   19.9426 H   0  0  0  0  0  0  0  0  0  0  0  0
    7.0431   -3.4196   21.9137 C   0  0  0  0  0  0  0  0  0  0  0  0
    8.0203   -4.3427   21.5250 C   0  0  0  0  0  0  0  0  0  0  0  0
    8.6159   -4.1703   20.6445 H   0  0  0  0  0  0  0  0  0  0  0  0
    8.2499   -5.4858   22.2869 C   0  0  0  0  0  0  0  0  0  0  0  0
    8.9787   -6.2180   21.9531 H   0  0  0  0  0  0  0  0  0  0  0  0
    7.6000   -5.7786   23.4150 N   0  0  0  0  0  0  0  0  0  0  0  0
    6.7022   -4.8726   23.8288 C   0  0  0  0  0  0  0  0  0  0  0  0
    6.1654   -5.1270   24.7388 H   0  0  0  0  0  0  0  0  0  0  0  0
    6.4130   -3.6835   23.1445 C   0  0  0  0  0  0  0  0  0  0  0  0
    5.6922   -2.9854   23.5633 H   0  0  0  0  0  0  0  0  0  0  0  0
    7.1342   -0.3045   22.5133 C   0  0  0  0  0  0  0  0  0  0  0  0
    6.6106   -1.0201   23.1553 H   0  0  0  0  0  0  0  0  0  0  0  0
    6.5709    0.6348   22.5374 H   0  0  0  0  0  0  0  0  0  0  0  0
    8.5642   -0.0850   23.0455 C   0  0  2  0  0  0  0  0  0  0  0  0
    8.6196   -0.0085   24.1350 H   0  0  0  0  0  0  0  0  0  0  0  0
    9.1637    1.1168   22.2881 C   0  0  0  0  0  0  0  0  0  0  0  0
   10.0589    1.5068   22.7849 H   0  0  0  0  0  0  0  0  0  0  0  0
    8.4494    1.9464   22.2062 H   0  0  0  0  0  0  0  0  0  0  0  0
    9.5053    0.4897   20.9077 C   0  0  0  0  0  0  0  0  0  0  0  0
   10.5938    0.4128   20.8105 H   0  0  0  0  0  0  0  0  0  0  0  0
    9.1269    1.0815   20.0744 H   0  0  0  0  0  0  0  0  0  0  0  0
    8.8900   -0.9359   20.9906 C   0  0  1  0  0  0  0  0  0  0  0  0
    9.2738   -1.6107   20.2141 H   0  0  0  0  0  0  0  0  0  0  0  0
    9.3120   -1.2753   22.4334 C   0  0  0  0  0  0  0  0  0  0  0  0
   10.4005   -1.2243   22.5734 H   0  0  0  0  0  0  0  0  0  0  0  0
    8.9756   -2.2455   22.8050 H   0  0  0  0  0  0  0  0  0  0  0  0
    5.4298    0.6319   20.1359 C   0  0  0  0  0  0  0  0  0  0  0  0
    4.9557    0.6397   21.1172 H   0  0  0  0  0  0  0  0  0  0  0  0
    4.8209    1.3059   19.0724 C   0  0  0  0  0  0  0  0  0  0  0  0
    3.8978    1.8608   19.2059 H   0  0  0  0  0  0  0  0  0  0  0  0
  1  2  1  0
  2  3  2  0
  3  4  1  0
  4  5  1  0
  4  6  2  0
  6  7  1  0
  7  8  1  1
  8  9  1  0
  8 10  1  0
  8 11  1  0
 11 12  2  0
 12 13  1  0
 12 14  1  0
 14 15  1  0
 14 16  2  0
 16 17  1  0
 17 18  1  0
 17 19  2  0
 19 20  1  0
  7 21  1  0
 21 22  1  0
 21 23  1  0
 21 24  1  0
 24 25  1  1
 24 26  1  0
 26 27  1  0
 26 28  1  0
 26 29  1  0
 29 30  1  0
 29 31  1  0
 29 32  1  0
 32 33  1  6
 32 34  1  0
 34 35  1  0
 34 36  1  0
  6 37  1  0
 37 38  1  0
 37 39  2  0
 39 40  1  0
 39  2  1  0
 32  7  1  0
 19 11  1  0
 34 24  1  0
M  END
>  <cnnaffinity>  (1) 
-5.29002

>  <filename>  (1) 
c1cncc([C@]2(Cc3ccncc3)C[C@@H]3CC[C@H]2C3)c1

$$$$
