
     RDKit          3D

 32 35  0  0  0  0  0  0  0  0999 V2000
    5.0519    2.0828   16.3079 H   0  0  0  0  0  0  0  0  0  0  0  0
    5.2659    1.6228   17.2705 C   0  0  0  0  0  0  0  0  0  0  0  0
    6.3717    0.8667   17.3241 N   0  0  0  0  0  0  0  0  0  0  0  0
    6.6617    0.3037   18.4989 C   0  0  0  0  0  0  0  0  0  0  0  0
    7.5532   -0.3174   18.5311 H   0  0  0  0  0  0  0  0  0  0  0  0
    5.8859    0.4583   19.6575 C   0  0  0  0  0  0  0  0  0  0  0  0
    6.3772   -0.2354   20.8479 C   0  0  0  0  0  0  0  0  0  0  0  0
    7.3873   -1.1383   20.7261 N   0  0  0  0  0  0  0  0  0  0  0  0
    7.5923   -1.5605   21.9536 C   0  0  0  0  0  0  0  0  0  0  0  0
    8.7795   -2.3000   22.3645 C   0  0  0  0  0  0  0  0  0  0  0  0
    9.9594   -1.8303   21.8279 C   0  0  0  0  0  0  0  0  0  0  0  0
    9.9498   -1.0636   21.0594 H   0  0  0  0  0  0  0  0  0  0  0  0
   11.1896   -2.2206   22.2143 N   0  0  0  0  0  0  0  0  0  0  0  0
   11.2594   -3.1478   23.1453 C   0  0  0  0  0  0  0  0  0  0  0  0
   12.2557   -3.4879   23.4182 H   0  0  0  0  0  0  0  0  0  0  0  0
   10.1319   -3.7484   23.7691 C   0  0  0  0  0  0  0  0  0  0  0  0
   10.2711   -4.7249   24.8035 C   0  0  0  0  0  0  0  0  0  0  0  0
   11.2579   -4.9761   25.1987 H   0  0  0  0  0  0  0  0  0  0  0  0
    9.1536   -5.3216   25.3300 C   0  0  0  0  0  0  0  0  0  0  0  0
    9.2688   -6.0781   26.1022 H   0  0  0  0  0  0  0  0  0  0  0  0
    7.8540   -4.9890   24.8541 C   0  0  0  0  0  0  0  0  0  0  0  0
    6.9917   -5.4826   25.2983 H   0  0  0  0  0  0  0  0  0  0  0  0
    7.6904   -4.0473   23.8526 C   0  0  0  0  0  0  0  0  0  0  0  0
    6.7060   -3.8599   23.4276 H   0  0  0  0  0  0  0  0  0  0  0  0
    8.8276   -3.3626   23.3205 C   0  0  0  0  0  0  0  0  0  0  0  0
    6.7215   -0.9486   22.7729 N   0  0  0  0  0  0  0  0  0  0  0  0
    6.6264   -1.1015   23.7645 H   0  0  0  0  0  0  0  0  0  0  0  0
    5.9533   -0.0599   22.0851 N   0  0  0  0  0  0  0  0  0  0  0  0
    4.7143    1.2297   19.5843 C   0  0  0  0  0  0  0  0  0  0  0  0
    4.0635    1.3617   20.4530 H   0  0  0  0  0  0  0  0  0  0  0  0
    4.4075    1.8203   18.3595 C   0  0  0  0  0  0  0  0  0  0  0  0
    3.5268    2.4448   18.2338 H   0  0  0  0  0  0  0  0  0  0  0  0
  1  2  1  0
  2  3  2  0
  3  4  1  0
  4  5  1  0
  4  6  2  0
  6  7  1  0
  7  8  1  0
  8  9  2  0
  9 10  1  0
 10 11  2  0
 11 12  1  0
 11 13  1  0
 13 14  2  0
 14 15  1  0
 14 16  1  0
 16 17  2  0
 17 18  1  0
 17 19  1  0
 19 20  1  0
 19 21  2  0
 21 22  1  0
 21 23  1  0
 23 24  1  0
 23 25  2  0
  9 26  1  0
 26 27  1  0
 26 28  1  0
  6 29  1  0
 29 30  1  0
 29 31  2  0
 31 32  1  0
 31  2  1  0
 28  7  2  0
 25 10  1  0
 25 16  1  0
M  END
>  <cnnaffinity>  (1) 
-5.56071

>  <filename>  (1) 
c1cncc(-c2n[nH]c(-c3cncc4ccccc34)n2)c1

$$$$
