
     RDKit          3D

 32 35  0  0  0  0  0  0  0  0999 V2000
    4.9183    1.7768   17.0013 H   0  0  0  0  0  0  0  0  0  0  0  0
    5.4075    1.2912   17.8428 C   0  0  0  0  0  0  0  0  0  0  0  0
    6.5730    0.6760   17.5840 N   0  0  0  0  0  0  0  0  0  0  0  0
    7.1719    0.0444   18.5958 C   0  0  0  0  0  0  0  0  0  0  0  0
    8.1209   -0.4371   18.3740 H   0  0  0  0  0  0  0  0  0  0  0  0
    6.6540   -0.0045   19.8987 C   0  0  0  0  0  0  0  0  0  0  0  0
    7.3808   -0.7128   20.9464 C   0  0  0  0  0  0  0  0  0  0  0  0
    8.0054   -1.9171   20.7541 N   0  0  0  0  0  0  0  0  0  0  0  0
    8.4645   -2.2716   21.9190 C   0  0  0  0  0  0  0  0  0  0  0  0
    9.0204   -3.1825   22.1220 H   0  0  0  0  0  0  0  0  0  0  0  0
    8.1799   -1.3526   22.8735 N   0  0  0  0  0  0  0  0  0  0  0  0
    8.5120   -1.3604   23.8225 H   0  0  0  0  0  0  0  0  0  0  0  0
    7.5243   -0.3083   22.2601 C   0  0  0  0  0  0  0  0  0  0  0  0
    7.1875    0.9382   22.8814 C   0  0  0  0  0  0  0  0  0  0  0  0
    7.2493    2.1830   22.3047 C   0  0  0  0  0  0  0  0  0  0  0  0
    7.5605    2.4298   21.2902 H   0  0  0  0  0  0  0  0  0  0  0  0
    6.8665    3.1211   23.2261 N   0  0  0  0  0  0  0  0  0  0  0  0
    6.8313    4.1132   23.0819 H   0  0  0  0  0  0  0  0  0  0  0  0
    6.5360    2.4981   24.4041 C   0  0  0  0  0  0  0  0  0  0  0  0
    6.0920    3.0395   25.6179 C   0  0  0  0  0  0  0  0  0  0  0  0
    5.9728    4.1163   25.7160 H   0  0  0  0  0  0  0  0  0  0  0  0
    5.8170    2.1478   26.6508 C   0  0  0  0  0  0  0  0  0  0  0  0
    5.4697    2.5364   27.6030 H   0  0  0  0  0  0  0  0  0  0  0  0
    5.9745    0.7450   26.4837 C   0  0  0  0  0  0  0  0  0  0  0  0
    5.7450    0.0728   27.3065 H   0  0  0  0  0  0  0  0  0  0  0  0
    6.4161    0.2216   25.2762 C   0  0  0  0  0  0  0  0  0  0  0  0
    6.5185   -0.8516   25.1247 H   0  0  0  0  0  0  0  0  0  0  0  0
    6.7150    1.1163   24.2265 C   0  0  0  0  0  0  0  0  0  0  0  0
    5.4338    0.6477   20.1558 C   0  0  0  0  0  0  0  0  0  0  0  0
    4.9962    0.6362   21.1579 H   0  0  0  0  0  0  0  0  0  0  0  0
    4.8040    1.3083   19.1059 C   0  0  0  0  0  0  0  0  0  0  0  0
    3.8723    1.8438   19.2600 H   0  0  0  0  0  0  0  0  0  0  0  0
  1  2  1  0
  2  3  2  0
  3  4  1  0
  4  5  1  0
  4  6  2  0
  6  7  1  0
  7  8  1  0
  8  9  2  0
  9 10  1  0
  9 11  1  0
 11 12  1  0
 11 13  1  0
 13 14  1  0
 14 15  2  0
 15 16  1  0
 15 17  1  0
 17 18  1  0
 17 19  1  0
 19 20  2  0
 20 21  1  0
 20 22  1  0
 22 23  1  0
 22 24  2  0
 24 25  1  0
 24 26  1  0
 26 27  1  0
 26 28  2  0
  6 29  1  0
 29 30  1  0
 29 31  2  0
 31 32  1  0
 31  2  1  0
 13  7  2  0
 28 14  1  0
 28 19  1  0
M  END
>  <cnnaffinity>  (1) 
-5.40378

>  <filename>  (1) 
c1cncc(-c2nc[nH]c2-c2c[nH]c3ccccc23)c1

$$$$
