
     RDKit          3D

 30 33  0  0  0  0  0  0  0  0999 V2000
    4.9259    1.7881   16.9930 H   0  0  0  0  0  0  0  0  0  0  0  0
    5.4044    1.2947   17.8360 C   0  0  0  0  0  0  0  0  0  0  0  0
    6.5705    0.6759   17.5765 N   0  0  0  0  0  0  0  0  0  0  0  0
    7.1756    0.0426   18.5846 C   0  0  0  0  0  0  0  0  0  0  0  0
    8.1232   -0.4448   18.3720 H   0  0  0  0  0  0  0  0  0  0  0  0
    6.6519   -0.0050   19.8918 C   0  0  0  0  0  0  0  0  0  0  0  0
    7.3555   -0.7099   20.9192 N   0  0  0  0  0  0  0  0  0  0  0  0
    7.8271   -1.9609   20.7248 N   0  0  0  0  0  0  0  0  0  0  0  0
    8.2814   -2.3714   21.8518 N   0  0  0  0  0  0  0  0  0  0  0  0
    8.1324   -1.4381   22.8092 N   0  0  0  0  0  0  0  0  0  0  0  0
    7.5763   -0.3995   22.2302 C   0  0  0  0  0  0  0  0  0  0  0  0
    7.3054    0.8807   22.8604 C   0  0  0  0  0  0  0  0  0  0  0  0
    7.0604    1.0904   24.1859 C   0  0  0  0  0  0  0  0  0  0  0  0
    7.0312    0.3141   24.9424 H   0  0  0  0  0  0  0  0  0  0  0  0
    6.8927    2.4893   24.3803 C   0  0  0  0  0  0  0  0  0  0  0  0
    6.6484    3.2857   25.5164 C   0  0  0  0  0  0  0  0  0  0  0  0
    6.5443    2.7968   26.4834 H   0  0  0  0  0  0  0  0  0  0  0  0
    6.5572    4.6617   25.3570 C   0  0  0  0  0  0  0  0  0  0  0  0
    6.3666    5.2874   26.2273 H   0  0  0  0  0  0  0  0  0  0  0  0
    6.7082    5.2610   24.0733 C   0  0  0  0  0  0  0  0  0  0  0  0
    6.6299    6.3427   23.9790 H   0  0  0  0  0  0  0  0  0  0  0  0
    6.9556    4.5004   22.9321 C   0  0  0  0  0  0  0  0  0  0  0  0
    7.0730    4.9469   21.9407 H   0  0  0  0  0  0  0  0  0  0  0  0
    7.0497    3.1081   23.1129 C   0  0  0  0  0  0  0  0  0  0  0  0
    7.3024    2.1069   22.2113 N   0  0  0  0  0  0  0  0  0  0  0  0
    7.4441    2.2690   21.2311 H   0  0  0  0  0  0  0  0  0  0  0  0
    5.4352    0.6316   20.1619 C   0  0  0  0  0  0  0  0  0  0  0  0
    5.0075    0.6278   21.1703 H   0  0  0  0  0  0  0  0  0  0  0  0
    4.8081    1.3007   19.1027 C   0  0  0  0  0  0  0  0  0  0  0  0
    3.8792    1.8371   19.2564 H   0  0  0  0  0  0  0  0  0  0  0  0
  1  2  1  0
  2  3  2  0
  3  4  1  0
  4  5  1  0
  4  6  2  0
  6  7  1  0
  7  8  1  0
  8  9  2  0
  9 10  1  0
 10 11  2  0
 11 12  1  0
 12 13  2  0
 13 14  1  0
 13 15  1  0
 15 16  2  0
 16 17  1  0
 16 18  1  0
 18 19  1  0
 18 20  2  0
 20 21  1  0
 20 22  1  0
 22 23  1  0
 22 24  2  0
 24 25  1  0
 25 26  1  0
  6 27  1  0
 27 28  1  0
 27 29  2  0
 29 30  1  0
 29  2  1  0
 11  7  1  0
 25 12  1  0
 24 15  1  0
M  END
>  <cnnaffinity>  (1) 
-5.12116

>  <filename>  (1) 
c1cncc(-n2nnnc2-c2cc3ccccc3[nH]2)c1

$$$$
