
     RDKit          3D

 39 43  0  0  0  0  0  0  0  0999 V2000
    4.7109    1.4024   18.9696 C   0  0  0  0  0  0  0  0  0  0  0  0
    5.4253    1.3330   17.7669 C   0  0  0  0  0  0  0  0  0  0  0  0
    6.5511    0.6241   17.6054 N   0  0  0  0  0  0  0  0  0  0  0  0
    7.0176   -0.0191   18.6762 C   0  0  0  0  0  0  0  0  0  0  0  0
    6.3893    0.0035   19.9331 C   0  0  0  0  0  0  0  0  0  0  0  0
    7.0948   -0.6581   21.0254 C   0  0  0  0  0  0  0  0  0  0  0  0
    8.2917   -1.1835   20.8285 N   0  0  0  0  0  0  0  0  0  0  0  0
    8.6324   -1.6293   22.0531 N   0  0  0  0  0  0  0  0  0  0  0  0
    9.8322   -2.3908   22.2448 C   0  0  0  0  0  0  0  0  0  0  0  0
   11.1573   -1.7587   21.9645 C   0  0  0  0  0  0  0  0  0  0  0  0
   10.7566   -2.0754   23.3754 C   0  0  0  0  0  0  0  0  0  0  0  0
   10.5339   -1.2377   24.0330 H   0  0  0  0  0  0  0  0  0  0  0  0
   11.2151   -2.9343   23.8606 H   0  0  0  0  0  0  0  0  0  0  0  0
   11.9276   -2.3603   21.4964 H   0  0  0  0  0  0  0  0  0  0  0  0
   11.1322   -0.7206   21.6483 H   0  0  0  0  0  0  0  0  0  0  0  0
    9.6693   -3.4323   22.0037 H   0  0  0  0  0  0  0  0  0  0  0  0
    7.6203   -1.3934   22.9144 C   0  0  0  0  0  0  0  0  0  0  0  0
    7.6187   -1.9455   24.3007 C   0  0  0  0  0  0  0  0  0  0  0  0
    7.3221   -3.4048   24.2182 C   0  0  0  0  0  0  0  0  0  0  0  0
    8.2668   -4.2753   23.9865 N   0  0  0  0  0  0  0  0  0  0  0  0
    7.6549   -5.5203   23.8322 O   0  0  0  0  0  0  0  0  0  0  0  0
    6.3227   -5.3596   23.9601 C   0  0  0  0  0  0  0  0  0  0  0  0
    5.3301   -6.3467   23.8792 C   0  0  0  0  0  0  0  0  0  0  0  0
    4.0209   -5.9175   24.0563 C   0  0  0  0  0  0  0  0  0  0  0  0
    3.7013   -4.5591   24.3061 C   0  0  0  0  0  0  0  0  0  0  0  0
    4.6972   -3.6000   24.3918 C   0  0  0  0  0  0  0  0  0  0  0  0
    6.0316   -4.0220   24.2161 C   0  0  0  0  0  0  0  0  0  0  0  0
    4.4679   -2.5571   24.6000 H   0  0  0  0  0  0  0  0  0  0  0  0
    2.6702   -4.2526   24.4564 H   0  0  0  0  0  0  0  0  0  0  0  0
    3.2148   -6.6466   24.0171 H   0  0  0  0  0  0  0  0  0  0  0  0
    5.5638   -7.3846   23.6799 H   0  0  0  0  0  0  0  0  0  0  0  0
    8.5818   -1.7771   24.7890 H   0  0  0  0  0  0  0  0  0  0  0  0
    6.8581   -1.4197   24.8782 H   0  0  0  0  0  0  0  0  0  0  0  0
    6.6343   -0.7776   22.2968 N   0  0  0  0  0  0  0  0  0  0  0  0
    5.1881    0.7128   20.0838 C   0  0  0  0  0  0  0  0  0  0  0  0
    4.6607    0.7418   21.0418 H   0  0  0  0  0  0  0  0  0  0  0  0
    7.9449   -0.5740   18.5466 H   0  0  0  0  0  0  0  0  0  0  0  0
    5.0828    1.8761   16.8921 H   0  0  0  0  0  0  0  0  0  0  0  0
    3.8246    2.0247   19.0226 H   0  0  0  0  0  0  0  0  0  0  0  0
  1  2  2  0
  2  3  1  0
  3  4  2  0
  4  5  1  0
  5  6  1  0
  6  7  2  0
  7  8  1  0
  8  9  1  0
  9 10  1  0
 10 11  1  0
 11 12  1  0
 11 13  1  0
 10 14  1  0
 10 15  1  0
  9 16  1  0
  8 17  1  0
 17 18  1  0
 18 19  1  0
 19 20  2  0
 20 21  1  0
 21 22  1  0
 22 23  2  0
 23 24  1  0
 24 25  2  0
 25 26  1  0
 26 27  2  0
 26 28  1  0
 25 29  1  0
 24 30  1  0
 23 31  1  0
 18 32  1  0
 18 33  1  0
 17 34  2  0
  5 35  2  0
 35 36  1  0
  4 37  1  0
  2 38  1  0
  1 39  1  0
 35  1  1  0
 34  6  1  0
 11  9  1  0
 27 19  1  0
 27 22  1  0
M  END
>  <cnnaffinity>  (1) 
-6.02653

>  <filename>  (1) 
c1cncc(-c2nc(Cc3noc4ccccc34)n(C3CC3)n2)c1

$$$$
