
     RDKit          3D

 32 34  0  0  0  0  0  0  0  0999 V2000
    4.9431    1.8044   16.9809 H   0  0  0  0  0  0  0  0  0  0  0  0
    5.4026    1.2955   17.8251 C   0  0  0  0  0  0  0  0  0  0  0  0
    6.5607    0.6688   17.5645 N   0  0  0  0  0  0  0  0  0  0  0  0
    7.1561    0.0296   18.5748 C   0  0  0  0  0  0  0  0  0  0  0  0
    8.1084   -0.4480   18.3580 H   0  0  0  0  0  0  0  0  0  0  0  0
    6.6386   -0.0173   19.8772 C   0  0  0  0  0  0  0  0  0  0  0  0
    7.3779   -0.7104   20.9231 C   0  0  0  0  0  0  0  0  0  0  0  0
    8.0016   -1.9274   20.7597 N   0  0  0  0  0  0  0  0  0  0  0  0
    8.4799   -2.2277   21.9361 C   0  0  0  0  0  0  0  0  0  0  0  0
    9.0044   -3.1430   22.1826 H   0  0  0  0  0  0  0  0  0  0  0  0
    8.2229   -1.2553   22.8646 N   0  0  0  0  0  0  0  0  0  0  0  0
    8.5565   -1.1799   23.8068 H   0  0  0  0  0  0  0  0  0  0  0  0
    7.5332   -0.2716   22.2293 C   0  0  0  0  0  0  0  0  0  0  0  0
    7.0446    0.8417   22.8845 N   0  0  0  0  0  0  0  0  0  0  0  0
    6.9074    1.6123   22.2446 H   0  0  0  0  0  0  0  0  0  0  0  0
    7.4517    1.2407   24.2224 C   0  0  0  0  0  0  0  0  0  0  0  0
    7.1707    0.4603   24.9385 H   0  0  0  0  0  0  0  0  0  0  0  0
    6.8448    2.1175   24.4654 H   0  0  0  0  0  0  0  0  0  0  0  0
    8.9323    1.5641   24.4277 C   0  0  0  0  0  0  0  0  0  0  0  0
    9.7080    0.8511   25.3576 C   0  0  0  0  0  0  0  0  0  0  0  0
    9.2932    0.0822   26.0020 H   0  0  0  0  0  0  0  0  0  0  0  0
   11.0737    1.1167   25.4716 C   0  0  0  0  0  0  0  0  0  0  0  0
   11.6706    0.4867   26.1283 H   0  0  0  0  0  0  0  0  0  0  0  0
   11.7078    2.0786   24.7880 N   0  0  0  0  0  0  0  0  0  0  0  0
   10.9684    2.7881   23.9237 C   0  0  0  0  0  0  0  0  0  0  0  0
   11.4958    3.5658   23.3677 H   0  0  0  0  0  0  0  0  0  0  0  0
    9.6024    2.5641   23.7006 C   0  0  0  0  0  0  0  0  0  0  0  0
    9.0902    3.1637   22.9526 H   0  0  0  0  0  0  0  0  0  0  0  0
    5.4263    0.6496   20.1382 C   0  0  0  0  0  0  0  0  0  0  0  0
    5.0048    0.6392   21.1469 H   0  0  0  0  0  0  0  0  0  0  0  0
    4.7949    1.3111   19.0875 C   0  0  0  0  0  0  0  0  0  0  0  0
    3.8636    1.8496   19.2319 H   0  0  0  0  0  0  0  0  0  0  0  0
  1  2  1  0
  2  3  2  0
  3  4  1  0
  4  5  1  0
  4  6  2  0
  6  7  1  0
  7  8  1  0
  8  9  2  0
  9 10  1  0
  9 11  1  0
 11 12  1  0
 11 13  1  0
 13 14  1  0
 14 15  1  0
 14 16  1  0
 16 17  1  0
 16 18  1  0
 16 19  1  0
 19 20  2  0
 20 21  1  0
 20 22  1  0
 22 23  1  0
 22 24  2  0
 24 25  1  0
 25 26  1  0
 25 27  2  0
 27 28  1  0
  6 29  1  0
 29 30  1  0
 29 31  2  0
 31 32  1  0
 31  2  1  0
 13  7  2  0
 27 19  1  0
M  END
>  <cnnaffinity>  (1) 
-5.18179

>  <filename>  (1) 
c1cncc(-c2nc[nH]c2NCc2ccncc2)c1

$$$$
