
     RDKit          3D

 32 34  0  0  0  0  0  0  0  0999 V2000
    5.1281    1.7339   16.9743 H   0  0  0  0  0  0  0  0  0  0  0  0
    5.5160    1.2549   17.8720 C   0  0  0  0  0  0  0  0  0  0  0  0
    6.6648    0.5793   17.7243 N   0  0  0  0  0  0  0  0  0  0  0  0
    7.1502   -0.0275   18.8122 C   0  0  0  0  0  0  0  0  0  0  0  0
    8.0793   -0.5843   18.6762 H   0  0  0  0  0  0  0  0  0  0  0  0
    6.5419   -0.0026   20.0655 C   0  0  0  0  0  0  0  0  0  0  0  0
    7.2061   -0.7868   21.1604 C   0  0  2  0  0  0  0  0  0  0  0  0
    8.0746   -1.3185   20.7286 H   0  0  0  0  0  0  0  0  0  0  0  0
    6.2952   -1.7083   21.6958 O   0  0  0  0  0  0  0  0  0  0  0  0
    6.8444   -2.1189   22.9319 C   0  0  0  0  0  0  0  0  0  0  0  0
    7.5505   -2.9482   22.7690 H   0  0  0  0  0  0  0  0  0  0  0  0
    6.0354   -2.4838   23.5664 H   0  0  0  0  0  0  0  0  0  0  0  0
    7.5388   -0.8733   23.4988 C   0  0  0  0  0  0  0  0  0  0  0  0
    6.9624   -0.3666   24.2772 H   0  0  0  0  0  0  0  0  0  0  0  0
    8.5276   -1.1179   23.9090 H   0  0  0  0  0  0  0  0  0  0  0  0
    7.6658   -0.0211   22.3205 N   0  0  0  0  0  0  0  0  0  0  0  0
    8.8093    0.7963   22.2761 N   0  0  0  0  0  0  0  0  0  0  0  0
    8.7337    1.4702   21.5218 H   0  0  0  0  0  0  0  0  0  0  0  0
   10.1247    0.2556   22.2873 C   0  0  0  0  0  0  0  0  0  0  0  0
   10.9353    0.3781   23.4095 C   0  0  0  0  0  0  0  0  0  0  0  0
   10.5657    0.8711   24.3009 H   0  0  0  0  0  0  0  0  0  0  0  0
   12.2353   -0.1171   23.3347 C   0  0  0  0  0  0  0  0  0  0  0  0
   12.9039   -0.0312   24.1847 H   0  0  0  0  0  0  0  0  0  0  0  0
   12.7413   -0.7369   22.2638 N   0  0  0  0  0  0  0  0  0  0  0  0
   11.9489   -0.8408   21.1900 C   0  0  0  0  0  0  0  0  0  0  0  0
   12.3935   -1.3150   20.3195 H   0  0  0  0  0  0  0  0  0  0  0  0
   10.6549   -0.3298   21.1409 C   0  0  0  0  0  0  0  0  0  0  0  0
   10.0653   -0.3826   20.2368 H   0  0  0  0  0  0  0  0  0  0  0  0
    5.3418    0.7058   20.2156 C   0  0  0  0  0  0  0  0  0  0  0  0
    4.8330    0.7425   21.1813 H   0  0  0  0  0  0  0  0  0  0  0  0
    4.8236    1.3438   19.0880 C   0  0  0  0  0  0  0  0  0  0  0  0
    3.8984    1.9080   19.1330 H   0  0  0  0  0  0  0  0  0  0  0  0
  1  2  1  0
  2  3  2  0
  3  4  1  0
  4  5  1  0
  4  6  2  0
  6  7  1  0
  7  8  1  6
  7  9  1  0
  9 10  1  0
 10 11  1  0
 10 12  1  0
 10 13  1  0
 13 14  1  0
 13 15  1  0
 13 16  1  0
 16 17  1  0
 17 18  1  0
 17 19  1  0
 19 20  2  0
 20 21  1  0
 20 22  1  0
 22 23  1  0
 22 24  2  0
 24 25  1  0
 25 26  1  0
 25 27  2  0
 27 28  1  0
  6 29  1  0
 29 30  1  0
 29 31  2  0
 31 32  1  0
 31  2  1  0
 16  7  1  0
 27 19  1  0
M  END
>  <cnnaffinity>  (1) 
-4.26451

>  <filename>  (1) 
c1cncc([C@@H]2OCCN2Nc2ccncc2)c1

$$$$
