
     RDKit          3D

 30 33  0  0  0  0  0  0  0  0999 V2000
    4.8466    1.3323   19.1171 C   0  0  0  0  0  0  0  0  0  0  0  0
    5.4597    1.2877   17.8611 C   0  0  0  0  0  0  0  0  0  0  0  0
    6.6116    0.6351   17.6315 N   0  0  0  0  0  0  0  0  0  0  0  0
    7.1994    0.0350   18.6640 C   0  0  0  0  0  0  0  0  0  0  0  0
    6.7009    0.0964   19.9802 C   0  0  0  0  0  0  0  0  0  0  0  0
    7.4300   -0.5665   20.9936 N   0  0  0  0  0  0  0  0  0  0  0  0
    8.0070   -1.7435   20.6825 N   0  0  0  0  0  0  0  0  0  0  0  0
    8.4558   -2.2301   21.8249 C   0  0  0  0  0  0  0  0  0  0  0  0
    8.1956   -1.3650   22.8988 C   0  0  0  0  0  0  0  0  0  0  0  0
    7.5594   -0.2726   22.3382 C   0  0  0  0  0  0  0  0  0  0  0  0
    7.0228    0.8942   23.0245 C   0  0  0  0  0  0  0  0  0  0  0  0
    6.2208    0.8864   24.1498 C   0  0  0  0  0  0  0  0  0  0  0  0
    5.9226    2.1225   24.5962 N   0  0  0  0  0  0  0  0  0  0  0  0
    6.5284    2.9412   23.7493 C   0  0  0  0  0  0  0  0  0  0  0  0
    6.5709    4.3789   23.7082 C   0  0  0  0  0  0  0  0  0  0  0  0
    7.2012    5.0365   22.7725 N   0  0  0  0  0  0  0  0  0  0  0  0
    7.8810    4.3097   21.8070 C   0  0  0  0  0  0  0  0  0  0  0  0
    7.9311    2.9446   21.7843 C   0  0  0  0  0  0  0  0  0  0  0  0
    7.2235    2.2475   22.7598 N   0  0  0  0  0  0  0  0  0  0  0  0
    8.4871    2.3547   21.0692 H   0  0  0  0  0  0  0  0  0  0  0  0
    8.3869    4.9337   21.0770 H   0  0  0  0  0  0  0  0  0  0  0  0
    6.0638    4.9407   24.4942 H   0  0  0  0  0  0  0  0  0  0  0  0
    5.8126    0.0050   24.6291 H   0  0  0  0  0  0  0  0  0  0  0  0
    8.4592   -1.5051   23.9373 H   0  0  0  0  0  0  0  0  0  0  0  0
    8.9245   -3.2072   21.8239 H   0  0  0  0  0  0  0  0  0  0  0  0
    5.4754    0.7292   20.2124 C   0  0  0  0  0  0  0  0  0  0  0  0
    5.0232    0.7136   21.2064 H   0  0  0  0  0  0  0  0  0  0  0  0
    8.0986   -0.5406   18.4564 H   0  0  0  0  0  0  0  0  0  0  0  0
    5.0114    1.7774   16.9995 H   0  0  0  0  0  0  0  0  0  0  0  0
    3.8945    1.8383   19.2243 H   0  0  0  0  0  0  0  0  0  0  0  0
  1  2  2  0
  2  3  1  0
  3  4  2  0
  4  5  1  0
  5  6  1  0
  6  7  1  0
  7  8  2  0
  8  9  1  0
  9 10  2  0
 10 11  1  0
 11 12  2  0
 12 13  1  0
 13 14  2  0
 14 15  1  0
 15 16  2  0
 16 17  1  0
 17 18  2  0
 18 19  1  0
 18 20  1  0
 17 21  1  0
 15 22  1  0
 12 23  1  0
  9 24  1  0
  8 25  1  0
  5 26  2  0
 26 27  1  0
  4 28  1  0
  2 29  1  0
  1 30  1  0
 26  1  1  0
 10  6  1  0
 19 11  1  0
 19 14  1  0
M  END
>  <cnnaffinity>  (1) 
-4.94886

>  <filename>  (1) 
c1cncc(-n2nccc2-c2cnc3cnccn23)c1

$$$$
