
     RDKit          3D

 33 35  0  0  0  0  0  0  0  0999 V2000
    4.9256    1.8040   16.9764 H   0  0  0  0  0  0  0  0  0  0  0  0
    5.3892    1.3053   17.8265 C   0  0  0  0  0  0  0  0  0  0  0  0
    6.5510    0.6848   17.5758 N   0  0  0  0  0  0  0  0  0  0  0  0
    7.1459    0.0617   18.6002 C   0  0  0  0  0  0  0  0  0  0  0  0
    8.0981   -0.4150   18.3685 H   0  0  0  0  0  0  0  0  0  0  0  0
    6.6246   -0.0121   19.9044 C   0  0  0  0  0  0  0  0  0  0  0  0
    7.4027   -0.7207   20.9924 C   0  0  0  0  0  0  0  0  0  0  0  0
    6.7689   -0.8689   21.8754 H   0  0  0  0  0  0  0  0  0  0  0  0
    7.6915   -1.7288   20.6686 H   0  0  0  0  0  0  0  0  0  0  0  0
    8.6457    0.0426   21.3737 C   0  0  0  0  0  0  0  0  0  0  0  0
    9.9673   -0.1629   20.9250 C   0  0  0  0  0  0  0  0  0  0  0  0
   10.3331   -0.9130   20.2372 H   0  0  0  0  0  0  0  0  0  0  0  0
   10.8130    0.7344   21.4174 N   0  0  0  0  0  0  0  0  0  0  0  0
   10.0350    1.5218   22.1778 N   0  0  0  0  0  0  0  0  0  0  0  0
   10.4671    2.2632   22.7175 H   0  0  0  0  0  0  0  0  0  0  0  0
    8.7261    1.1638   22.1771 C   0  0  0  0  0  0  0  0  0  0  0  0
    7.6804    1.8278   23.0260 C   0  0  0  0  0  0  0  0  0  0  0  0
    7.9740    2.8603   23.2583 H   0  0  0  0  0  0  0  0  0  0  0  0
    6.7552    1.8951   22.4452 H   0  0  0  0  0  0  0  0  0  0  0  0
    7.4203    1.0571   24.3077 C   0  0  0  0  0  0  0  0  0  0  0  0
    6.2597    0.3068   24.5115 C   0  0  0  0  0  0  0  0  0  0  0  0
    5.4821    0.2782   23.7635 H   0  0  0  0  0  0  0  0  0  0  0  0
    6.1033   -0.4188   25.6961 C   0  0  0  0  0  0  0  0  0  0  0  0
    5.2055   -1.0077   25.8774 H   0  0  0  0  0  0  0  0  0  0  0  0
    7.0125   -0.4391   26.6755 N   0  0  0  0  0  0  0  0  0  0  0  0
    8.1255    0.2796   26.4833 C   0  0  0  0  0  0  0  0  0  0  0  0
    8.8540    0.2532   27.2904 H   0  0  0  0  0  0  0  0  0  0  0  0
    8.3710    1.0310   25.3315 C   0  0  0  0  0  0  0  0  0  0  0  0
    9.3003    1.5776   25.2444 H   0  0  0  0  0  0  0  0  0  0  0  0
    5.4151    0.6490   20.1403 C   0  0  0  0  0  0  0  0  0  0  0  0
    4.9787    0.6442   21.1408 H   0  0  0  0  0  0  0  0  0  0  0  0
    4.7867    1.3205   19.0881 C   0  0  0  0  0  0  0  0  0  0  0  0
    3.8586    1.8568   19.2323 H   0  0  0  0  0  0  0  0  0  0  0  0
  1  2  1  0
  2  3  2  0
  3  4  1  0
  4  5  1  0
  4  6  2  0
  6  7  1  0
  7  8  1  0
  7  9  1  0
  7 10  1  0
 10 11  1  0
 11 12  1  0
 11 13  2  0
 13 14  1  0
 14 15  1  0
 14 16  1  0
 16 17  1  0
 17 18  1  0
 17 19  1  0
 17 20  1  0
 20 21  2  0
 21 22  1  0
 21 23  1  0
 23 24  1  0
 23 25  2  0
 25 26  1  0
 26 27  1  0
 26 28  2  0
 28 29  1  0
  6 30  1  0
 30 31  1  0
 30 32  2  0
 32 33  1  0
 32  2  1  0
 16 10  2  0
 28 20  1  0
M  END
>  <cnnaffinity>  (1) 
-5.04896

>  <filename>  (1) 
c1cncc(Cc2cn[nH]c2Cc2ccncc2)c1

$$$$
