
     RDKit          3D

 31 33  0  0  0  0  0  0  0  0999 V2000
    4.9069    1.7736   17.0041 H   0  0  0  0  0  0  0  0  0  0  0  0
    5.3994    1.2928   17.8456 C   0  0  0  0  0  0  0  0  0  0  0  0
    6.5708    0.6815   17.5896 N   0  0  0  0  0  0  0  0  0  0  0  0
    7.1828    0.0528   18.5955 C   0  0  0  0  0  0  0  0  0  0  0  0
    8.1317   -0.4405   18.3848 H   0  0  0  0  0  0  0  0  0  0  0  0
    6.6567    0.0028   19.8970 C   0  0  0  0  0  0  0  0  0  0  0  0
    7.3536   -0.7018   20.9194 N   0  0  0  0  0  0  0  0  0  0  0  0
    7.8062   -1.9635   20.7669 N   0  0  0  0  0  0  0  0  0  0  0  0
    8.3595   -2.2962   21.8704 N   0  0  0  0  0  0  0  0  0  0  0  0
    8.3050   -1.2876   22.7671 N   0  0  0  0  0  0  0  0  0  0  0  0
    7.6875   -0.2965   22.1698 C   0  0  0  0  0  0  0  0  0  0  0  0
    7.4675    1.0590   22.7600 C   0  0  0  0  0  0  0  0  0  0  0  0
    7.0487    1.7290   21.9936 H   0  0  0  0  0  0  0  0  0  0  0  0
    8.8084    1.6755   23.2134 C   0  0  0  0  0  0  0  0  0  0  0  0
    9.4717    1.8081   22.3493 H   0  0  0  0  0  0  0  0  0  0  0  0
    9.3037    0.9849   23.9105 H   0  0  0  0  0  0  0  0  0  0  0  0
    8.5740    3.0112   23.9156 C   0  0  0  0  0  0  0  0  0  0  0  0
    9.5260    3.4143   24.2768 H   0  0  0  0  0  0  0  0  0  0  0  0
    8.1773    3.7422   23.1944 H   0  0  0  0  0  0  0  0  0  0  0  0
    7.6326    2.9047   25.0367 N   0  0  0  0  0  0  0  0  0  0  0  0
    8.0345    2.2510   25.7118 H   0  0  0  0  0  0  0  0  0  0  0  0
    6.3403    2.3542   24.6094 C   0  0  0  0  0  0  0  0  0  0  0  0
    5.6724    2.2834   25.4745 H   0  0  0  0  0  0  0  0  0  0  0  0
    5.8740    3.0655   23.9102 H   0  0  0  0  0  0  0  0  0  0  0  0
    6.4734    0.9886   23.9363 C   0  0  0  0  0  0  0  0  0  0  0  0
    6.8410    0.2602   24.6735 H   0  0  0  0  0  0  0  0  0  0  0  0
    5.4927    0.6386   23.5871 H   0  0  0  0  0  0  0  0  0  0  0  0
    5.4459    0.6491   20.1637 C   0  0  0  0  0  0  0  0  0  0  0  0
    5.0078    0.6261   21.1604 H   0  0  0  0  0  0  0  0  0  0  0  0
    4.8044    1.3095   19.1107 C   0  0  0  0  0  0  0  0  0  0  0  0
    3.8718    1.8452   19.2683 H   0  0  0  0  0  0  0  0  0  0  0  0
  1  2  1  0
  2  3  2  0
  3  4  1  0
  4  5  1  0
  4  6  2  0
  6  7  1  0
  7  8  1  0
  8  9  2  0
  9 10  1  0
 10 11  2  0
 11 12  1  0
 12 13  1  0
 12 14  1  0
 14 15  1  0
 14 16  1  0
 14 17  1  0
 17 18  1  0
 17 19  1  0
 17 20  1  0
 20 21  1  0
 20 22  1  0
 22 23  1  0
 22 24  1  0
 22 25  1  0
 25 26  1  0
 25 27  1  0
  6 28  1  0
 28 29  1  0
 28 30  2  0
 30 31  1  0
 30  2  1  0
 11  7  1  0
 25 12  1  0
M  END
>  <cnnaffinity>  (1) 
-4.82993

>  <filename>  (1) 
c1cncc(-n2nnnc2C2CCNCC2)c1

$$$$
