
     RDKit          3D

 33 35  0  0  0  0  0  0  0  0999 V2000
    8.8297   -3.6297   21.2794 H   0  0  0  0  0  0  0  0  0  0  0  0
    8.4962   -2.6393   21.5859 C   0  0  0  0  0  0  0  0  0  0  0  0
    7.8701   -1.9204   20.6474 N   0  0  0  0  0  0  0  0  0  0  0  0
    7.3997   -0.7127   20.9671 C   0  0  0  0  0  0  0  0  0  0  0  0
    6.6458   -0.0099   19.9022 C   0  0  0  0  0  0  0  0  0  0  0  0
    7.1664    0.0318   18.6009 C   0  0  0  0  0  0  0  0  0  0  0  0
    8.1170   -0.4384   18.3632 H   0  0  0  0  0  0  0  0  0  0  0  0
    6.5714    0.6708   17.5883 N   0  0  0  0  0  0  0  0  0  0  0  0
    5.4073    1.2864   17.8415 C   0  0  0  0  0  0  0  0  0  0  0  0
    4.9326    1.7816   16.9971 H   0  0  0  0  0  0  0  0  0  0  0  0
    4.8035    1.2977   19.1027 C   0  0  0  0  0  0  0  0  0  0  0  0
    3.8786    1.8376   19.2534 H   0  0  0  0  0  0  0  0  0  0  0  0
    5.4326    0.6437   20.1574 C   0  0  0  0  0  0  0  0  0  0  0  0
    5.0132    0.6515   21.1643 H   0  0  0  0  0  0  0  0  0  0  0  0
    7.6065   -0.1300   22.2573 C   0  0  0  0  0  0  0  0  0  0  0  0
    7.0969    1.1206   22.4669 O   0  0  0  0  0  0  0  0  0  0  0  0
    7.4299    1.8749   23.6301 C   0  0  0  0  0  0  0  0  0  0  0  0
    7.1441    1.3362   24.5392 H   0  0  0  0  0  0  0  0  0  0  0  0
    6.7987    2.7601   23.5514 H   0  0  0  0  0  0  0  0  0  0  0  0
    8.8779    2.3029   23.7040 C   0  0  0  0  0  0  0  0  0  0  0  0
    9.4970    2.9364   22.6212 C   0  0  0  0  0  0  0  0  0  0  0  0
    8.9437    3.1521   21.7191 H   0  0  0  0  0  0  0  0  0  0  0  0
   10.8462    3.2832   22.7089 C   0  0  0  0  0  0  0  0  0  0  0  0
   11.3500    3.7737   21.8831 H   0  0  0  0  0  0  0  0  0  0  0  0
   11.6120    3.0302   23.7752 N   0  0  0  0  0  0  0  0  0  0  0  0
   11.0160    2.4023   24.7879 C   0  0  0  0  0  0  0  0  0  0  0  0
   11.6522    2.1652   25.6273 H   0  0  0  0  0  0  0  0  0  0  0  0
    9.6639    2.0551   24.8282 C   0  0  0  0  0  0  0  0  0  0  0  0
    9.2580    1.5874   25.7192 H   0  0  0  0  0  0  0  0  0  0  0  0
    8.2936   -0.8752   23.2247 C   0  0  0  0  0  0  0  0  0  0  0  0
    8.4720   -0.4696   24.2228 H   0  0  0  0  0  0  0  0  0  0  0  0
    8.7329   -2.1561   22.8723 C   0  0  0  0  0  0  0  0  0  0  0  0
    9.2690   -2.7752   23.5815 H   0  0  0  0  0  0  0  0  0  0  0  0
  1  2  1  0
  2  3  2  0
  3  4  1  0
  4  5  1  0
  5  6  2  0
  6  7  1  0
  6  8  1  0
  8  9  2  0
  9 10  1  0
  9 11  1  0
 11 12  1  0
 11 13  2  0
 13 14  1  0
  4 15  2  0
 15 16  1  0
 16 17  1  0
 17 18  1  0
 17 19  1  0
 17 20  1  0
 20 21  2  0
 21 22  1  0
 21 23  1  0
 23 24  1  0
 23 25  2  0
 25 26  1  0
 26 27  1  0
 26 28  2  0
 28 29  1  0
 15 30  1  0
 30 31  1  0
 30 32  2  0
 32 33  1  0
 32  2  1  0
 13  5  1  0
 28 20  1  0
M  END
>  <cnnaffinity>  (1) 
-5.22673

>  <filename>  (1) 
c1cncc(-c2ncccc2OCc2ccncc2)c1

$$$$
