
     RDKit          3D

 38 42  0  0  0  0  0  0  0  0999 V2000
    4.9411    1.7979   16.9492 H   0  0  0  0  0  0  0  0  0  0  0  0
    5.4212    1.3057   17.7879 C   0  0  0  0  0  0  0  0  0  0  0  0
    6.5852    0.6922   17.5299 N   0  0  0  0  0  0  0  0  0  0  0  0
    7.2156    0.1037   18.5511 C   0  0  0  0  0  0  0  0  0  0  0  0
    8.1514   -0.3982   18.3091 H   0  0  0  0  0  0  0  0  0  0  0  0
    6.7134    0.0899   19.8658 C   0  0  0  0  0  0  0  0  0  0  0  0
    7.4079   -0.6495   20.9327 C   0  0  0  0  0  0  0  0  0  0  0  0
    8.6302   -1.1763   20.7613 N   0  0  0  0  0  0  0  0  0  0  0  0
    8.8097   -1.8790   21.9049 N   0  0  0  0  0  0  0  0  0  0  0  0
    9.7538   -2.7878   22.3604 C   0  0  0  0  0  0  0  0  0  0  0  0
   10.7014   -2.8975   21.8622 H   0  0  0  0  0  0  0  0  0  0  0  0
    9.2085   -3.3878   23.4473 C   0  0  0  0  0  0  0  0  0  0  0  0
    9.5673   -4.2151   24.0402 H   0  0  0  0  0  0  0  0  0  0  0  0
    7.9755   -2.7840   23.7268 N   0  0  0  0  0  0  0  0  0  0  0  0
    6.9697   -3.1887   24.6489 C   0  0  0  0  0  0  0  0  0  0  0  0
    6.4815   -4.4766   24.5791 C   0  0  0  0  0  0  0  0  0  0  0  0
    6.9162   -5.1719   23.8642 H   0  0  0  0  0  0  0  0  0  0  0  0
    5.3792   -4.8822   25.3704 C   0  0  0  0  0  0  0  0  0  0  0  0
    4.9994   -5.8941   25.2609 H   0  0  0  0  0  0  0  0  0  0  0  0
    4.7774   -4.0037   26.2377 C   0  0  0  0  0  0  0  0  0  0  0  0
    3.9167   -4.3062   26.8316 H   0  0  0  0  0  0  0  0  0  0  0  0
    5.2597   -2.6655   26.3552 C   0  0  0  0  0  0  0  0  0  0  0  0
    4.6298   -1.7360   27.2416 C   0  0  0  0  0  0  0  0  0  0  0  0
    3.7755   -2.0676   27.8284 H   0  0  0  0  0  0  0  0  0  0  0  0
    5.0867   -0.4471   27.3500 C   0  0  0  0  0  0  0  0  0  0  0  0
    4.6118    0.2504   28.0383 H   0  0  0  0  0  0  0  0  0  0  0  0
    6.1877   -0.0129   26.5664 C   0  0  0  0  0  0  0  0  0  0  0  0
    6.5345    1.0128   26.6662 H   0  0  0  0  0  0  0  0  0  0  0  0
    6.8088   -0.8711   25.6852 C   0  0  0  0  0  0  0  0  0  0  0  0
    7.6324   -0.5243   25.0650 H   0  0  0  0  0  0  0  0  0  0  0  0
    6.3724   -2.2348   25.5571 C   0  0  0  0  0  0  0  0  0  0  0  0
    7.7532   -1.8433   22.7362 C   0  0  0  0  0  0  0  0  0  0  0  0
    6.8319   -0.9700   22.1838 C   0  0  0  0  0  0  0  0  0  0  0  0
    5.9619   -0.5183   22.6124 H   0  0  0  0  0  0  0  0  0  0  0  0
    5.4773    0.7145   20.1071 C   0  0  0  0  0  0  0  0  0  0  0  0
    5.0235    0.7104   21.0993 H   0  0  0  0  0  0  0  0  0  0  0  0
    4.8236    1.3329   19.0505 C   0  0  0  0  0  0  0  0  0  0  0  0
    3.8750    1.8336   19.1977 H   0  0  0  0  0  0  0  0  0  0  0  0
  1  2  1  0
  2  3  2  0
  3  4  1  0
  4  5  1  0
  4  6  2  0
  6  7  1  0
  7  8  2  0
  8  9  1  0
  9 10  1  0
 10 11  1  0
 10 12  2  0
 12 13  1  0
 12 14  1  0
 14 15  1  0
 15 16  2  0
 16 17  1  0
 16 18  1  0
 18 19  1  0
 18 20  2  0
 20 21  1  0
 20 22  1  0
 22 23  2  0
 23 24  1  0
 23 25  1  0
 25 26  1  0
 25 27  2  0
 27 28  1  0
 27 29  1  0
 29 30  1  0
 29 31  2  0
 14 32  1  0
 32 33  2  0
 33 34  1  0
  6 35  1  0
 35 36  1  0
 35 37  2  0
 37 38  1  0
 37  2  1  0
 33  7  1  0
 32  9  1  0
 31 15  1  0
 31 22  1  0
M  END
>  <cnnaffinity>  (1) 
-5.85335

>  <filename>  (1) 
c1cncc(-c2cc3n(-c4cccc5ccccc45)ccn3n2)c1

$$$$
