
     RDKit          3D

 28 30  0  0  0  0  0  0  0  0999 V2000
    4.9253    1.7747   17.0006 H   0  0  0  0  0  0  0  0  0  0  0  0
    5.4086    1.2869   17.8450 C   0  0  0  0  0  0  0  0  0  0  0  0
    6.5734    0.6679   17.5926 N   0  0  0  0  0  0  0  0  0  0  0  0
    7.1791    0.0541   18.6137 C   0  0  0  0  0  0  0  0  0  0  0  0
    8.1255   -0.4309   18.3803 H   0  0  0  0  0  0  0  0  0  0  0  0
    6.6535    0.0092   19.9153 C   0  0  0  0  0  0  0  0  0  0  0  0
    7.3769   -0.6992   20.9744 C   0  0  0  0  0  0  0  0  0  0  0  0
    8.5554   -1.3511   20.8231 N   0  0  0  0  0  0  0  0  0  0  0  0
    8.8603   -1.8444   21.9896 N   0  0  0  0  0  0  0  0  0  0  0  0
    7.8914   -1.4935   22.8070 N   0  0  0  0  0  0  0  0  0  0  0  0
    7.8421   -1.8644   24.2187 C   0  0  1  0  0  0  0  0  0  0  0  0
    8.7469   -2.4273   24.4397 H   0  0  0  0  0  0  0  0  0  0  0  0
    7.7582   -0.6510   25.1600 C   0  0  0  0  0  0  0  0  0  0  0  0
    8.7492   -0.2412   25.3841 H   0  0  0  0  0  0  0  0  0  0  0  0
    7.1737    0.1498   24.6905 H   0  0  0  0  0  0  0  0  0  0  0  0
    7.1034   -1.1322   26.3740 N   0  0  0  0  0  0  0  0  0  0  0  0
    7.7778   -1.3118   27.1063 H   0  0  0  0  0  0  0  0  0  0  0  0
    6.3316   -2.3478   26.0777 C   0  0  0  0  0  0  0  0  0  0  0  0
    6.6411   -3.1609   26.7473 H   0  0  0  0  0  0  0  0  0  0  0  0
    5.2576   -2.1829   26.2455 H   0  0  0  0  0  0  0  0  0  0  0  0
    6.6066   -2.7001   24.6045 C   0  0  0  0  0  0  0  0  0  0  0  0
    5.7594   -2.4106   23.9788 H   0  0  0  0  0  0  0  0  0  0  0  0
    6.7802   -3.7673   24.4506 H   0  0  0  0  0  0  0  0  0  0  0  0
    6.9431   -0.7824   22.2293 N   0  0  0  0  0  0  0  0  0  0  0  0
    5.4299    0.6557   20.1678 C   0  0  0  0  0  0  0  0  0  0  0  0
    4.9936    0.6391   21.1707 H   0  0  0  0  0  0  0  0  0  0  0  0
    4.8060    1.3088   19.1086 C   0  0  0  0  0  0  0  0  0  0  0  0
    3.8731    1.8440   19.2573 H   0  0  0  0  0  0  0  0  0  0  0  0
  1  2  1  0
  2  3  2  0
  3  4  1  0
  4  5  1  0
  4  6  2  0
  6  7  1  0
  7  8  1  0
  8  9  2  0
  9 10  1  0
 10 11  1  0
 11 12  1  1
 11 13  1  0
 13 14  1  0
 13 15  1  0
 13 16  1  0
 16 17  1  0
 16 18  1  0
 18 19  1  0
 18 20  1  0
 18 21  1  0
 21 22  1  0
 21 23  1  0
 10 24  1  0
  6 25  1  0
 25 26  1  0
 25 27  2  0
 27 28  1  0
 27  2  1  0
 24  7  2  0
 21 11  1  0
M  END
>  <cnnaffinity>  (1) 
-4.4212

>  <filename>  (1) 
c1cncc(-c2nnn([C@@H]3CCNC3)n2)c1

$$$$
