
     RDKit          3D

 35 37  0  0  0  0  0  0  0  0999 V2000
    4.8496    1.3591   19.0713 C   0  0  0  0  0  0  0  0  0  0  0  0
    5.5276    1.3692   17.8487 C   0  0  0  0  0  0  0  0  0  0  0  0
    6.7007    0.7505   17.6451 N   0  0  0  0  0  0  0  0  0  0  0  0
    7.2479    0.1084   18.6835 C   0  0  0  0  0  0  0  0  0  0  0  0
    6.6638    0.0355   19.9580 C   0  0  0  0  0  0  0  0  0  0  0  0
    7.3712   -0.7000   21.0543 C   0  0  0  0  0  0  0  0  0  0  0  0
    8.2784    0.2551   21.7331 N   0  0  0  0  0  4  0  0  0  0  0  0
    9.1167   -0.3134   22.8214 C   0  0  0  0  0  0  0  0  0  0  0  0
   10.2128    0.6220   23.3544 C   0  0  0  0  0  0  0  0  0  0  0  0
   10.4413    0.2134   24.6950 O   0  0  0  0  0  0  0  0  0  0  0  0
    9.3238   -0.4828   25.2334 C   0  0  0  0  0  0  0  0  0  0  0  0
    8.2745   -0.6260   24.1055 C   0  0  0  0  0  0  0  0  0  0  0  0
    7.1259    0.2940   24.2082 N   0  0  0  0  0  0  0  0  0  0  0  0
    5.8838    0.0661   24.7046 C   0  0  0  0  0  0  0  0  0  0  0  0
    5.2633    1.3006   24.7970 C   0  0  0  0  0  0  0  0  0  0  0  0
    6.2076    2.2211   24.3093 C   0  0  0  0  0  0  0  0  0  0  0  0
    7.3122    1.5909   23.9242 N   0  0  0  0  0  0  0  0  0  0  0  0
    6.1315    3.2921   24.1750 H   0  0  0  0  0  0  0  0  0  0  0  0
    4.2897    1.5360   25.1900 H   0  0  0  0  0  0  0  0  0  0  0  0
    5.5415   -0.9496   24.8624 H   0  0  0  0  0  0  0  0  0  0  0  0
    7.8406   -1.6271   24.0722 H   0  0  0  0  0  0  0  0  0  0  0  0
    9.6807   -1.4688   25.5672 H   0  0  0  0  0  0  0  0  0  0  0  0
    8.9442    0.0435   26.1196 H   0  0  0  0  0  0  0  0  0  0  0  0
   11.1569    0.5306   22.8048 H   0  0  0  0  0  0  0  0  0  0  0  0
    9.9157    1.6805   23.3218 H   0  0  0  0  0  0  0  0  0  0  0  0
    9.6087   -1.2458   22.4995 H   0  0  0  0  0  0  0  0  0  0  0  0
    7.6859    1.0111   22.1660 H   0  0  0  0  0  0  0  0  0  0  0  0
    8.8242    0.7621   21.0116 H   0  0  0  0  0  0  0  0  0  0  0  0
    6.6487   -1.1135   21.7708 H   0  0  0  0  0  0  0  0  0  0  0  0
    7.9402   -1.5491   20.6462 H   0  0  0  0  0  0  0  0  0  0  0  0
    5.4271    0.6724   20.1429 C   0  0  0  0  0  0  0  0  0  0  0  0
    4.9341    0.6414   21.1168 H   0  0  0  0  0  0  0  0  0  0  0  0
    8.1985   -0.3900   18.4841 H   0  0  0  0  0  0  0  0  0  0  0  0
    5.1032    1.8847   16.9894 H   0  0  0  0  0  0  0  0  0  0  0  0
    3.9045    1.8848   19.1685 H   0  0  0  0  0  0  0  0  0  0  0  0
  1  2  2  0
  2  3  1  0
  3  4  2  0
  4  5  1  0
  5  6  1  0
  6  7  1  0
  7  8  1  0
  8  9  1  0
  9 10  1  0
 10 11  1  0
 11 12  1  0
 12 13  1  0
 13 14  1  0
 14 15  2  0
 15 16  1  0
 16 17  2  0
 16 18  1  0
 15 19  1  0
 14 20  1  0
 12 21  1  0
 11 22  1  0
 11 23  1  0
  9 24  1  0
  9 25  1  0
  8 26  1  0
  7 27  1  0
  7 28  1  0
  6 29  1  0
  6 30  1  0
  5 31  2  0
 31 32  1  0
  4 33  1  0
  2 34  1  0
  1 35  1  0
 31  1  1  0
 12  8  1  0
 17 13  1  0
M  CHG  1   7   1
M  END
>  <cnnaffinity>  (1) 
-4.28383

>  <filename>  (1) 
c1cncc(C[NH2+]C2COCC2n2cccn2)c1

$$$$
