
     RDKit          3D

 37 41  0  0  0  0  0  0  0  0999 V2000
    5.0389    1.8254   16.8925 H   0  0  0  0  0  0  0  0  0  0  0  0
    5.3945    1.3030   17.7779 C   0  0  0  0  0  0  0  0  0  0  0  0
    6.5400    0.6183   17.6367 N   0  0  0  0  0  0  0  0  0  0  0  0
    7.0096   -0.0010   18.7250 C   0  0  0  0  0  0  0  0  0  0  0  0
    7.9333   -0.5624   18.6015 H   0  0  0  0  0  0  0  0  0  0  0  0
    6.3901    0.0057   19.9881 C   0  0  0  0  0  0  0  0  0  0  0  0
    7.1399   -0.6047   21.1018 C   0  0  0  0  0  0  0  0  0  0  0  0
    8.5011   -0.5974   21.3403 C   0  0  0  0  0  0  0  0  0  0  0  0
    8.6799   -1.2268   22.5644 C   0  0  0  0  0  0  0  0  0  0  0  0
    7.5455   -1.6478   23.0935 N   0  0  0  0  0  0  0  0  0  0  0  0
    6.6148   -1.2456   22.1875 N   0  0  0  0  0  0  0  0  0  0  0  0
    5.6585   -1.5508   22.3081 H   0  0  0  0  0  0  0  0  0  0  0  0
   10.1158   -1.2716   22.9915 C   0  0  0  0  0  0  0  0  0  0  0  0
   10.2404   -0.8158   23.9795 H   0  0  0  0  0  0  0  0  0  0  0  0
   10.4779   -2.3006   23.0653 H   0  0  0  0  0  0  0  0  0  0  0  0
   10.8569   -0.4882   21.8429 C   0  0  2  0  0  0  0  0  0  0  0  0
   11.6513   -1.1115   21.4306 H   0  0  0  0  0  0  0  0  0  0  0  0
   11.4981    0.7769   22.3590 C   0  0  0  0  0  0  0  0  0  0  0  0
   10.8119    1.7567   22.8385 N   0  0  0  0  0  0  0  0  0  0  0  0
   11.6302    2.8371   23.1333 C   0  0  0  0  0  0  0  0  0  0  0  0
   11.1998    4.0532   23.6904 C   0  0  0  0  0  0  0  0  0  0  0  0
   10.1529    4.1547   23.9550 H   0  0  0  0  0  0  0  0  0  0  0  0
   12.1127    5.0927   23.8294 C   0  0  0  0  0  0  0  0  0  0  0  0
   11.8102    6.0369   24.2723 H   0  0  0  0  0  0  0  0  0  0  0  0
   13.4381    4.9421   23.3767 C   0  0  0  0  0  0  0  0  0  0  0  0
   14.0913    5.8034   23.3609 H   0  0  0  0  0  0  0  0  0  0  0  0
   13.9015    3.7242   22.8949 C   0  0  0  0  0  0  0  0  0  0  0  0
   14.9368    3.6211   22.5827 H   0  0  0  0  0  0  0  0  0  0  0  0
   12.9955    2.6582   22.8189 C   0  0  0  0  0  0  0  0  0  0  0  0
   13.2394    1.0143   22.3142 S   0  0  0  0  0  0  0  0  0  0  0  0
    9.7904   -0.1640   20.7296 C   0  0  0  0  0  0  0  0  0  0  0  0
    9.9906   -0.7192   19.8094 H   0  0  0  0  0  0  0  0  0  0  0  0
    9.7788    0.8960   20.4465 H   0  0  0  0  0  0  0  0  0  0  0  0
    5.1604    0.6824   20.0983 C   0  0  0  0  0  0  0  0  0  0  0  0
    4.6218    0.7045   21.0477 H   0  0  0  0  0  0  0  0  0  0  0  0
    4.6698    1.3561   18.9762 C   0  0  0  0  0  0  0  0  0  0  0  0
    3.7507    1.9329   19.0191 H   0  0  0  0  0  0  0  0  0  0  0  0
  1  2  1  0
  2  3  2  0
  3  4  1  0
  4  5  1  0
  4  6  2  0
  6  7  1  0
  7  8  2  0
  8  9  1  0
  9 10  2  0
 10 11  1  0
 11 12  1  0
  9 13  1  0
 13 14  1  0
 13 15  1  0
 13 16  1  0
 16 17  1  6
 16 18  1  0
 18 19  2  0
 19 20  1  0
 20 21  2  0
 21 22  1  0
 21 23  1  0
 23 24  1  0
 23 25  2  0
 25 26  1  0
 25 27  1  0
 27 28  1  0
 27 29  2  0
 29 30  1  0
 16 31  1  0
 31 32  1  0
 31 33  1  0
  6 34  1  0
 34 35  1  0
 34 36  2  0
 36 37  1  0
 36  2  1  0
 11  7  1  0
 30 18  1  0
 31  8  1  0
 29 20  1  0
M  END
>  <cnnaffinity>  (1) 
-6.12516

>  <filename>  (1) 
c1cncc(-c2[nH]nc3c2C[C@@H](c2nc4ccccc4s2)C3)c1

$$$$
