
     RDKit          3D

 39 42  0  0  0  0  0  0  0  0999 V2000
    4.8216    1.3581   19.0129 C   0  0  0  0  0  0  0  0  0  0  0  0
    5.4627    1.3635   17.7703 C   0  0  0  0  0  0  0  0  0  0  0  0
    6.6431    0.7654   17.5496 N   0  0  0  0  0  0  0  0  0  0  0  0
    7.2177    0.1419   18.5836 C   0  0  0  0  0  0  0  0  0  0  0  0
    6.6523    0.0521   19.8621 C   0  0  0  0  0  0  0  0  0  0  0  0
    7.3724   -0.6914   20.9444 C   0  0  0  0  0  0  0  0  0  0  0  0
    8.4388    0.1796   21.5204 N   0  0  0  0  0  4  0  0  0  0  0  0
    7.9040    1.3872   22.3035 C   0  0  0  0  0  0  0  0  0  0  0  0
    9.0481    1.7812   23.2410 C   0  0  0  0  0  0  0  0  0  0  0  0
   10.1186    0.6755   23.1400 C   0  0  0  0  0  0  0  0  0  0  0  0
    9.4536   -0.5203   22.4412 C   0  0  0  0  0  0  0  0  0  0  0  0
    8.8263   -1.5754   23.3381 C   0  0  0  0  0  0  0  0  0  0  0  0
    9.0172   -2.8444   23.1764 N   0  0  0  0  0  0  0  0  0  0  0  0
    8.2956   -3.5623   24.1196 C   0  0  0  0  0  0  0  0  0  0  0  0
    8.3527   -4.9537   24.2891 C   0  0  0  0  0  0  0  0  0  0  0  0
    7.6355   -5.5401   25.3243 C   0  0  0  0  0  0  0  0  0  0  0  0
    6.7856   -4.7611   26.1419 C   0  0  0  0  0  0  0  0  0  0  0  0
    6.6591   -3.3875   25.9423 C   0  0  0  0  0  0  0  0  0  0  0  0
    7.4794   -2.7899   24.9727 C   0  0  0  0  0  0  0  0  0  0  0  0
    7.7098   -1.1067   24.6081 S   0  0  0  0  0  0  0  0  0  0  0  0
    5.9187   -2.8069   26.4897 H   0  0  0  0  0  0  0  0  0  0  0  0
    6.2272   -5.2458   26.9377 H   0  0  0  0  0  0  0  0  0  0  0  0
    7.7436   -6.6055   25.5080 H   0  0  0  0  0  0  0  0  0  0  0  0
    8.9738   -5.5447   23.6237 H   0  0  0  0  0  0  0  0  0  0  0  0
   10.1570   -1.0821   21.8250 H   0  0  0  0  0  0  0  0  0  0  0  0
   10.9551    1.0158   22.5185 H   0  0  0  0  0  0  0  0  0  0  0  0
   10.5322    0.3952   24.1125 H   0  0  0  0  0  0  0  0  0  0  0  0
    8.6722    1.8600   24.2640 H   0  0  0  0  0  0  0  0  0  0  0  0
    9.4577    2.7575   22.9577 H   0  0  0  0  0  0  0  0  0  0  0  0
    7.6107    2.1736   21.5999 H   0  0  0  0  0  0  0  0  0  0  0  0
    7.0212    1.0660   22.8619 H   0  0  0  0  0  0  0  0  0  0  0  0
    8.9503    0.5575   20.6876 H   0  0  0  0  0  0  0  0  0  0  0  0
    7.8221   -1.6198   20.5631 H   0  0  0  0  0  0  0  0  0  0  0  0
    6.6779   -0.9837   21.7425 H   0  0  0  0  0  0  0  0  0  0  0  0
    5.4329    0.7047   20.0851 C   0  0  0  0  0  0  0  0  0  0  0  0
    4.9829    0.7138   21.0820 H   0  0  0  0  0  0  0  0  0  0  0  0
    8.1801   -0.3314   18.3901 H   0  0  0  0  0  0  0  0  0  0  0  0
    5.0164    1.8756   16.9165 H   0  0  0  0  0  0  0  0  0  0  0  0
    3.8752    1.8717   19.1268 H   0  0  0  0  0  0  0  0  0  0  0  0
  1  2  2  0
  2  3  1  0
  3  4  2  0
  4  5  1  0
  5  6  1  0
  6  7  1  0
  7  8  1  0
  8  9  1  0
  9 10  1  0
 10 11  1  0
 11 12  1  0
 12 13  2  0
 13 14  1  0
 14 15  2  0
 15 16  1  0
 16 17  2  0
 17 18  1  0
 18 19  2  0
 19 20  1  0
 18 21  1  0
 17 22  1  0
 16 23  1  0
 15 24  1  0
 11 25  1  0
 10 26  1  0
 10 27  1  0
  9 28  1  0
  9 29  1  0
  8 30  1  0
  8 31  1  0
  7 32  1  0
  6 33  1  0
  6 34  1  0
  5 35  2  0
 35 36  1  0
  4 37  1  0
  2 38  1  0
  1 39  1  0
 35  1  1  0
 11  7  1  0
 20 12  1  0
 19 14  1  0
M  CHG  1   7   1
M  END
>  <cnnaffinity>  (1) 
-5.4048

>  <filename>  (1) 
c1cncc(C[NH+]2CCCC2c2nc3ccccc3s2)c1

$$$$
