
     RDKit          3D

 30 32  0  0  0  0  0  0  0  0999 V2000
    4.9400    1.7976   16.9770 H   0  0  0  0  0  0  0  0  0  0  0  0
    5.3974    1.2944   17.8267 C   0  0  0  0  0  0  0  0  0  0  0  0
    6.5605    0.6728   17.5779 N   0  0  0  0  0  0  0  0  0  0  0  0
    7.1627    0.0626   18.6005 C   0  0  0  0  0  0  0  0  0  0  0  0
    8.1173   -0.4129   18.3903 H   0  0  0  0  0  0  0  0  0  0  0  0
    6.6383    0.0109   19.9003 C   0  0  0  0  0  0  0  0  0  0  0  0
    7.4208   -0.6985   20.9040 C   0  0  0  0  0  0  0  0  0  0  0  0
    8.6764   -1.0638   20.7785 N   0  0  0  0  0  0  0  0  0  0  0  0
    9.0043   -1.6863   21.9498 C   0  0  0  0  0  0  0  0  0  0  0  0
   10.0052   -2.0680   22.1236 H   0  0  0  0  0  0  0  0  0  0  0  0
    7.9279   -1.7281   22.8034 C   0  0  0  0  0  0  0  0  0  0  0  0
    7.7274   -2.3024   24.1713 C   0  0  1  0  0  0  0  0  0  0  0  0
    8.6668   -2.7864   24.4594 H   0  0  0  0  0  0  0  0  0  0  0  0
    7.3744   -1.2388   25.2609 C   0  0  0  0  0  0  0  0  0  0  0  0
    8.2583   -0.8933   25.8117 H   0  0  0  0  0  0  0  0  0  0  0  0
    6.9286   -0.3423   24.8060 H   0  0  0  0  0  0  0  0  0  0  0  0
    6.4137   -1.8559   26.1735 N   0  0  0  0  0  0  0  0  0  0  0  0
    6.9149   -2.3826   26.8833 H   0  0  0  0  0  0  0  0  0  0  0  0
    5.6257   -2.7798   25.3606 C   0  0  0  0  0  0  0  0  0  0  0  0
    4.7989   -2.2288   24.8913 H   0  0  0  0  0  0  0  0  0  0  0  0
    5.1624   -3.5445   25.9962 H   0  0  0  0  0  0  0  0  0  0  0  0
    6.5781   -3.3554   24.2883 C   0  0  0  0  0  0  0  0  0  0  0  0
    6.9818   -4.3251   24.6010 H   0  0  0  0  0  0  0  0  0  0  0  0
    6.0716   -3.5353   23.3337 H   0  0  0  0  0  0  0  0  0  0  0  0
    6.9231   -1.0764   22.1104 N   0  0  0  0  0  0  0  0  0  0  0  0
    5.9664   -0.9547   22.3979 H   0  0  0  0  0  0  0  0  0  0  0  0
    5.4166    0.6612   20.1480 C   0  0  0  0  0  0  0  0  0  0  0  0
    4.9630    0.6848   21.1423 H   0  0  0  0  0  0  0  0  0  0  0  0
    4.7894    1.3151   19.0904 C   0  0  0  0  0  0  0  0  0  0  0  0
    3.8566    1.8547   19.2274 H   0  0  0  0  0  0  0  0  0  0  0  0
  1  2  1  0
  2  3  2  0
  3  4  1  0
  4  5  1  0
  4  6  2  0
  6  7  1  0
  7  8  2  0
  8  9  1  0
  9 10  1  0
  9 11  2  0
 11 12  1  0
 12 13  1  1
 12 14  1  0
 14 15  1  0
 14 16  1  0
 14 17  1  0
 17 18  1  0
 17 19  1  0
 19 20  1  0
 19 21  1  0
 19 22  1  0
 22 23  1  0
 22 24  1  0
 11 25  1  0
 25 26  1  0
  6 27  1  0
 27 28  1  0
 27 29  2  0
 29 30  1  0
 29  2  1  0
 25  7  1  0
 22 12  1  0
M  END
>  <cnnaffinity>  (1) 
-4.83784

>  <filename>  (1) 
c1cncc(-c2ncc([C@@H]3CCNC3)[nH]2)c1

$$$$
