
     RDKit          3D

 40 44  0  0  0  0  0  0  0  0999 V2000
    4.9688    1.8401   16.9408 H   0  0  0  0  0  0  0  0  0  0  0  0
    5.3877    1.3069   17.7902 C   0  0  0  0  0  0  0  0  0  0  0  0
    6.5448    0.6592   17.5852 N   0  0  0  0  0  0  0  0  0  0  0  0
    7.0943    0.0313   18.6362 C   0  0  0  0  0  0  0  0  0  0  0  0
    8.0424   -0.4656   18.4236 H   0  0  0  0  0  0  0  0  0  0  0  0
    6.5161   -0.0164   19.9255 C   0  0  0  0  0  0  0  0  0  0  0  0
    7.2602   -0.6428   21.0424 C   0  0  0  0  0  0  0  0  0  0  0  0
    8.6150   -0.6088   21.2692 C   0  0  0  0  0  0  0  0  0  0  0  0
    8.8293   -1.1835   22.5152 C   0  0  0  0  0  0  0  0  0  0  0  0
    7.7127   -1.6328   23.0585 N   0  0  0  0  0  0  0  0  0  0  0  0
    6.7594   -1.2781   22.1516 N   0  0  0  0  0  0  0  0  0  0  0  0
    5.7940   -1.4645   22.3872 H   0  0  0  0  0  0  0  0  0  0  0  0
   10.2626   -1.0987   22.9475 C   0  0  0  0  0  0  0  0  0  0  0  0
   10.3829   -0.6281   23.9305 H   0  0  0  0  0  0  0  0  0  0  0  0
   10.7026   -2.0944   23.0225 H   0  0  0  0  0  0  0  0  0  0  0  0
   10.9341   -0.2470   21.8089 C   0  0  2  0  0  0  0  0  0  0  0  0
   11.7896   -0.8013   21.4121 H   0  0  0  0  0  0  0  0  0  0  0  0
   11.4105    1.0948   22.3309 C   0  0  0  0  0  0  0  0  0  0  0  0
   12.7932    1.4750   22.3257 C   0  0  0  0  0  0  0  0  0  0  0  0
   13.5415    0.7824   21.9295 H   0  0  0  0  0  0  0  0  0  0  0  0
   13.2583    2.6195   22.7721 N   0  0  0  0  0  0  0  0  0  0  0  0
   12.3530    3.5215   23.2768 C   0  0  0  0  0  0  0  0  0  0  0  0
   12.8542    4.7696   23.7499 C   0  0  0  0  0  0  0  0  0  0  0  0
   13.9202    4.9221   23.6491 H   0  0  0  0  0  0  0  0  0  0  0  0
   12.0047    5.7091   24.2927 C   0  0  0  0  0  0  0  0  0  0  0  0
   12.3967    6.6592   24.6547 H   0  0  0  0  0  0  0  0  0  0  0  0
   10.6088    5.4391   24.3787 C   0  0  0  0  0  0  0  0  0  0  0  0
    9.9576    6.1948   24.8135 H   0  0  0  0  0  0  0  0  0  0  0  0
   10.0876    4.2486   23.9216 C   0  0  0  0  0  0  0  0  0  0  0  0
    9.0163    4.0589   23.9878 H   0  0  0  0  0  0  0  0  0  0  0  0
   10.9507    3.2553   23.3546 C   0  0  0  0  0  0  0  0  0  0  0  0
   10.5044    2.0002   22.8538 C   0  0  0  0  0  0  0  0  0  0  0  0
    9.4401    1.7628   22.8924 H   0  0  0  0  0  0  0  0  0  0  0  0
    9.8668   -0.0734   20.6743 C   0  0  0  0  0  0  0  0  0  0  0  0
   10.1516   -0.6379   19.7869 H   0  0  0  0  0  0  0  0  0  0  0  0
    9.7642    0.9694   20.3451 H   0  0  0  0  0  0  0  0  0  0  0  0
    5.2952    0.6604   20.1024 C   0  0  0  0  0  0  0  0  0  0  0  0
    4.8288    0.7065   21.0860 H   0  0  0  0  0  0  0  0  0  0  0  0
    4.7270    1.3340   19.0219 C   0  0  0  0  0  0  0  0  0  0  0  0
    3.8111    1.9058   19.1346 H   0  0  0  0  0  0  0  0  0  0  0  0
  1  2  1  0
  2  3  2  0
  3  4  1  0
  4  5  1  0
  4  6  2  0
  6  7  1  0
  7  8  2  0
  8  9  1  0
  9 10  2  0
 10 11  1  0
 11 12  1  0
  9 13  1  0
 13 14  1  0
 13 15  1  0
 13 16  1  0
 16 17  1  6
 16 18  1  0
 18 19  2  0
 19 20  1  0
 19 21  1  0
 21 22  2  0
 22 23  1  0
 23 24  1  0
 23 25  2  0
 25 26  1  0
 25 27  1  0
 27 28  1  0
 27 29  2  0
 29 30  1  0
 29 31  1  0
 31 32  2  0
 32 33  1  0
 16 34  1  0
 34 35  1  0
 34 36  1  0
  6 37  1  0
 37 38  1  0
 37 39  2  0
 39 40  1  0
 39  2  1  0
 11  7  1  0
 32 18  1  0
 34  8  1  0
 31 22  1  0
M  END
>  <cnnaffinity>  (1) 
-6.15092

>  <filename>  (1) 
c1cncc(-c2[nH]nc3c2C[C@@H](c2cnc4ccccc4c2)C3)c1

$$$$
