
     RDKit          3D

 39 43  0  0  0  0  0  0  0  0999 V2000
    4.7932    1.3077   19.0638 C   0  0  0  0  0  0  0  0  0  0  0  0
    5.3872    1.2990   17.7997 C   0  0  0  0  0  0  0  0  0  0  0  0
    6.5361    0.6632   17.5257 N   0  0  0  0  0  0  0  0  0  0  0  0
    7.1389    0.0185   18.5331 C   0  0  0  0  0  0  0  0  0  0  0  0
    6.6367   -0.0415   19.8483 C   0  0  0  0  0  0  0  0  0  0  0  0
    7.4179   -0.6718   21.0016 C   0  0  0  0  0  0  0  0  0  0  0  0
    8.3120    0.3220   21.6884 C   0  0  0  0  0  0  0  0  0  0  0  0
    9.5161    0.5899   21.2190 N   0  0  0  0  0  0  0  0  0  0  0  0
    9.9783    1.5097   22.0968 N   0  0  0  0  0  0  0  0  0  0  0  0
   11.3457    1.9531   22.0793 C   0  0  0  0  0  0  0  0  0  0  0  0
   12.4148    0.9079   22.1638 C   0  0  0  0  0  0  0  0  0  0  0  0
   12.1367    1.7825   23.3473 C   0  0  0  0  0  0  0  0  0  0  0  0
   12.8868    2.5349   23.5668 H   0  0  0  0  0  0  0  0  0  0  0  0
   11.6285    1.3643   24.2136 H   0  0  0  0  0  0  0  0  0  0  0  0
   12.0543   -0.1157   22.1366 H   0  0  0  0  0  0  0  0  0  0  0  0
   13.3605    1.0807   21.6676 H   0  0  0  0  0  0  0  0  0  0  0  0
   11.5086    2.8136   21.4378 H   0  0  0  0  0  0  0  0  0  0  0  0
    9.0059    1.7991   22.9972 C   0  0  0  0  0  0  0  0  0  0  0  0
    9.1014    2.8877   23.9590 C   0  0  0  0  0  0  0  0  0  0  0  0
    9.9211    3.9812   23.9765 C   0  0  0  0  0  0  0  0  0  0  0  0
    9.7042    4.8091   25.1176 C   0  0  0  0  0  0  0  0  0  0  0  0
   10.3403    6.0010   25.5182 C   0  0  0  0  0  0  0  0  0  0  0  0
    9.9140    6.5946   26.6959 C   0  0  0  0  0  0  0  0  0  0  0  0
    8.9334    6.0984   27.4889 N   0  0  0  0  0  0  0  0  0  0  0  0
    8.3215    4.9802   27.1100 C   0  0  0  0  0  0  0  0  0  0  0  0
    8.6762    4.2975   25.9369 C   0  0  0  0  0  0  0  0  0  0  0  0
    7.9881    2.8417   25.2912 S   0  0  0  0  0  0  0  0  0  0  0  0
    7.5221    4.5986   27.7464 H   0  0  0  0  0  0  0  0  0  0  0  0
   10.3693    7.5215   27.0380 H   0  0  0  0  0  0  0  0  0  0  0  0
   11.1322    6.4456   24.9229 H   0  0  0  0  0  0  0  0  0  0  0  0
   10.6647    4.2134   23.2222 H   0  0  0  0  0  0  0  0  0  0  0  0
    7.9532    1.0229   22.7855 N   0  0  0  0  0  0  0  0  0  0  0  0
    8.0529   -1.4967   20.6578 H   0  0  0  0  0  0  0  0  0  0  0  0
    6.7444   -1.0751   21.7682 H   0  0  0  0  0  0  0  0  0  0  0  0
    5.4360    0.6351   20.1040 C   0  0  0  0  0  0  0  0  0  0  0  0
    5.0274    0.6593   21.1162 H   0  0  0  0  0  0  0  0  0  0  0  0
    8.0912   -0.4540   18.2825 H   0  0  0  0  0  0  0  0  0  0  0  0
    4.9301    1.8413   16.9755 H   0  0  0  0  0  0  0  0  0  0  0  0
    3.8691    1.8544   19.2204 H   0  0  0  0  0  0  0  0  0  0  0  0
  1  2  2  0
  2  3  1  0
  3  4  2  0
  4  5  1  0
  5  6  1  0
  6  7  1  0
  7  8  2  0
  8  9  1  0
  9 10  1  0
 10 11  1  0
 11 12  1  0
 12 13  1  0
 12 14  1  0
 11 15  1  0
 11 16  1  0
 10 17  1  0
  9 18  1  0
 18 19  1  0
 19 20  2  0
 20 21  1  0
 21 22  2  0
 22 23  1  0
 23 24  2  0
 24 25  1  0
 25 26  2  0
 26 27  1  0
 25 28  1  0
 23 29  1  0
 22 30  1  0
 20 31  1  0
 18 32  2  0
  6 33  1  0
  6 34  1  0
  5 35  2  0
 35 36  1  0
  4 37  1  0
  2 38  1  0
  1 39  1  0
 35  1  1  0
 32  7  1  0
 12 10  1  0
 27 19  1  0
 26 21  1  0
M  END
>  <cnnaffinity>  (1) 
-5.61433

>  <filename>  (1) 
c1cncc(Cc2nc(-c3cc4ccncc4s3)n(C3CC3)n2)c1

$$$$
