
     RDKit          3D

 33 36  0  0  0  0  0  0  0  0999 V2000
    4.9855    1.7789   16.9846 H   0  0  0  0  0  0  0  0  0  0  0  0
    5.4511    1.2738   17.8271 C   0  0  0  0  0  0  0  0  0  0  0  0
    6.6111    0.6397   17.5777 N   0  0  0  0  0  0  0  0  0  0  0  0
    7.2227    0.0316   18.5969 C   0  0  0  0  0  0  0  0  0  0  0  0
    8.1683   -0.4696   18.3969 H   0  0  0  0  0  0  0  0  0  0  0  0
    6.7019    0.0102   19.8977 C   0  0  0  0  0  0  0  0  0  0  0  0
    7.4023   -0.6857   20.9093 N   0  0  0  0  0  0  0  0  0  0  0  0
    8.7238   -0.9406   20.8303 N   0  0  0  0  0  0  0  0  0  0  0  0
    9.0162   -1.5888   21.9420 C   0  0  0  0  0  0  0  0  0  0  0  0
   10.0315   -1.9117   22.1313 H   0  0  0  0  0  0  0  0  0  0  0  0
    7.8811   -1.7788   22.7635 C   0  0  0  0  0  0  0  0  0  0  0  0
    7.8535   -2.4330   24.0797 C   0  0  0  0  0  0  0  0  0  0  0  0
    8.9755   -2.9465   24.5408 N   0  0  0  0  0  0  0  0  0  0  0  0
    8.9050   -3.6500   25.7147 C   0  0  0  0  0  0  0  0  0  0  0  0
   10.1139   -4.2415   26.1827 C   0  0  0  0  0  0  0  0  0  0  0  0
   10.9907   -4.0096   25.5873 H   0  0  0  0  0  0  0  0  0  0  0  0
   10.1232   -5.0365   27.3047 C   0  0  0  0  0  0  0  0  0  0  0  0
   11.0559   -5.4826   27.6499 H   0  0  0  0  0  0  0  0  0  0  0  0
    8.9119   -5.2740   28.0205 C   0  0  0  0  0  0  0  0  0  0  0  0
    8.9332   -5.9479   28.8751 H   0  0  0  0  0  0  0  0  0  0  0  0
    7.7409   -4.6437   27.6551 C   0  0  0  0  0  0  0  0  0  0  0  0
    6.8342   -4.7784   28.2481 H   0  0  0  0  0  0  0  0  0  0  0  0
    7.7044   -3.8210   26.4838 C   0  0  0  0  0  0  0  0  0  0  0  0
    6.5303   -3.1720   25.9869 C   0  0  0  0  0  0  0  0  0  0  0  0
    5.6032   -3.2257   26.5639 H   0  0  0  0  0  0  0  0  0  0  0  0
    6.6061   -2.5079   24.7889 C   0  0  0  0  0  0  0  0  0  0  0  0
    5.7208   -2.0635   24.3488 H   0  0  0  0  0  0  0  0  0  0  0  0
    6.8630   -1.1956   22.0360 C   0  0  0  0  0  0  0  0  0  0  0  0
    5.8018   -1.1046   22.1804 H   0  0  0  0  0  0  0  0  0  0  0  0
    5.4845    0.6616   20.1569 C   0  0  0  0  0  0  0  0  0  0  0  0
    5.0607    0.7028   21.1624 H   0  0  0  0  0  0  0  0  0  0  0  0
    4.8526    1.2999   19.0907 C   0  0  0  0  0  0  0  0  0  0  0  0
    3.9124    1.8204   19.2368 H   0  0  0  0  0  0  0  0  0  0  0  0
  1  2  1  0
  2  3  2  0
  3  4  1  0
  4  5  1  0
  4  6  2  0
  6  7  1  0
  7  8  1  0
  8  9  2  0
  9 10  1  0
  9 11  1  0
 11 12  1  0
 12 13  2  0
 13 14  1  0
 14 15  2  0
 15 16  1  0
 15 17  1  0
 17 18  1  0
 17 19  2  0
 19 20  1  0
 19 21  1  0
 21 22  1  0
 21 23  2  0
 23 24  1  0
 24 25  1  0
 24 26  2  0
 26 27  1  0
 11 28  2  0
 28 29  1  0
  6 30  1  0
 30 31  1  0
 30 32  2  0
 32 33  1  0
 32  2  1  0
 28  7  1  0
 26 12  1  0
 23 14  1  0
M  END
>  <cnnaffinity>  (1) 
-5.43407

>  <filename>  (1) 
c1cncc(-n2cc(-c3ccc4ccccc4n3)cn2)c1

$$$$
