
     RDKit          3D

 49 54  0  0  0  0  0  0  0  0999 V2000
    4.8029    1.3162   19.0251 C   0  0  0  0  0  0  0  0  0  0  0  0
    5.3996    1.3026   17.7606 C   0  0  0  0  0  0  0  0  0  0  0  0
    6.5367    0.6421   17.4883 N   0  0  0  0  0  0  0  0  0  0  0  0
    7.1342    0.0067   18.5028 C   0  0  0  0  0  0  0  0  0  0  0  0
    6.6590    0.0018   19.8261 C   0  0  0  0  0  0  0  0  0  0  0  0
    7.4738   -0.5897   20.9681 C   0  0  0  0  0  0  0  0  0  0  0  0
    8.3664    0.4039   21.6657 C   0  0  0  0  0  0  0  0  0  0  0  0
    8.0095    0.9455   22.8099 N   0  0  0  0  0  0  0  0  0  0  0  0
    9.0377    1.7894   23.0754 N   0  0  0  0  0  0  0  0  0  0  0  0
    8.9598    2.7450   24.1286 C   0  0  0  0  0  0  0  0  0  0  0  0
    8.5747    2.3228   25.4050 C   0  0  0  0  0  0  0  0  0  0  0  0
    8.5429    3.2346   26.4630 C   0  0  0  0  0  0  0  0  0  0  0  0
    8.8808    4.5605   26.1905 C   0  0  0  0  0  0  0  0  0  0  0  0
    8.9040    5.5285   27.1412 O   0  0  0  0  0  0  0  0  0  0  0  0
    9.2216    6.7779   26.4997 C   0  0  0  0  0  0  0  0  0  0  0  0
    9.4341    6.5034   24.9879 C   0  0  0  0  0  0  0  0  0  0  0  0
    9.2078    5.0110   24.9114 C   0  0  0  0  0  0  0  0  0  0  0  0
    9.2595    4.0948   23.8611 C   0  0  0  0  0  0  0  0  0  0  0  0
    9.4924    4.3788   22.8387 H   0  0  0  0  0  0  0  0  0  0  0  0
   10.4411    6.7912   24.6618 H   0  0  0  0  0  0  0  0  0  0  0  0
    8.7187    7.0727   24.3830 H   0  0  0  0  0  0  0  0  0  0  0  0
    8.3846    7.4567   26.6910 H   0  0  0  0  0  0  0  0  0  0  0  0
   10.1171    7.1725   26.9887 H   0  0  0  0  0  0  0  0  0  0  0  0
    8.2567    2.9528   27.4700 H   0  0  0  0  0  0  0  0  0  0  0  0
    8.2742    1.2852   25.5501 H   0  0  0  0  0  0  0  0  0  0  0  0
   10.0194    1.6287   22.1418 C   0  0  0  0  0  0  0  0  0  0  0  0
   11.4415    2.1182   22.3411 C   0  0  0  0  0  0  0  0  0  0  0  0
   11.8370    3.3028   21.4793 C   0  0  0  0  0  0  0  0  0  0  0  0
   13.1929    3.9581   21.4840 C   0  0  0  0  0  0  0  0  0  0  0  0
   12.0309    4.6900   22.0640 C   0  0  0  0  0  0  0  0  0  0  0  0
   12.0297    4.7833   23.1488 H   0  0  0  0  0  0  0  0  0  0  0  0
   11.6568    5.5620   21.5331 H   0  0  0  0  0  0  0  0  0  0  0  0
   13.9610    3.5885   22.1589 H   0  0  0  0  0  0  0  0  0  0  0  0
   13.6009    4.2948   20.5342 H   0  0  0  0  0  0  0  0  0  0  0  0
   11.3943    3.2195   20.4907 H   0  0  0  0  0  0  0  0  0  0  0  0
   12.0711    2.0274   23.7109 C   0  0  0  0  0  0  0  0  0  0  0  0
   12.4725    1.0426   22.6552 C   0  0  0  0  0  0  0  0  0  0  0  0
   13.4608    1.1523   22.2109 H   0  0  0  0  0  0  0  0  0  0  0  0
   12.1002    0.0235   22.7272 H   0  0  0  0  0  0  0  0  0  0  0  0
   12.8284    2.7708   23.9436 H   0  0  0  0  0  0  0  0  0  0  0  0
   11.4489    1.7147   24.5472 H   0  0  0  0  0  0  0  0  0  0  0  0
    9.5825    0.8007   21.1974 N   0  0  0  0  0  0  0  0  0  0  0  0
    8.1149   -1.3994   20.6054 H   0  0  0  0  0  0  0  0  0  0  0  0
    6.8033   -0.9996   21.7326 H   0  0  0  0  0  0  0  0  0  0  0  0
    5.4422    0.6527   20.0740 C   0  0  0  0  0  0  0  0  0  0  0  0
    5.0127    0.6416   21.0787 H   0  0  0  0  0  0  0  0  0  0  0  0
    8.0516   -0.5325   18.2571 H   0  0  0  0  0  0  0  0  0  0  0  0
    4.9456    1.8363   16.9273 H   0  0  0  0  0  0  0  0  0  0  0  0
    3.8706    1.8510   19.1768 H   0  0  0  0  0  0  0  0  0  0  0  0
  1  2  2  0
  2  3  1  0
  3  4  2  0
  4  5  1  0
  5  6  1  0
  6  7  1  0
  7  8  2  0
  8  9  1  0
  9 10  1  0
 10 11  2  0
 11 12  1  0
 12 13  2  0
 13 14  1  0
 14 15  1  0
 15 16  1  0
 16 17  1  0
 17 18  2  0
 18 19  1  0
 16 20  1  0
 16 21  1  0
 15 22  1  0
 15 23  1  0
 12 24  1  0
 11 25  1  0
  9 26  1  0
 26 27  1  0
 27 28  1  0
 28 29  1  0
 29 30  1  0
 30 31  1  0
 30 32  1  0
 29 33  1  0
 29 34  1  0
 28 35  1  0
 27 36  1  0
 36 37  1  0
 37 38  1  0
 37 39  1  0
 36 40  1  0
 36 41  1  0
 26 42  2  0
  6 43  1  0
  6 44  1  0
  5 45  2  0
 45 46  1  0
  4 47  1  0
  2 48  1  0
  1 49  1  0
 45  1  1  0
 42  7  1  0
 18 10  1  0
 37 27  1  0
 17 13  1  0
 30 28  1  0
M  END
>  <cnnaffinity>  (1) 
-6.30116

>  <filename>  (1) 
c1cncc(Cc2nc(C3(C4CC4)CC3)n(-c3ccc4c(c3)CCO4)n2)c1

$$$$
