
     RDKit          3D

 30 33  0  0  0  0  0  0  0  0999 V2000
    4.9189    1.7726   17.0042 H   0  0  0  0  0  0  0  0  0  0  0  0
    5.4075    1.2867   17.8472 C   0  0  0  0  0  0  0  0  0  0  0  0
    6.5719    0.6724   17.5911 N   0  0  0  0  0  0  0  0  0  0  0  0
    7.1822    0.0556   18.6061 C   0  0  0  0  0  0  0  0  0  0  0  0
    8.1274   -0.4319   18.3780 H   0  0  0  0  0  0  0  0  0  0  0  0
    6.6601    0.0077   19.9034 C   0  0  0  0  0  0  0  0  0  0  0  0
    7.4076   -0.7068   20.9342 C   0  0  0  0  0  0  0  0  0  0  0  0
    6.9545   -0.7758   22.2068 N   0  0  0  0  0  0  0  0  0  0  0  0
    7.8682   -1.4786   22.8380 C   0  0  0  0  0  0  0  0  0  0  0  0
    7.8759   -1.7890   24.2665 C   0  0  0  0  0  0  0  0  0  0  0  0
    7.4161   -0.9287   25.2108 C   0  0  0  0  0  0  0  0  0  0  0  0
    6.9872    0.0515   25.0221 H   0  0  0  0  0  0  0  0  0  0  0  0
    7.5811   -1.5092   26.8215 S   0  0  0  0  0  0  0  0  0  0  0  0
    8.2792   -3.0005   26.2459 C   0  0  0  0  0  0  0  0  0  0  0  0
    8.6990   -4.0982   27.0153 C   0  0  0  0  0  0  0  0  0  0  0  0
    8.6208   -4.0742   28.0965 H   0  0  0  0  0  0  0  0  0  0  0  0
    9.1926   -5.2224   26.3605 C   0  0  0  0  0  0  0  0  0  0  0  0
    9.5177   -6.0821   26.9383 H   0  0  0  0  0  0  0  0  0  0  0  0
    9.2617   -5.2682   24.9501 C   0  0  0  0  0  0  0  0  0  0  0  0
    9.6329   -6.1613   24.4570 H   0  0  0  0  0  0  0  0  0  0  0  0
    8.8476   -4.1863   24.1890 C   0  0  0  0  0  0  0  0  0  0  0  0
    8.8597   -4.2332   23.1029 H   0  0  0  0  0  0  0  0  0  0  0  0
    8.3688   -3.0234   24.8376 C   0  0  0  0  0  0  0  0  0  0  0  0
    8.8289   -1.8200   21.9589 N   0  0  0  0  0  0  0  0  0  0  0  0
    9.7001   -2.2838   22.1611 H   0  0  0  0  0  0  0  0  0  0  0  0
    8.5643   -1.3195   20.7286 N   0  0  0  0  0  0  0  0  0  0  0  0
    5.4392    0.6509   20.1655 C   0  0  0  0  0  0  0  0  0  0  0  0
    5.0051    0.6305   21.1694 H   0  0  0  0  0  0  0  0  0  0  0  0
    4.8078    1.3075   19.1135 C   0  0  0  0  0  0  0  0  0  0  0  0
    3.8750    1.8425   19.2629 H   0  0  0  0  0  0  0  0  0  0  0  0
  1  2  1  0
  2  3  2  0
  3  4  1  0
  4  5  1  0
  4  6  2  0
  6  7  1  0
  7  8  1  0
  8  9  2  0
  9 10  1  0
 10 11  2  0
 11 12  1  0
 11 13  1  0
 13 14  1  0
 14 15  2  0
 15 16  1  0
 15 17  1  0
 17 18  1  0
 17 19  2  0
 19 20  1  0
 19 21  1  0
 21 22  1  0
 21 23  2  0
  9 24  1  0
 24 25  1  0
 24 26  1  0
  6 27  1  0
 27 28  1  0
 27 29  2  0
 29 30  1  0
 29  2  1  0
 26  7  2  0
 23 10  1  0
 23 14  1  0
M  END
>  <cnnaffinity>  (1) 
-5.49298

>  <filename>  (1) 
c1cncc(-c2n[nH]c(-c3csc4ccccc34)n2)c1

$$$$
