
     RDKit          3D

 40 44  0  0  0  0  0  0  0  0999 V2000
    4.6873    1.4908   18.7182 C   0  0  0  0  0  0  0  0  0  0  0  0
    5.4009    1.4356   17.5161 C   0  0  0  0  0  0  0  0  0  0  0  0
    6.5147    0.7055   17.3535 N   0  0  0  0  0  0  0  0  0  0  0  0
    6.9769    0.0416   18.4163 C   0  0  0  0  0  0  0  0  0  0  0  0
    6.3515    0.0556   19.6776 C   0  0  0  0  0  0  0  0  0  0  0  0
    7.0340   -0.6098   20.7918 C   0  0  0  0  0  0  0  0  0  0  0  0
    8.2937   -0.9859   20.6818 N   0  0  0  0  0  0  0  0  0  0  0  0
    8.5819   -1.4820   21.9078 N   0  0  0  0  0  0  0  0  0  0  0  0
    9.8230   -2.1892   22.0866 C   0  0  0  0  0  0  0  0  0  0  0  0
   11.1054   -1.4120   22.0547 C   0  0  0  0  0  0  0  0  0  0  0  0
   10.6610   -2.0719   23.3263 C   0  0  0  0  0  0  0  0  0  0  0  0
   11.1597   -2.9757   23.6734 H   0  0  0  0  0  0  0  0  0  0  0  0
   10.3469   -1.4165   24.1328 H   0  0  0  0  0  0  0  0  0  0  0  0
   11.9374   -1.8319   21.4973 H   0  0  0  0  0  0  0  0  0  0  0  0
   11.0055   -0.3308   21.9989 H   0  0  0  0  0  0  0  0  0  0  0  0
    9.8198   -3.1500   21.5879 H   0  0  0  0  0  0  0  0  0  0  0  0
    7.4758   -1.4110   22.6924 C   0  0  0  0  0  0  0  0  0  0  0  0
    7.4041   -1.9565   24.1024 C   0  0  0  0  0  0  0  0  0  0  0  0
    6.8611   -1.0066   25.1390 C   0  0  0  0  0  0  0  0  0  0  0  0
    7.4585    0.1670   25.6176 C   0  0  0  0  0  0  0  0  0  0  0  0
    8.7120    0.8240   25.4769 C   0  0  0  0  0  0  0  0  0  0  0  0
    8.8885    2.0712   26.0364 C   0  0  0  0  0  0  0  0  0  0  0  0
    7.8420    2.6949   26.7852 C   0  0  0  0  0  0  0  0  0  0  0  0
    6.6556    2.0296   26.9701 C   0  0  0  0  0  0  0  0  0  0  0  0
    6.4855    0.7865   26.4025 N   0  0  0  0  0  0  0  0  0  0  0  0
    5.3506    0.0623   26.4943 N   0  0  0  0  0  0  0  0  0  0  0  0
    5.5882   -1.0054   25.7360 C   0  0  0  0  0  0  0  0  0  0  0  0
    4.8228   -1.7637   25.6328 H   0  0  0  0  0  0  0  0  0  0  0  0
    5.7921    2.3811   27.5192 H   0  0  0  0  0  0  0  0  0  0  0  0
    7.9762    3.6908   27.1936 H   0  0  0  0  0  0  0  0  0  0  0  0
    9.8300    2.5928   25.8975 H   0  0  0  0  0  0  0  0  0  0  0  0
    9.4978    0.3271   24.9214 H   0  0  0  0  0  0  0  0  0  0  0  0
    8.3972   -2.2792   24.4243 H   0  0  0  0  0  0  0  0  0  0  0  0
    6.7919   -2.8679   24.0576 H   0  0  0  0  0  0  0  0  0  0  0  0
    6.4788   -0.8776   21.9996 N   0  0  0  0  0  0  0  0  0  0  0  0
    5.1540    0.7739   19.8187 C   0  0  0  0  0  0  0  0  0  0  0  0
    4.6172    0.7882   20.7687 H   0  0  0  0  0  0  0  0  0  0  0  0
    7.8930   -0.5267   18.2616 H   0  0  0  0  0  0  0  0  0  0  0  0
    5.0644    2.0045   16.6526 H   0  0  0  0  0  0  0  0  0  0  0  0
    3.8089    2.1218   18.7811 H   0  0  0  0  0  0  0  0  0  0  0  0
  1  2  2  0
  2  3  1  0
  3  4  2  0
  4  5  1  0
  5  6  1  0
  6  7  2  0
  7  8  1  0
  8  9  1  0
  9 10  1  0
 10 11  1  0
 11 12  1  0
 11 13  1  0
 10 14  1  0
 10 15  1  0
  9 16  1  0
  8 17  1  0
 17 18  1  0
 18 19  1  0
 19 20  2  0
 20 21  1  0
 21 22  2  0
 22 23  1  0
 23 24  2  0
 24 25  1  0
 25 26  1  0
 26 27  2  0
 27 28  1  0
 24 29  1  0
 23 30  1  0
 22 31  1  0
 21 32  1  0
 18 33  1  0
 18 34  1  0
 17 35  2  0
  5 36  2  0
 36 37  1  0
  4 38  1  0
  2 39  1  0
  1 40  1  0
 36  1  1  0
 35  6  1  0
 11  9  1  0
 27 19  1  0
 25 20  1  0
M  END
>  <cnnaffinity>  (1) 
-6.10469

>  <filename>  (1) 
c1cncc(-c2nc(Cc3cnn4ccccc34)n(C3CC3)n2)c1

$$$$
