
     RDKit          3D

 29 31  0  0  0  0  0  0  0  0999 V2000
    3.2380    3.3716   25.9114 H   0  0  0  0  0  0  0  0  0  0  0  0
    4.1319    3.3279   25.3021 C   0  0  0  0  0  0  0  0  0  0  0  0
    4.4953    2.1087   24.7793 N   0  0  0  0  0  0  0  0  0  0  0  0
    5.5636    2.2444   24.0657 C   0  0  0  0  0  0  0  0  0  0  0  0
    6.0527    1.1604   23.4091 N   0  0  0  0  0  0  0  0  0  0  0  0
    5.6627    0.3291   23.8478 H   0  0  0  0  0  0  0  0  0  0  0  0
    7.3689    1.1295   22.7955 C   0  0  0  0  0  0  0  0  0  0  0  0
    8.1707    1.3400   23.5171 H   0  0  0  0  0  0  0  0  0  0  0  0
    7.3972    1.8772   21.9932 H   0  0  0  0  0  0  0  0  0  0  0  0
    7.6765   -0.1663   22.2350 N   0  0  0  0  0  0  0  0  0  0  0  0
    8.4362   -1.0326   22.9460 N   0  0  0  0  0  0  0  0  0  0  0  0
    8.4211   -2.1582   22.2541 C   0  0  0  0  0  0  0  0  0  0  0  0
    8.9628   -3.0187   22.6269 H   0  0  0  0  0  0  0  0  0  0  0  0
    7.6737   -2.0213   21.0692 C   0  0  0  0  0  0  0  0  0  0  0  0
    7.4028   -2.7701   20.3469 H   0  0  0  0  0  0  0  0  0  0  0  0
    7.2594   -0.7092   21.0481 C   0  0  0  0  0  0  0  0  0  0  0  0
    6.5902    0.0485   19.9575 C   0  0  0  0  0  0  0  0  0  0  0  0
    7.1256    0.0610   18.6511 C   0  0  0  0  0  0  0  0  0  0  0  0
    8.0756   -0.4287   18.4439 H   0  0  0  0  0  0  0  0  0  0  0  0
    6.5614    0.6810   17.6040 N   0  0  0  0  0  0  0  0  0  0  0  0
    5.4006    1.3211   17.8151 C   0  0  0  0  0  0  0  0  0  0  0  0
    4.9439    1.7971   16.9439 H   0  0  0  0  0  0  0  0  0  0  0  0
    4.7801    1.3725   19.0670 C   0  0  0  0  0  0  0  0  0  0  0  0
    3.8342    1.8896   19.1688 H   0  0  0  0  0  0  0  0  0  0  0  0
    5.3902    0.7474   20.1579 C   0  0  0  0  0  0  0  0  0  0  0  0
    4.9629    0.8080   21.1590 H   0  0  0  0  0  0  0  0  0  0  0  0
    6.2356    3.8553   24.0008 S   0  0  0  0  0  0  0  0  0  0  0  0
    4.9245    4.3841   25.0082 C   0  0  0  0  0  0  0  0  0  0  0  0
    4.8193    5.4145   25.3050 H   0  0  0  0  0  0  0  0  0  0  0  0
  1  2  1  0
  2  3  1  0
  3  4  2  0
  4  5  1  0
  5  6  1  0
  5  7  1  0
  7  8  1  0
  7  9  1  0
  7 10  1  0
 10 11  1  0
 11 12  2  0
 12 13  1  0
 12 14  1  0
 14 15  1  0
 14 16  2  0
 16 17  1  0
 17 18  2  0
 18 19  1  0
 18 20  1  0
 20 21  2  0
 21 22  1  0
 21 23  1  0
 23 24  1  0
 23 25  2  0
 25 26  1  0
  4 27  1  0
 27 28  1  0
 28 29  1  0
 28  2  2  0
 16 10  1  0
 25 17  1  0
M  END
>  <cnnaffinity>  (1) 
-4.64012

>  <filename>  (1) 
c1cncc(-c2ccnn2CNc2nccs2)c1

$$$$
