
     RDKit          3D

 46 50  0  0  0  0  0  0  0  0999 V2000
    4.7809    1.3221   19.0301 C   0  0  0  0  0  0  0  0  0  0  0  0
    5.3980    1.3073   17.7762 C   0  0  0  0  0  0  0  0  0  0  0  0
    6.5421    0.6539   17.5197 N   0  0  0  0  0  0  0  0  0  0  0  0
    7.1149   -0.0015   18.5363 C   0  0  0  0  0  0  0  0  0  0  0  0
    6.5921   -0.0407   19.8403 C   0  0  0  0  0  0  0  0  0  0  0  0
    7.3384   -0.6802   20.9987 C   0  0  0  0  0  0  0  0  0  0  0  0
    8.2044    0.3063   21.7222 C   0  0  0  0  0  0  0  0  0  0  0  0
    7.7837    1.0493   22.7286 N   0  0  0  0  0  0  0  0  0  0  0  0
    8.8658    1.8204   23.0083 N   0  0  0  0  0  0  0  0  0  0  0  0
    8.8562    2.7785   24.1097 C   0  0  0  0  0  0  0  0  0  0  0  0
    7.9097    3.9528   23.8537 C   0  0  0  0  0  0  0  0  0  0  0  0
    7.8460    4.7571   25.1512 C   0  0  0  0  0  0  0  0  0  0  0  0
    8.0479    3.5700   26.5329 S   0  0  0  0  0  0  0  0  0  0  0  0
    8.4782    2.1613   25.4596 C   0  0  0  0  0  0  0  0  0  0  0  0
    9.3189    1.6150   25.8953 H   0  0  0  0  0  0  0  0  0  0  0  0
    7.6306    1.4789   25.3498 H   0  0  0  0  0  0  0  0  0  0  0  0
    6.9001    5.2936   25.2636 H   0  0  0  0  0  0  0  0  0  0  0  0
    8.6558    5.4922   25.2054 H   0  0  0  0  0  0  0  0  0  0  0  0
    6.9261    3.5620   23.5698 H   0  0  0  0  0  0  0  0  0  0  0  0
    8.2717    4.5665   23.0188 H   0  0  0  0  0  0  0  0  0  0  0  0
    9.8679    3.1696   24.2309 H   0  0  0  0  0  0  0  0  0  0  0  0
    9.8640    1.5208   22.1469 C   0  0  0  0  0  0  0  0  0  0  0  0
   11.1921    2.1575   22.2433 C   0  0  0  0  0  0  0  0  0  0  0  0
   11.3862    3.5494   22.2806 C   0  0  0  0  0  0  0  0  0  0  0  0
   12.6642    4.0912   22.4411 C   0  0  0  0  0  0  0  0  0  0  0  0
   13.7657    3.2540   22.6570 C   0  0  0  0  0  0  0  0  0  0  0  0
   13.5616    1.8748   22.6674 C   0  0  0  0  0  0  0  0  0  0  0  0
   12.3110    1.3394   22.3700 C   0  0  0  0  0  0  0  0  0  0  0  0
   12.4087   -0.1616   22.3289 C   0  0  0  0  0  0  0  0  0  0  0  0
   13.7868   -0.4399   22.4799 O   0  0  0  0  0  0  0  0  0  0  0  0
   14.4976    0.7236   22.8773 C   0  0  0  0  0  0  0  0  0  0  0  0
   15.3958    0.8084   22.2574 H   0  0  0  0  0  0  0  0  0  0  0  0
   14.7887    0.6139   23.9293 H   0  0  0  0  0  0  0  0  0  0  0  0
   12.0216   -0.5759   21.3902 H   0  0  0  0  0  0  0  0  0  0  0  0
   11.8096   -0.6148   23.1331 H   0  0  0  0  0  0  0  0  0  0  0  0
   14.7630    3.6770   22.7287 H   0  0  0  0  0  0  0  0  0  0  0  0
   12.7994    5.1655   22.4056 H   0  0  0  0  0  0  0  0  0  0  0  0
   10.5327    4.2149   22.1996 H   0  0  0  0  0  0  0  0  0  0  0  0
    9.4822    0.5445   21.3347 N   0  0  0  0  0  0  0  0  0  0  0  0
    7.9913   -1.4819   20.6402 H   0  0  0  0  0  0  0  0  0  0  0  0
    6.6324   -1.1087   21.7180 H   0  0  0  0  0  0  0  0  0  0  0  0
    5.3920    0.6354   20.0789 C   0  0  0  0  0  0  0  0  0  0  0  0
    4.9648    0.6243   21.0830 H   0  0  0  0  0  0  0  0  0  0  0  0
    8.0465   -0.5241   18.3070 H   0  0  0  0  0  0  0  0  0  0  0  0
    4.9536    1.8375   16.9371 H   0  0  0  0  0  0  0  0  0  0  0  0
    3.8578    1.8704   19.1763 H   0  0  0  0  0  0  0  0  0  0  0  0
  1  2  2  0
  2  3  1  0
  3  4  2  0
  4  5  1  0
  5  6  1  0
  6  7  1  0
  7  8  2  0
  8  9  1  0
  9 10  1  0
 10 11  1  0
 11 12  1  0
 12 13  1  0
 13 14  1  0
 14 15  1  0
 14 16  1  0
 12 17  1  0
 12 18  1  0
 11 19  1  0
 11 20  1  0
 10 21  1  0
  9 22  1  0
 22 23  1  0
 23 24  2  0
 24 25  1  0
 25 26  2  0
 26 27  1  0
 27 28  2  0
 28 29  1  0
 29 30  1  0
 30 31  1  0
 31 32  1  0
 31 33  1  0
 29 34  1  0
 29 35  1  0
 26 36  1  0
 25 37  1  0
 24 38  1  0
 22 39  2  0
  6 40  1  0
  6 41  1  0
  5 42  2  0
 42 43  1  0
  4 44  1  0
  2 45  1  0
  1 46  1  0
 42  1  1  0
 39  7  1  0
 14 10  1  0
 28 23  1  0
 31 27  1  0
M  END
>  <cnnaffinity>  (1) 
-6.19039

>  <filename>  (1) 
c1cncc(Cc2nc(-c3cccc4c3COC4)n(C3CCSC3)n2)c1

$$$$
