
     RDKit          3D

 25 27  0  0  0  0  0  0  0  0999 V2000
    4.9141    1.7867   16.9957 H   0  0  0  0  0  0  0  0  0  0  0  0
    5.3968    1.2965   17.8393 C   0  0  0  0  0  0  0  0  0  0  0  0
    6.5608    0.6805   17.5747 N   0  0  0  0  0  0  0  0  0  0  0  0
    7.1716    0.0574   18.5940 C   0  0  0  0  0  0  0  0  0  0  0  0
    8.1188   -0.4295   18.3703 H   0  0  0  0  0  0  0  0  0  0  0  0
    6.6678   -0.0191   19.9213 C   0  0  0  0  0  0  0  0  0  0  0  0
    7.3283   -0.7187   20.9460 N   0  0  0  0  0  0  0  0  0  0  0  0
    6.7929   -1.1567   21.6886 H   0  0  0  0  0  0  0  0  0  0  0  0
    8.7087   -0.7561   21.1169 C   0  0  0  0  0  0  0  0  0  0  0  0
    9.6873    0.1610   20.6756 C   0  0  0  0  0  0  0  0  0  0  0  0
    9.5186    1.0445   20.0837 H   0  0  0  0  0  0  0  0  0  0  0  0
   10.9039   -0.1762   21.0781 N   0  0  0  0  0  0  0  0  0  0  0  0
   10.7344   -1.3052   21.7610 N   0  0  0  0  0  0  0  0  0  0  0  0
   11.5450   -1.7450   22.1756 H   0  0  0  0  0  0  0  0  0  0  0  0
    9.4313   -1.7007   21.8242 C   0  0  0  0  0  0  0  0  0  0  0  0
    8.9809   -2.8837   22.5120 C   0  0  0  0  0  0  0  0  0  0  0  0
    7.7073   -3.3426   22.4807 N   0  0  0  0  0  0  0  0  0  0  0  0
    7.6922   -4.4364   23.1891 N   0  0  0  0  0  0  0  0  0  0  0  0
    8.9199   -4.5940   23.6262 N   0  0  0  0  0  0  0  0  0  0  0  0
    9.1750   -5.3757   24.2226 H   0  0  0  0  0  0  0  0  0  0  0  0
    9.7736   -3.6614   23.2453 N   0  0  0  0  0  0  0  0  0  0  0  0
    5.4468    0.6290   20.1675 C   0  0  0  0  0  0  0  0  0  0  0  0
    5.0210    0.6215   21.1707 H   0  0  0  0  0  0  0  0  0  0  0  0
    4.8152    1.3031   19.1110 C   0  0  0  0  0  0  0  0  0  0  0  0
    3.8847    1.8350   19.2655 H   0  0  0  0  0  0  0  0  0  0  0  0
  1  2  1  0
  2  3  2  0
  3  4  1  0
  4  5  1  0
  4  6  2  0
  6  7  1  0
  7  8  1  0
  7  9  1  0
  9 10  1  0
 10 11  1  0
 10 12  2  0
 12 13  1  0
 13 14  1  0
 13 15  1  0
 15 16  1  0
 16 17  1  0
 17 18  2  0
 18 19  1  0
 19 20  1  0
 19 21  1  0
  6 22  1  0
 22 23  1  0
 22 24  2  0
 24 25  1  0
 24  2  1  0
 15  9  2  0
 21 16  2  0
M  END
>  <cnnaffinity>  (1) 
-5.21066

>  <filename>  (1) 
c1cncc(Nc2cn[nH]c2-c2nn[nH]n2)c1

$$$$
