
     RDKit          3D

 49 54  0  0  0  0  0  0  0  0999 V2000
    4.7763    1.3245   19.0190 C   0  0  0  0  0  0  0  0  0  0  0  0
    5.3879    1.3088   17.7617 C   0  0  0  0  0  0  0  0  0  0  0  0
    6.5224    0.6426   17.4958 N   0  0  0  0  0  0  0  0  0  0  0  0
    7.0963   -0.0191   18.5085 C   0  0  0  0  0  0  0  0  0  0  0  0
    6.5853   -0.0542   19.8173 C   0  0  0  0  0  0  0  0  0  0  0  0
    7.3518   -0.6852   20.9719 C   0  0  0  0  0  0  0  0  0  0  0  0
    8.2478    0.2977   21.6783 C   0  0  0  0  0  0  0  0  0  0  0  0
    7.7989    1.1362   22.5916 N   0  0  0  0  0  0  0  0  0  0  0  0
    8.8988    1.8563   22.9211 N   0  0  0  0  0  0  0  0  0  0  0  0
    8.8660    2.8977   23.9692 C   0  0  0  0  0  0  0  0  0  0  0  0
    8.1194    4.1910   23.5500 C   0  0  0  0  0  0  0  0  0  0  0  0
    6.8191    4.2672   24.3974 C   0  0  0  0  0  0  0  0  0  0  0  0
    7.0054    3.2037   25.4645 C   0  0  0  0  0  0  0  0  0  0  0  0
    6.1968    2.8774   26.5593 C   0  0  0  0  0  0  0  0  0  0  0  0
    6.5750    1.8204   27.4021 C   0  0  0  0  0  0  0  0  0  0  0  0
    7.7546    1.1000   27.1622 C   0  0  0  0  0  0  0  0  0  0  0  0
    8.5556    1.4199   26.0610 C   0  0  0  0  0  0  0  0  0  0  0  0
    8.1589    2.4597   25.2239 C   0  0  0  0  0  0  0  0  0  0  0  0
    9.4712    0.8737   25.8437 H   0  0  0  0  0  0  0  0  0  0  0  0
    8.0494    0.2885   27.8235 H   0  0  0  0  0  0  0  0  0  0  0  0
    5.9441    1.5499   28.2453 H   0  0  0  0  0  0  0  0  0  0  0  0
    5.2802    3.4303   26.7483 H   0  0  0  0  0  0  0  0  0  0  0  0
    6.6672    5.2649   24.8252 H   0  0  0  0  0  0  0  0  0  0  0  0
    5.9334    4.0453   23.7890 H   0  0  0  0  0  0  0  0  0  0  0  0
    7.9222    4.1959   22.4724 H   0  0  0  0  0  0  0  0  0  0  0  0
    8.7706    5.0435   23.7722 H   0  0  0  0  0  0  0  0  0  0  0  0
    9.9079    3.1023   24.2283 H   0  0  0  0  0  0  0  0  0  0  0  0
    9.9487    1.4379   22.1663 C   0  0  0  0  0  0  0  0  0  0  0  0
   11.3039    2.0408   22.2922 C   0  0  0  0  0  0  0  0  0  0  0  0
   11.5461    3.4267   22.3552 C   0  0  0  0  0  0  0  0  0  0  0  0
   12.8486    3.9310   22.5748 C   0  0  0  0  0  0  0  0  0  0  0  0
   13.9397    3.1885   22.7457 N   0  0  0  0  0  0  0  0  0  0  0  0
   13.7008    1.8705   22.6296 C   0  0  0  0  0  0  0  0  0  0  0  0
   12.4623    1.2343   22.3939 C   0  0  0  0  0  0  0  0  0  0  0  0
   12.8102   -0.1508   22.3054 C   0  0  0  0  0  0  0  0  0  0  0  0
   14.1015   -0.3428   22.4571 N   0  0  0  0  0  0  0  0  0  0  0  0
   14.6225    0.8857   22.6781 N   0  0  0  0  0  0  0  0  0  0  0  0
   15.6127    1.0507   22.7179 H   0  0  0  0  0  0  0  0  0  0  0  0
   12.1517   -0.9906   22.1359 H   0  0  0  0  0  0  0  0  0  0  0  0
   12.9970    5.0071   22.6306 H   0  0  0  0  0  0  0  0  0  0  0  0
   10.7405    4.1444   22.2614 H   0  0  0  0  0  0  0  0  0  0  0  0
    9.5661    0.4325   21.3869 N   0  0  0  0  0  0  0  0  0  0  0  0
    7.9772   -1.5095   20.6169 H   0  0  0  0  0  0  0  0  0  0  0  0
    6.6468   -1.0876   21.7085 H   0  0  0  0  0  0  0  0  0  0  0  0
    5.3921    0.6328   20.0648 C   0  0  0  0  0  0  0  0  0  0  0  0
    4.9784    0.6375   21.0749 H   0  0  0  0  0  0  0  0  0  0  0  0
    8.0221   -0.5465   18.2723 H   0  0  0  0  0  0  0  0  0  0  0  0
    4.9496    1.8574   16.9302 H   0  0  0  0  0  0  0  0  0  0  0  0
    3.8591    1.8845   19.1709 H   0  0  0  0  0  0  0  0  0  0  0  0
  1  2  2  0
  2  3  1  0
  3  4  2  0
  4  5  1  0
  5  6  1  0
  6  7  1  0
  7  8  2  0
  8  9  1  0
  9 10  1  0
 10 11  1  0
 11 12  1  0
 12 13  1  0
 13 14  2  0
 14 15  1  0
 15 16  2  0
 16 17  1  0
 17 18  2  0
 17 19  1  0
 16 20  1  0
 15 21  1  0
 14 22  1  0
 12 23  1  0
 12 24  1  0
 11 25  1  0
 11 26  1  0
 10 27  1  0
  9 28  1  0
 28 29  1  0
 29 30  2  0
 30 31  1  0
 31 32  2  0
 32 33  1  0
 33 34  2  0
 34 35  1  0
 35 36  2  0
 36 37  1  0
 37 38  1  0
 35 39  1  0
 31 40  1  0
 30 41  1  0
 28 42  2  0
  6 43  1  0
  6 44  1  0
  5 45  2  0
 45 46  1  0
  4 47  1  0
  2 48  1  0
  1 49  1  0
 45  1  1  0
 42  7  1  0
 18 10  1  0
 34 29  1  0
 18 13  1  0
 37 33  1  0
M  END
>  <cnnaffinity>  (1) 
-7.14932

>  <filename>  (1) 
c1cncc(Cc2nc(-c3ccnc4[nH]ncc34)n(C3CCc4ccccc43)n2)c1

$$$$
