
     RDKit          3D

 28 30  0  0  0  0  0  0  0  0999 V2000
    4.9046    1.8222   16.9802 H   0  0  0  0  0  0  0  0  0  0  0  0
    5.3787    1.3212   17.8178 C   0  0  0  0  0  0  0  0  0  0  0  0
    6.5436    0.7073   17.5576 N   0  0  0  0  0  0  0  0  0  0  0  0
    7.1573    0.1019   18.5835 C   0  0  0  0  0  0  0  0  0  0  0  0
    8.1034   -0.3792   18.3316 H   0  0  0  0  0  0  0  0  0  0  0  0
    6.6592    0.0634   19.9089 C   0  0  0  0  0  0  0  0  0  0  0  0
    7.3562   -0.7095   20.9719 C   0  0  0  0  0  0  0  0  0  0  0  0
    7.6999   -2.0364   21.0264 C   0  0  0  0  0  0  0  0  0  0  0  0
    7.4396   -2.8043   20.3191 H   0  0  0  0  0  0  0  0  0  0  0  0
    8.3651   -2.3476   22.1810 N   0  0  0  0  0  0  0  0  0  0  0  0
    8.4018   -1.2251   22.8487 C   0  0  0  0  0  0  0  0  0  0  0  0
    8.8143   -1.1031   23.8396 H   0  0  0  0  0  0  0  0  0  0  0  0
    7.8086   -0.1830   22.1827 N   0  0  0  0  0  0  0  0  0  0  0  0
    7.5219    1.1234   22.7773 C   0  0  0  0  0  0  0  0  0  0  0  0
    7.0211    1.7365   22.0333 H   0  0  0  0  0  0  0  0  0  0  0  0
    8.4543    1.6148   23.0815 H   0  0  0  0  0  0  0  0  0  0  0  0
    6.6443    1.0907   23.9353 N   0  0  0  0  0  0  0  0  0  0  0  0
    5.3096    1.1641   23.7731 N   0  0  0  0  0  0  0  0  0  0  0  0
    4.8041    1.0143   24.9894 C   0  0  0  0  0  0  0  0  0  0  0  0
    3.7269    1.0234   25.1277 H   0  0  0  0  0  0  0  0  0  0  0  0
    5.8189    0.8423   25.9558 C   0  0  0  0  0  0  0  0  0  0  0  0
    5.7097    0.6825   27.0226 H   0  0  0  0  0  0  0  0  0  0  0  0
    6.9856    0.8969   25.2352 C   0  0  0  0  0  0  0  0  0  0  0  0
    8.0274    0.8325   25.5271 H   0  0  0  0  0  0  0  0  0  0  0  0
    5.4309    0.7108   20.1410 C   0  0  0  0  0  0  0  0  0  0  0  0
    4.9958    0.7002   21.1422 H   0  0  0  0  0  0  0  0  0  0  0  0
    4.7768    1.3413   19.0788 C   0  0  0  0  0  0  0  0  0  0  0  0
    3.8309    1.8567   19.2161 H   0  0  0  0  0  0  0  0  0  0  0  0
  1  2  1  0
  2  3  2  0
  3  4  1  0
  4  5  1  0
  4  6  2  0
  6  7  1  0
  7  8  2  0
  8  9  1  0
  8 10  1  0
 10 11  2  0
 11 12  1  0
 11 13  1  0
 13 14  1  0
 14 15  1  0
 14 16  1  0
 14 17  1  0
 17 18  1  0
 18 19  2  0
 19 20  1  0
 19 21  1  0
 21 22  1  0
 21 23  2  0
 23 24  1  0
  6 25  1  0
 25 26  1  0
 25 27  2  0
 27 28  1  0
 27  2  1  0
 13  7  1  0
 23 17  1  0
M  END
>  <cnnaffinity>  (1) 
-4.46312

>  <filename>  (1) 
c1cncc(-c2cncn2Cn2cccn2)c1

$$$$
