
     RDKit          3D

 34 37  0  0  0  0  0  0  0  0999 V2000
    4.9984    1.8466   16.8977 H   0  0  0  0  0  0  0  0  0  0  0  0
    5.4314    1.2937   17.7309 C   0  0  0  0  0  0  0  0  0  0  0  0
    6.5759    0.6359   17.4879 N   0  0  0  0  0  0  0  0  0  0  0  0
    7.1516   -0.0013   18.5133 C   0  0  0  0  0  0  0  0  0  0  0  0
    8.0764   -0.5298   18.2915 H   0  0  0  0  0  0  0  0  0  0  0  0
    6.6244   -0.0212   19.8181 C   0  0  0  0  0  0  0  0  0  0  0  0
    7.3713   -0.6499   20.9208 C   0  0  0  0  0  0  0  0  0  0  0  0
    8.5407   -1.2684   20.6893 N   0  0  0  0  0  0  0  0  0  0  0  0
    8.9297   -1.6405   21.9265 N   0  0  0  0  0  0  0  0  0  0  0  0
   10.0552   -2.2403   22.4792 C   0  0  0  0  0  0  0  0  0  0  0  0
   10.8644   -2.5893   21.8589 H   0  0  0  0  0  0  0  0  0  0  0  0
    9.8597   -2.2266   23.8244 C   0  0  0  0  0  0  0  0  0  0  0  0
   10.5079   -2.5654   24.6237 H   0  0  0  0  0  0  0  0  0  0  0  0
    8.6188   -1.6492   24.1134 N   0  0  0  0  0  0  0  0  0  0  0  0
    8.2212   -1.0009   25.3699 C   0  0  0  0  0  0  0  0  0  0  0  0
    8.6908   -1.5436   26.1994 H   0  0  0  0  0  0  0  0  0  0  0  0
    7.1320   -1.0780   25.4709 H   0  0  0  0  0  0  0  0  0  0  0  0
    8.6641    0.4588   25.3802 C   0  0  0  0  0  0  0  0  0  0  0  0
    7.8022    1.5368   25.1376 C   0  0  0  0  0  0  0  0  0  0  0  0
    6.7248    1.4080   25.0909 H   0  0  0  0  0  0  0  0  0  0  0  0
    8.3516    2.8058   24.8939 C   0  0  0  0  0  0  0  0  0  0  0  0
    7.7059    3.6596   24.6976 H   0  0  0  0  0  0  0  0  0  0  0  0
    9.6656    3.0581   24.8737 N   0  0  0  0  0  0  0  0  0  0  0  0
   10.4820    2.0352   25.1593 C   0  0  0  0  0  0  0  0  0  0  0  0
   11.5509    2.2381   25.1341 H   0  0  0  0  0  0  0  0  0  0  0  0
   10.0315    0.7466   25.4502 C   0  0  0  0  0  0  0  0  0  0  0  0
   10.7447   -0.0342   25.6870 H   0  0  0  0  0  0  0  0  0  0  0  0
    8.0726   -1.2752   22.9002 C   0  0  0  0  0  0  0  0  0  0  0  0
    7.0101   -0.6341   22.2895 C   0  0  0  0  0  0  0  0  0  0  0  0
    6.1247   -0.2078   22.7322 H   0  0  0  0  0  0  0  0  0  0  0  0
    5.4009    0.6284   20.0419 C   0  0  0  0  0  0  0  0  0  0  0  0
    4.9307    0.6153   21.0274 H   0  0  0  0  0  0  0  0  0  0  0  0
    4.8014    1.3001   18.9805 C   0  0  0  0  0  0  0  0  0  0  0  0
    3.8805    1.8552   19.1213 H   0  0  0  0  0  0  0  0  0  0  0  0
  1  2  1  0
  2  3  2  0
  3  4  1  0
  4  5  1  0
  4  6  2  0
  6  7  1  0
  7  8  2  0
  8  9  1  0
  9 10  1  0
 10 11  1  0
 10 12  2  0
 12 13  1  0
 12 14  1  0
 14 15  1  0
 15 16  1  0
 15 17  1  0
 15 18  1  0
 18 19  2  0
 19 20  1  0
 19 21  1  0
 21 22  1  0
 21 23  2  0
 23 24  1  0
 24 25  1  0
 24 26  2  0
 26 27  1  0
 14 28  1  0
 28 29  2  0
 29 30  1  0
  6 31  1  0
 31 32  1  0
 31 33  2  0
 33 34  1  0
 33  2  1  0
 29  7  1  0
 28  9  1  0
 26 18  1  0
M  END
>  <cnnaffinity>  (1) 
-5.70998

>  <filename>  (1) 
c1cncc(-c2cc3n(Cc4ccncc4)ccn3n2)c1

$$$$
