
     RDKit          3D

 36 39  0  0  0  0  0  0  0  0999 V2000
    4.9485    1.7970   16.9996 H   0  0  0  0  0  0  0  0  0  0  0  0
    5.4179    1.2762   17.8347 C   0  0  0  0  0  0  0  0  0  0  0  0
    6.5767    0.6466   17.5814 N   0  0  0  0  0  0  0  0  0  0  0  0
    7.2049    0.0446   18.6004 C   0  0  0  0  0  0  0  0  0  0  0  0
    8.1464   -0.4438   18.3481 H   0  0  0  0  0  0  0  0  0  0  0  0
    6.7272    0.0123   19.9477 C   0  0  0  0  0  0  0  0  0  0  0  0
    7.4304   -0.5654   20.9917 N   0  0  0  0  0  0  0  0  0  0  0  0
    8.7008   -1.2481   20.8143 C   0  0  0  0  0  0  0  0  0  0  0  0
    8.6436   -2.0048   20.0373 H   0  0  0  0  0  0  0  0  0  0  0  0
    9.4761   -0.5409   20.4989 H   0  0  0  0  0  0  0  0  0  0  0  0
    9.0243   -1.8967   22.1471 C   0  0  1  0  0  0  0  0  0  0  0  0
   10.0750   -1.9572   22.4196 H   0  0  0  0  0  0  0  0  0  0  0  0
    7.9193   -1.5456   23.0962 C   0  0  1  0  0  0  0  0  0  0  0  0
    8.0693   -1.3018   24.1434 H   0  0  0  0  0  0  0  0  0  0  0  0
    6.8893   -0.7291   22.3329 C   0  0  0  0  0  0  0  0  0  0  0  0
    5.9452   -1.2814   22.3114 H   0  0  0  0  0  0  0  0  0  0  0  0
    6.7012    0.2381   22.8121 H   0  0  0  0  0  0  0  0  0  0  0  0
    8.1126   -2.9834   22.6747 C   0  0  1  0  0  0  0  0  0  0  0  0
    8.5882   -3.5715   23.4565 H   0  0  0  0  0  0  0  0  0  0  0  0
    7.1211   -3.7914   21.8599 C   0  0  1  0  0  0  0  0  0  0  0  0
    6.6951   -3.1909   21.0517 H   0  0  0  0  0  0  0  0  0  0  0  0
    7.7047   -5.0711   21.2408 C   0  0  0  0  0  0  0  0  0  0  0  0
    8.3146   -4.9112   20.3518 H   0  0  0  0  0  0  0  0  0  0  0  0
    8.3447   -5.5671   21.9829 H   0  0  0  0  0  0  0  0  0  0  0  0
    6.5726   -5.9415   20.9238 N   0  0  0  0  0  0  0  0  0  0  0  0
    6.2458   -5.7627   19.9843 H   0  0  0  0  0  0  0  0  0  0  0  0
    5.4972   -5.6370   21.8809 C   0  0  0  0  0  0  0  0  0  0  0  0
    5.3183   -6.4926   22.5477 H   0  0  0  0  0  0  0  0  0  0  0  0
    4.5587   -5.4628   21.3448 H   0  0  0  0  0  0  0  0  0  0  0  0
    5.9610   -4.3960   22.6775 C   0  0  0  0  0  0  0  0  0  0  0  0
    5.1520   -3.6859   22.8806 H   0  0  0  0  0  0  0  0  0  0  0  0
    6.3459   -4.7295   23.6457 H   0  0  0  0  0  0  0  0  0  0  0  0
    5.4781    0.6395   20.1636 C   0  0  0  0  0  0  0  0  0  0  0  0
    5.0437    0.6315   21.1599 H   0  0  0  0  0  0  0  0  0  0  0  0
    4.8334    1.2804   19.1038 C   0  0  0  0  0  0  0  0  0  0  0  0
    3.8975    1.8034   19.2612 H   0  0  0  0  0  0  0  0  0  0  0  0
  1  2  1  0
  2  3  2  0
  3  4  1  0
  4  5  1  0
  4  6  2  0
  6  7  1  0
  7  8  1  0
  8  9  1  0
  8 10  1  0
  8 11  1  0
 11 12  1  1
 11 13  1  0
 13 14  1  1
 13 15  1  0
 15 16  1  0
 15 17  1  0
 13 18  1  0
 18 19  1  1
 18 20  1  0
 20 21  1  6
 20 22  1  0
 22 23  1  0
 22 24  1  0
 22 25  1  0
 25 26  1  0
 25 27  1  0
 27 28  1  0
 27 29  1  0
 27 30  1  0
 30 31  1  0
 30 32  1  0
  6 33  1  0
 33 34  1  0
 33 35  2  0
 35 36  1  0
 35  2  1  0
 15  7  1  0
 30 20  1  0
 18 11  1  0
M  END
>  <cnnaffinity>  (1) 
-4.67893

>  <filename>  (1) 
c1cncc(N2C[C@@H]3[C@H](C2)[C@@H]3[C@@H]2CCNC2)c1

$$$$
