
     RDKit          3D

 30 33  0  0  0  0  0  0  0  0999 V2000
    4.8083    1.3070   19.1119 C   0  0  0  0  0  0  0  0  0  0  0  0
    5.4062    1.2878   17.8452 C   0  0  0  0  0  0  0  0  0  0  0  0
    6.5686    0.6731   17.5842 N   0  0  0  0  0  0  0  0  0  0  0  0
    7.1789    0.0579   18.5987 C   0  0  0  0  0  0  0  0  0  0  0  0
    6.6583    0.0116   19.8970 C   0  0  0  0  0  0  0  0  0  0  0  0
    7.4022   -0.7016   20.9308 C   0  0  0  0  0  0  0  0  0  0  0  0
    8.5465   -1.3068   20.7513 N   0  0  0  0  0  0  0  0  0  0  0  0
    8.8382   -1.8400   21.9901 O   0  0  0  0  0  0  0  0  0  0  0  0
    7.8405   -1.5046   22.8160 C   0  0  0  0  0  0  0  0  0  0  0  0
    7.9069   -1.9895   24.2438 C   0  0  0  0  0  0  0  0  0  0  0  0
    8.5503   -3.1265   24.4716 N   0  0  0  0  0  0  0  0  0  0  0  0
    8.5460   -3.6581   25.7204 C   0  0  0  0  0  0  0  0  0  0  0  0
    7.9176   -3.0719   26.7896 C   0  0  0  0  0  0  0  0  0  0  0  0
    7.2616   -1.8377   26.5924 C   0  0  0  0  0  0  0  0  0  0  0  0
    6.5975   -1.1497   27.6290 C   0  0  0  0  0  0  0  0  0  0  0  0
    6.0290    0.0683   27.3853 C   0  0  0  0  0  0  0  0  0  0  0  0
    6.0450    0.6804   26.1816 N   0  0  0  0  0  0  0  0  0  0  0  0
    6.6463    0.0450   25.1940 C   0  0  0  0  0  0  0  0  0  0  0  0
    7.2683   -1.2422   25.3045 C   0  0  0  0  0  0  0  0  0  0  0  0
    6.6589    0.5553   24.2391 H   0  0  0  0  0  0  0  0  0  0  0  0
    5.5308    0.5977   28.1929 H   0  0  0  0  0  0  0  0  0  0  0  0
    6.5102   -1.5730   28.6089 H   0  0  0  0  0  0  0  0  0  0  0  0
    7.9291   -3.5268   27.7708 H   0  0  0  0  0  0  0  0  0  0  0  0
    9.0753   -4.6017   25.8333 H   0  0  0  0  0  0  0  0  0  0  0  0
    6.9282   -0.7874   22.2096 N   0  0  0  0  0  0  0  0  0  0  0  0
    5.4376    0.6516   20.1671 C   0  0  0  0  0  0  0  0  0  0  0  0
    5.0060    0.6313   21.1734 H   0  0  0  0  0  0  0  0  0  0  0  0
    8.1241   -0.4271   18.3696 H   0  0  0  0  0  0  0  0  0  0  0  0
    4.9242    1.7757   17.0020 H   0  0  0  0  0  0  0  0  0  0  0  0
    3.8767    1.8412   19.2591 H   0  0  0  0  0  0  0  0  0  0  0  0
  1  2  2  0
  2  3  1  0
  3  4  2  0
  4  5  1  0
  5  6  1  0
  6  7  2  0
  7  8  1  0
  8  9  1  0
  9 10  1  0
 10 11  2  0
 11 12  1  0
 12 13  2  0
 13 14  1  0
 14 15  2  0
 15 16  1  0
 16 17  2  0
 17 18  1  0
 18 19  2  0
 18 20  1  0
 16 21  1  0
 15 22  1  0
 13 23  1  0
 12 24  1  0
  9 25  2  0
  5 26  2  0
 26 27  1  0
  4 28  1  0
  2 29  1  0
  1 30  1  0
 26  1  1  0
 25  6  1  0
 19 10  1  0
 19 14  1  0
M  END
>  <cnnaffinity>  (1) 
-5.23946

>  <filename>  (1) 
c1cncc(-c2noc(-c3nccc4ccncc34)n2)c1

$$$$
