
     RDKit          3D

 42 46  0  0  0  0  0  0  0  0999 V2000
    4.7912    1.3070   19.0666 C   0  0  0  0  0  0  0  0  0  0  0  0
    5.3808    1.3046   17.8007 C   0  0  0  0  0  0  0  0  0  0  0  0
    6.5321    0.6767   17.5200 N   0  0  0  0  0  0  0  0  0  0  0  0
    7.1339    0.0227   18.5197 C   0  0  0  0  0  0  0  0  0  0  0  0
    6.6283   -0.0574   19.8289 C   0  0  0  0  0  0  0  0  0  0  0  0
    7.4307   -0.7120   20.9473 C   0  0  0  0  0  0  0  0  0  0  0  0
    8.3759    0.2619   21.5824 C   0  0  0  0  0  0  0  0  0  0  0  0
    9.6223    0.4478   21.1921 N   0  0  0  0  0  0  0  0  0  0  0  0
   10.0559    1.4251   22.0244 N   0  0  0  0  0  0  0  0  0  0  0  0
   11.4641    1.7878   22.0422 C   0  0  0  0  0  0  0  0  0  0  0  0
   12.2387    1.0431   23.1083 C   0  0  0  0  0  0  0  0  0  0  0  0
   13.5939    1.5290   23.5148 C   0  0  0  0  0  0  0  0  0  0  0  0
   12.4281    1.6568   24.4640 C   0  0  0  0  0  0  0  0  0  0  0  0
   11.9965    2.6476   24.6166 H   0  0  0  0  0  0  0  0  0  0  0  0
   12.3790    0.9944   25.3224 H   0  0  0  0  0  0  0  0  0  0  0  0
   14.3540    0.7772   23.7207 H   0  0  0  0  0  0  0  0  0  0  0  0
   13.9827    2.4290   23.0417 H   0  0  0  0  0  0  0  0  0  0  0  0
   12.1096   -0.0362   23.0916 H   0  0  0  0  0  0  0  0  0  0  0  0
   11.5402    2.8675   22.2029 H   0  0  0  0  0  0  0  0  0  0  0  0
   11.8467    1.5692   21.0456 H   0  0  0  0  0  0  0  0  0  0  0  0
    9.0670    1.7567   22.8808 C   0  0  0  0  0  0  0  0  0  0  0  0
    9.2084    2.7807   23.9358 C   0  0  0  0  0  0  0  0  0  0  0  0
    9.6636    4.1124   23.7494 C   0  0  0  0  0  0  0  0  0  0  0  0
    9.6592    5.0207   24.8234 C   0  0  0  0  0  0  0  0  0  0  0  0
    9.2100    4.7491   26.0630 N   0  0  0  0  0  0  0  0  0  0  0  0
    8.7877    3.4981   26.1917 C   0  0  0  0  0  0  0  0  0  0  0  0
    8.8174    2.4521   25.2480 C   0  0  0  0  0  0  0  0  0  0  0  0
    8.4745    1.2535   25.8590 N   0  0  0  0  0  0  0  0  0  0  0  0
    8.1970    1.5804   27.0871 C   0  0  0  0  0  0  0  0  0  0  0  0
    8.3006    2.9257   27.3323 N   0  0  0  0  0  0  0  0  0  0  0  0
    8.4285    3.3843   28.2097 H   0  0  0  0  0  0  0  0  0  0  0  0
    7.8880    0.8736   27.8511 H   0  0  0  0  0  0  0  0  0  0  0  0
   10.0479    6.0252   24.6843 H   0  0  0  0  0  0  0  0  0  0  0  0
    9.9460    4.4903   22.7682 H   0  0  0  0  0  0  0  0  0  0  0  0
    7.9811    1.0471   22.6035 N   0  0  0  0  0  0  0  0  0  0  0  0
    6.7772   -1.0617   21.7557 H   0  0  0  0  0  0  0  0  0  0  0  0
    8.0055   -1.5749   20.5918 H   0  0  0  0  0  0  0  0  0  0  0  0
    5.4326    0.6224   20.1016 C   0  0  0  0  0  0  0  0  0  0  0  0
    5.0381    0.6459   21.1192 H   0  0  0  0  0  0  0  0  0  0  0  0
    8.0935   -0.4394   18.2799 H   0  0  0  0  0  0  0  0  0  0  0  0
    4.9191    1.8408   16.9754 H   0  0  0  0  0  0  0  0  0  0  0  0
    3.8704    1.8566   19.2282 H   0  0  0  0  0  0  0  0  0  0  0  0
  1  2  2  0
  2  3  1  0
  3  4  2  0
  4  5  1  0
  5  6  1  0
  6  7  1  0
  7  8  2  0
  8  9  1  0
  9 10  1  0
 10 11  1  0
 11 12  1  0
 12 13  1  0
 13 14  1  0
 13 15  1  0
 12 16  1  0
 12 17  1  0
 11 18  1  0
 10 19  1  0
 10 20  1  0
  9 21  1  0
 21 22  1  0
 22 23  2  0
 23 24  1  0
 24 25  2  0
 25 26  1  0
 26 27  2  0
 27 28  1  0
 28 29  2  0
 29 30  1  0
 30 31  1  0
 29 32  1  0
 24 33  1  0
 23 34  1  0
 21 35  2  0
  6 36  1  0
  6 37  1  0
  5 38  2  0
 38 39  1  0
  4 40  1  0
  2 41  1  0
  1 42  1  0
 38  1  1  0
 35  7  1  0
 13 11  1  0
 27 22  1  0
 30 26  1  0
M  END
>  <cnnaffinity>  (1) 
-5.9183

>  <filename>  (1) 
c1cncc(Cc2nc(-c3ccnc4[nH]cnc34)n(CC3CC3)n2)c1

$$$$
