
     RDKit          3D

 29 32  0  0  0  0  0  0  0  0999 V2000
    4.9458    1.8163   16.9590 H   0  0  0  0  0  0  0  0  0  0  0  0
    5.3908    1.2961   17.8070 C   0  0  0  0  0  0  0  0  0  0  0  0
    6.5541    0.6704   17.5691 N   0  0  0  0  0  0  0  0  0  0  0  0
    7.1486    0.0468   18.5881 C   0  0  0  0  0  0  0  0  0  0  0  0
    8.0937   -0.4467   18.3611 H   0  0  0  0  0  0  0  0  0  0  0  0
    6.6299    0.0273   19.8905 C   0  0  0  0  0  0  0  0  0  0  0  0
    7.3783   -0.6829   20.9251 C   0  0  0  0  0  0  0  0  0  0  0  0
    7.8608   -1.8934   20.7944 N   0  0  0  0  0  0  0  0  0  0  0  0
    8.3588   -2.2438   22.0010 N   0  0  0  0  0  0  0  0  0  0  0  0
    8.2293   -1.3005   22.8489 N   0  0  0  0  0  0  0  0  0  0  0  0
    7.6256   -0.2696   22.2020 N   0  0  0  0  0  0  0  0  0  0  0  0
    7.4404    0.9333   22.8574 C   0  0  0  0  0  0  0  0  0  0  0  0
    7.1496    2.0186   22.0982 O   0  0  0  0  0  0  0  0  0  0  0  0
    7.0116    3.0631   22.9725 C   0  0  0  0  0  0  0  0  0  0  0  0
    6.6872    4.3845   22.6640 C   0  0  0  0  0  0  0  0  0  0  0  0
    6.4877    4.7160   21.6479 H   0  0  0  0  0  0  0  0  0  0  0  0
    6.6238    5.2743   23.7367 C   0  0  0  0  0  0  0  0  0  0  0  0
    6.3824    6.3159   23.5552 H   0  0  0  0  0  0  0  0  0  0  0  0
    6.8683    4.8551   25.0586 C   0  0  0  0  0  0  0  0  0  0  0  0
    6.8169    5.5747   25.8643 H   0  0  0  0  0  0  0  0  0  0  0  0
    7.1741    3.5310   25.3456 C   0  0  0  0  0  0  0  0  0  0  0  0
    7.3672    3.1971   26.3590 H   0  0  0  0  0  0  0  0  0  0  0  0
    7.2405    2.6076   24.2860 C   0  0  0  0  0  0  0  0  0  0  0  0
    7.5168    1.2060   24.1802 C   0  0  0  0  0  0  0  0  0  0  0  0
    7.7623    0.4660   24.9308 H   0  0  0  0  0  0  0  0  0  0  0  0
    5.3932    0.6455   20.1195 C   0  0  0  0  0  0  0  0  0  0  0  0
    4.9375    0.6443   21.1105 H   0  0  0  0  0  0  0  0  0  0  0  0
    4.7699    1.3004   19.0599 C   0  0  0  0  0  0  0  0  0  0  0  0
    3.8444    1.8456   19.2043 H   0  0  0  0  0  0  0  0  0  0  0  0
  1  2  1  0
  2  3  2  0
  3  4  1  0
  4  5  1  0
  4  6  2  0
  6  7  1  0
  7  8  2  0
  8  9  1  0
  9 10  2  0
 10 11  1  0
 11 12  1  0
 12 13  1  0
 13 14  1  0
 14 15  2  0
 15 16  1  0
 15 17  1  0
 17 18  1  0
 17 19  2  0
 19 20  1  0
 19 21  1  0
 21 22  1  0
 21 23  2  0
 23 24  1  0
 24 25  1  0
  6 26  1  0
 26 27  1  0
 26 28  2  0
 28 29  1  0
 28  2  1  0
 11  7  1  0
 24 12  2  0
 23 14  1  0
M  END
>  <cnnaffinity>  (1) 
-4.91427

>  <filename>  (1) 
c1cncc(-c2nnnn2-c2cc3ccccc3o2)c1

$$$$
