
     RDKit          3D

 33 36  0  0  0  0  0  0  0  0999 V2000
    4.9169    1.7785   17.0007 H   0  0  0  0  0  0  0  0  0  0  0  0
    5.4042    1.2936   17.8411 C   0  0  0  0  0  0  0  0  0  0  0  0
    6.5676    0.6787   17.5777 N   0  0  0  0  0  0  0  0  0  0  0  0
    7.1690    0.0566   18.5923 C   0  0  0  0  0  0  0  0  0  0  0  0
    8.1168   -0.4347   18.3757 H   0  0  0  0  0  0  0  0  0  0  0  0
    6.6480    0.0244   19.8924 C   0  0  0  0  0  0  0  0  0  0  0  0
    7.3941   -0.6974   20.9217 C   0  0  0  0  0  0  0  0  0  0  0  0
    7.7333   -1.9661   20.9014 N   0  0  0  0  0  0  0  0  0  0  0  0
    8.3847   -2.1948   22.0588 N   0  0  0  0  0  0  0  0  0  0  0  0
    8.4735   -1.1188   22.7589 N   0  0  0  0  0  0  0  0  0  0  0  0
    7.8648   -0.1463   22.0605 N   0  0  0  0  0  0  0  0  0  0  0  0
    7.7847    1.2273   22.5475 C   0  0  0  0  0  0  0  0  0  0  0  0
    8.6749    1.4136   23.1526 H   0  0  0  0  0  0  0  0  0  0  0  0
    7.8472    1.8877   21.6806 H   0  0  0  0  0  0  0  0  0  0  0  0
    6.5381    1.5161   23.3554 C   0  0  0  0  0  0  0  0  0  0  0  0
    6.2194    0.7443   24.4739 C   0  0  0  0  0  0  0  0  0  0  0  0
    6.8781   -0.0761   24.7478 H   0  0  0  0  0  0  0  0  0  0  0  0
    5.0549    1.0072   25.2356 C   0  0  0  0  0  0  0  0  0  0  0  0
    4.8343    0.3841   26.0960 H   0  0  0  0  0  0  0  0  0  0  0  0
    4.1873    2.0486   24.9069 C   0  0  0  0  0  0  0  0  0  0  0  0
    3.2889    2.2702   25.4819 H   0  0  0  0  0  0  0  0  0  0  0  0
    4.5228    2.8287   23.7872 C   0  0  0  0  0  0  0  0  0  0  0  0
    5.6784    2.5876   23.0077 C   0  0  0  0  0  0  0  0  0  0  0  0
    5.6860    3.5833   21.9745 C   0  0  0  0  0  0  0  0  0  0  0  0
    6.4311    3.6769   21.1952 H   0  0  0  0  0  0  0  0  0  0  0  0
    4.5767    4.3627   22.1401 C   0  0  0  0  0  0  0  0  0  0  0  0
    4.2334    5.2117   21.5470 H   0  0  0  0  0  0  0  0  0  0  0  0
    3.8778    3.9072   23.2372 N   0  0  0  0  0  0  0  0  0  0  0  0
    3.0238    4.2855   23.6057 H   0  0  0  0  0  0  0  0  0  0  0  0
    5.4310    0.6604   20.1582 C   0  0  0  0  0  0  0  0  0  0  0  0
    5.0031    0.6383   21.1656 H   0  0  0  0  0  0  0  0  0  0  0  0
    4.7990    1.3143   19.1049 C   0  0  0  0  0  0  0  0  0  0  0  0
    3.8672    1.8490   19.2599 H   0  0  0  0  0  0  0  0  0  0  0  0
  1  2  1  0
  2  3  2  0
  3  4  1  0
  4  5  1  0
  4  6  2  0
  6  7  1  0
  7  8  2  0
  8  9  1  0
  9 10  2  0
 10 11  1  0
 11 12  1  0
 12 13  1  0
 12 14  1  0
 12 15  1  0
 15 16  2  0
 16 17  1  0
 16 18  1  0
 18 19  1  0
 18 20  2  0
 20 21  1  0
 20 22  1  0
 22 23  2  0
 23 24  1  0
 24 25  1  0
 24 26  2  0
 26 27  1  0
 26 28  1  0
 28 29  1  0
  6 30  1  0
 30 31  1  0
 30 32  2  0
 32 33  1  0
 32  2  1  0
 11  7  1  0
 23 15  1  0
 28 22  1  0
M  END
>  <cnnaffinity>  (1) 
-4.97598

>  <filename>  (1) 
c1cncc(-c2nnnn2Cc2cccc3[nH]ccc23)c1

$$$$
