
     RDKit          3D

 32 34  0  0  0  0  0  0  0  0999 V2000
    5.1093    1.7353   16.9910 H   0  0  0  0  0  0  0  0  0  0  0  0
    5.5447    1.2288   17.8487 C   0  0  0  0  0  0  0  0  0  0  0  0
    6.6884    0.5714   17.6241 N   0  0  0  0  0  0  0  0  0  0  0  0
    7.2513   -0.0695   18.6588 C   0  0  0  0  0  0  0  0  0  0  0  0
    8.1843   -0.5778   18.4128 H   0  0  0  0  0  0  0  0  0  0  0  0
    6.7247   -0.0852   19.9642 C   0  0  0  0  0  0  0  0  0  0  0  0
    7.4016   -0.7741   21.1667 C   0  0  0  0  0  0  0  0  0  0  0  0
    6.5706   -1.9598   21.5988 N   0  0  0  0  0  0  0  0  0  0  0  0
    6.4930   -2.3381   22.8944 N   0  0  0  0  0  0  0  0  0  0  0  0
    5.8531   -3.4947   22.8864 C   0  0  0  0  0  0  0  0  0  0  0  0
    5.6962   -3.9918   23.8373 H   0  0  0  0  0  0  0  0  0  0  0  0
    5.5312   -3.8999   21.5740 C   0  0  0  0  0  0  0  0  0  0  0  0
    5.0681   -4.8356   21.3023 H   0  0  0  0  0  0  0  0  0  0  0  0
    6.0067   -2.8843   20.7743 C   0  0  0  0  0  0  0  0  0  0  0  0
    6.0021   -2.7061   19.7003 H   0  0  0  0  0  0  0  0  0  0  0  0
    8.8295   -1.2913   20.8503 C   0  0  0  0  0  0  0  0  0  0  0  0
    9.1123   -1.9604   21.6676 H   0  0  0  0  0  0  0  0  0  0  0  0
    8.8127   -1.8744   19.9339 H   0  0  0  0  0  0  0  0  0  0  0  0
    9.8497   -0.1688   20.7106 C   0  0  0  0  0  0  0  0  0  0  0  0
   10.8560   -0.5816   20.5994 H   0  0  0  0  0  0  0  0  0  0  0  0
    9.6205    0.4318   19.8161 H   0  0  0  0  0  0  0  0  0  0  0  0
    9.8777    0.6769   21.8417 O   0  0  0  0  0  0  0  0  0  0  0  0
    8.6220    1.2910   22.0694 C   0  0  0  0  0  0  0  0  0  0  0  0
    8.3378    1.9224   21.2076 H   0  0  0  0  0  0  0  0  0  0  0  0
    8.7520    1.9533   22.9320 H   0  0  0  0  0  0  0  0  0  0  0  0
    7.5582    0.2307   22.3527 C   0  0  0  0  0  0  0  0  0  0  0  0
    6.6003    0.6965   22.6002 H   0  0  0  0  0  0  0  0  0  0  0  0
    7.8843   -0.3440   23.2251 H   0  0  0  0  0  0  0  0  0  0  0  0
    5.4976    0.5693   20.1607 C   0  0  0  0  0  0  0  0  0  0  0  0
    5.0122    0.5373   21.1372 H   0  0  0  0  0  0  0  0  0  0  0  0
    4.9063    1.2509   19.0946 C   0  0  0  0  0  0  0  0  0  0  0  0
    3.9703    1.7850   19.2166 H   0  0  0  0  0  0  0  0  0  0  0  0
  1  2  1  0
  2  3  2  0
  3  4  1  0
  4  5  1  0
  4  6  2  0
  6  7  1  0
  7  8  1  0
  8  9  1  0
  9 10  2  0
 10 11  1  0
 10 12  1  0
 12 13  1  0
 12 14  2  0
 14 15  1  0
  7 16  1  0
 16 17  1  0
 16 18  1  0
 16 19  1  0
 19 20  1  0
 19 21  1  0
 19 22  1  0
 22 23  1  0
 23 24  1  0
 23 25  1  0
 23 26  1  0
 26 27  1  0
 26 28  1  0
  6 29  1  0
 29 30  1  0
 29 31  2  0
 31 32  1  0
 31  2  1  0
 26  7  1  0
 14  8  1  0
M  END
>  <cnnaffinity>  (1) 
-4.3346

>  <filename>  (1) 
c1cncc(C2(n3cccn3)CCOCC2)c1

$$$$
