
     RDKit          3D

 40 43  0  0  0  0  0  0  0  0999 V2000
    4.7902    1.3155   19.0754 C   0  0  0  0  0  0  0  0  0  0  0  0
    5.3884    1.3087   17.8109 C   0  0  0  0  0  0  0  0  0  0  0  0
    6.5479    0.6857   17.5553 N   0  0  0  0  0  0  0  0  0  0  0  0
    7.1504    0.0509   18.5720 C   0  0  0  0  0  0  0  0  0  0  0  0
    6.6361   -0.0309   19.8823 C   0  0  0  0  0  0  0  0  0  0  0  0
    7.3713   -0.7153   21.0195 C   0  0  0  0  0  0  0  0  0  0  0  0
    8.1010    0.2891   21.9515 C   0  0  0  0  0  0  0  0  0  0  0  0
    9.2865    0.9688   21.2343 C   0  0  0  0  0  0  0  0  0  0  0  0
   10.4560    0.9785   22.2343 C   0  0  0  0  0  0  0  0  0  0  0  0
   10.1553   -0.1639   23.2226 C   0  0  0  0  0  0  0  0  0  0  0  0
    8.7068   -0.3453   23.1202 N   0  0  0  0  0  0  0  0  0  0  0  0
    7.9716   -1.0131   24.0740 C   0  0  0  0  0  0  0  0  0  0  0  0
    6.5995   -0.8067   24.2359 C   0  0  0  0  0  0  0  0  0  0  0  0
    5.9102   -1.5100   25.2479 C   0  0  0  0  0  0  0  0  0  0  0  0
    4.5204   -1.3676   25.5425 C   0  0  0  0  0  0  0  0  0  0  0  0
    3.9349   -2.1256   26.5303 C   0  0  0  0  0  0  0  0  0  0  0  0
    4.7089   -3.0337   27.3077 C   0  0  0  0  0  0  0  0  0  0  0  0
    6.0563   -3.1818   27.0717 C   0  0  0  0  0  0  0  0  0  0  0  0
    6.6843   -2.4271   26.0322 C   0  0  0  0  0  0  0  0  0  0  0  0
    8.0294   -2.5824   25.8210 N   0  0  0  0  0  0  0  0  0  0  0  0
    8.6463   -1.8908   24.8966 N   0  0  0  0  0  0  0  0  0  0  0  0
    6.6785   -3.8515   27.6528 H   0  0  0  0  0  0  0  0  0  0  0  0
    4.2181   -3.5942   28.0974 H   0  0  0  0  0  0  0  0  0  0  0  0
    2.8723   -2.0294   26.7226 H   0  0  0  0  0  0  0  0  0  0  0  0
    3.9236   -0.6408   25.0005 H   0  0  0  0  0  0  0  0  0  0  0  0
    6.0893   -0.1116   23.5832 H   0  0  0  0  0  0  0  0  0  0  0  0
   10.4450    0.0700   24.2582 H   0  0  0  0  0  0  0  0  0  0  0  0
   10.6758   -1.0982   22.9645 H   0  0  0  0  0  0  0  0  0  0  0  0
   11.4213    0.8398   21.7343 H   0  0  0  0  0  0  0  0  0  0  0  0
   10.4994    1.9376   22.7640 H   0  0  0  0  0  0  0  0  0  0  0  0
    9.0065    1.9729   20.8980 H   0  0  0  0  0  0  0  0  0  0  0  0
    9.5382    0.3950   20.3312 H   0  0  0  0  0  0  0  0  0  0  0  0
    7.3744    1.0525   22.2813 H   0  0  0  0  0  0  0  0  0  0  0  0
    8.1197   -1.4241   20.6433 H   0  0  0  0  0  0  0  0  0  0  0  0
    6.6718   -1.3108   21.6150 H   0  0  0  0  0  0  0  0  0  0  0  0
    5.4286    0.6437   20.1202 C   0  0  0  0  0  0  0  0  0  0  0  0
    5.0053    0.6470   21.1272 H   0  0  0  0  0  0  0  0  0  0  0  0
    8.1034   -0.4181   18.3234 H   0  0  0  0  0  0  0  0  0  0  0  0
    4.9230    1.8214   16.9687 H   0  0  0  0  0  0  0  0  0  0  0  0
    3.8614    1.8572   19.2248 H   0  0  0  0  0  0  0  0  0  0  0  0
  1  2  2  0
  2  3  1  0
  3  4  2  0
  4  5  1  0
  5  6  1  0
  6  7  1  0
  7  8  1  0
  8  9  1  0
  9 10  1  0
 10 11  1  0
 11 12  1  0
 12 13  2  0
 13 14  1  0
 14 15  2  0
 15 16  1  0
 16 17  2  0
 17 18  1  0
 18 19  2  0
 19 20  1  0
 20 21  2  0
 18 22  1  0
 17 23  1  0
 16 24  1  0
 15 25  1  0
 13 26  1  0
 10 27  1  0
 10 28  1  0
  9 29  1  0
  9 30  1  0
  8 31  1  0
  8 32  1  0
  7 33  1  0
  6 34  1  0
  6 35  1  0
  5 36  2  0
 36 37  1  0
  4 38  1  0
  2 39  1  0
  1 40  1  0
 36  1  1  0
 11  7  1  0
 21 12  1  0
 19 14  1  0
M  END
>  <cnnaffinity>  (1) 
-5.23068

>  <filename>  (1) 
c1cncc(CC2CCCN2c2cc3ccccc3nn2)c1

$$$$
