
     RDKit          3D

 30 32  0  0  0  0  0  0  0  0999 V2000
    4.9337    1.8122   16.9437 H   0  0  0  0  0  0  0  0  0  0  0  0
    5.3981    1.3301   17.8067 C   0  0  0  0  0  0  0  0  0  0  0  0
    6.5741    0.7225   17.5855 N   0  0  0  0  0  0  0  0  0  0  0  0
    7.1613    0.1102   18.6248 C   0  0  0  0  0  0  0  0  0  0  0  0
    8.1172   -0.3625   18.4064 H   0  0  0  0  0  0  0  0  0  0  0  0
    6.6268    0.0594   19.9337 C   0  0  0  0  0  0  0  0  0  0  0  0
    7.2829   -0.6863   21.0407 C   0  0  0  0  0  0  0  0  0  0  0  0
    7.7155   -1.9803   21.0806 C   0  0  0  0  0  0  0  0  0  0  0  0
    7.5343   -2.7304   20.3295 H   0  0  0  0  0  0  0  0  0  0  0  0
    8.3273   -2.2962   22.2618 N   0  0  0  0  0  0  0  0  0  0  0  0
    8.2309   -1.2014   22.9739 C   0  0  0  0  0  0  0  0  0  0  0  0
    8.6217   -1.0843   23.9760 H   0  0  0  0  0  0  0  0  0  0  0  0
    7.5854   -0.1851   22.3018 N   0  0  0  0  0  0  0  0  0  0  0  0
    7.1170    1.0661   22.7922 N   0  0  0  0  0  0  0  0  0  0  0  0
    7.4678    1.7882   22.1643 H   0  0  0  0  0  0  0  0  0  0  0  0
    7.4789    1.4357   24.1649 C   0  0  0  0  0  0  0  0  0  0  0  0
    7.0901    0.7030   24.8894 H   0  0  0  0  0  0  0  0  0  0  0  0
    6.9459    2.3719   24.3383 H   0  0  0  0  0  0  0  0  0  0  0  0
    8.9579    1.6192   24.3859 C   0  0  0  0  0  0  0  0  0  0  0  0
    9.9106    2.6462   23.3778 S   0  0  0  0  0  0  0  0  0  0  0  0
   11.3690    2.1288   24.1292 C   0  0  0  0  0  0  0  0  0  0  0  0
   12.3170    2.5460   23.8167 H   0  0  0  0  0  0  0  0  0  0  0  0
   11.1370    1.2076   25.0992 C   0  0  0  0  0  0  0  0  0  0  0  0
   11.9156    0.6723   25.6291 H   0  0  0  0  0  0  0  0  0  0  0  0
    9.7482    0.9362   25.2613 C   0  0  0  0  0  0  0  0  0  0  0  0
    9.3502    0.2397   25.9907 H   0  0  0  0  0  0  0  0  0  0  0  0
    5.4097    0.7247   20.1388 C   0  0  0  0  0  0  0  0  0  0  0  0
    4.9986    0.7413   21.1483 H   0  0  0  0  0  0  0  0  0  0  0  0
    4.7810    1.3517   19.0616 C   0  0  0  0  0  0  0  0  0  0  0  0
    3.8355    1.8633   19.1832 H   0  0  0  0  0  0  0  0  0  0  0  0
  1  2  1  0
  2  3  2  0
  3  4  1  0
  4  5  1  0
  4  6  2  0
  6  7  1  0
  7  8  2  0
  8  9  1  0
  8 10  1  0
 10 11  2  0
 11 12  1  0
 11 13  1  0
 13 14  1  0
 14 15  1  0
 14 16  1  0
 16 17  1  0
 16 18  1  0
 16 19  1  0
 19 20  1  0
 20 21  1  0
 21 22  1  0
 21 23  2  0
 23 24  1  0
 23 25  1  0
 25 26  1  0
  6 27  1  0
 27 28  1  0
 27 29  2  0
 29 30  1  0
 29  2  1  0
 13  7  1  0
 25 19  2  0
M  END
>  <cnnaffinity>  (1) 
-5.13212

>  <filename>  (1) 
c1cncc(-c2cncn2NCc2cccs2)c1

$$$$
