
     RDKit          3D

 33 36  0  0  0  0  0  0  0  0999 V2000
    4.8044    1.2954   19.1039 C   0  0  0  0  0  0  0  0  0  0  0  0
    5.4066    1.2893   17.8431 C   0  0  0  0  0  0  0  0  0  0  0  0
    6.5763    0.6719   17.5982 N   0  0  0  0  0  0  0  0  0  0  0  0
    7.1785    0.0433   18.6103 C   0  0  0  0  0  0  0  0  0  0  0  0
    6.6469   -0.0081   19.9072 C   0  0  0  0  0  0  0  0  0  0  0  0
    7.3566   -0.6881   20.9335 N   0  0  0  0  0  0  0  0  0  0  0  0
    7.7890   -1.9422   20.7288 N   0  0  0  0  0  0  0  0  0  0  0  0
    8.2992   -2.3329   21.8864 C   0  0  0  0  0  0  0  0  0  0  0  0
    8.2194   -1.3333   22.8614 C   0  0  0  0  0  0  0  0  0  0  0  0
    7.6311   -0.2627   22.2116 C   0  0  0  0  0  0  0  0  0  0  0  0
    7.3850    1.0971   22.7204 C   0  0  0  0  0  0  0  0  0  0  0  0
    7.1893    1.2745   24.0731 C   0  0  0  0  0  0  0  0  0  0  0  0
    7.0063    2.5713   24.6101 C   0  0  0  0  0  0  0  0  0  0  0  0
    6.8040    2.8146   25.9993 C   0  0  0  0  0  0  0  0  0  0  0  0
    6.6272    4.1019   26.4476 C   0  0  0  0  0  0  0  0  0  0  0  0
    6.6471    5.1995   25.5322 C   0  0  0  0  0  0  0  0  0  0  0  0
    6.8448    4.9908   24.1840 C   0  0  0  0  0  0  0  0  0  0  0  0
    7.0321    3.6637   23.6935 C   0  0  0  0  0  0  0  0  0  0  0  0
    7.2491    3.3510   22.3120 C   0  0  0  0  0  0  0  0  0  0  0  0
    7.4263    2.1444   21.8303 N   0  0  0  0  0  0  0  0  0  0  0  0
    7.2633    4.1743   21.6044 H   0  0  0  0  0  0  0  0  0  0  0  0
    6.8595    5.8259   23.4835 H   0  0  0  0  0  0  0  0  0  0  0  0
    6.5029    6.2069   25.9138 H   0  0  0  0  0  0  0  0  0  0  0  0
    6.4690    4.2866   27.5071 H   0  0  0  0  0  0  0  0  0  0  0  0
    6.7935    1.9606   26.6755 H   0  0  0  0  0  0  0  0  0  0  0  0
    7.1759    0.4184   24.7360 H   0  0  0  0  0  0  0  0  0  0  0  0
    8.6014   -1.3652   23.8725 H   0  0  0  0  0  0  0  0  0  0  0  0
    8.7226   -3.3223   21.9911 H   0  0  0  0  0  0  0  0  0  0  0  0
    5.4220    0.6211   20.1587 C   0  0  0  0  0  0  0  0  0  0  0  0
    5.0018    0.6386   21.1652 H   0  0  0  0  0  0  0  0  0  0  0  0
    8.1253   -0.4393   18.3800 H   0  0  0  0  0  0  0  0  0  0  0  0
    4.9242    1.7792   16.9979 H   0  0  0  0  0  0  0  0  0  0  0  0
    3.8793    1.8392   19.2624 H   0  0  0  0  0  0  0  0  0  0  0  0
  1  2  2  0
  2  3  1  0
  3  4  2  0
  4  5  1  0
  5  6  1  0
  6  7  1  0
  7  8  2  0
  8  9  1  0
  9 10  2  0
 10 11  1  0
 11 12  2  0
 12 13  1  0
 13 14  2  0
 14 15  1  0
 15 16  2  0
 16 17  1  0
 17 18  2  0
 18 19  1  0
 19 20  2  0
 19 21  1  0
 17 22  1  0
 16 23  1  0
 15 24  1  0
 14 25  1  0
 12 26  1  0
  9 27  1  0
  8 28  1  0
  5 29  2  0
 29 30  1  0
  4 31  1  0
  2 32  1  0
  1 33  1  0
 29  1  1  0
 10  6  1  0
 20 11  1  0
 18 13  1  0
M  END
>  <cnnaffinity>  (1) 
-5.27089

>  <filename>  (1) 
c1cncc(-n2nccc2-c2cc3ccccc3cn2)c1

$$$$
