
     RDKit          3D

 38 41  0  0  0  0  0  0  0  0999 V2000
    4.9853    1.8136   16.6391 H   0  0  0  0  0  0  0  0  0  0  0  0
    5.4506    1.4889   17.5656 C   0  0  0  0  0  0  0  0  0  0  0  0
    6.7119    1.0389   17.4680 N   0  0  0  0  0  0  0  0  0  0  0  0
    7.3120    0.6246   18.5878 C   0  0  0  0  0  0  0  0  0  0  0  0
    8.3473    0.3051   18.4801 H   0  0  0  0  0  0  0  0  0  0  0  0
    6.6908    0.6039   19.8527 C   0  0  0  0  0  0  0  0  0  0  0  0
    7.3682    0.0619   20.9781 N   0  0  0  0  0  0  0  0  0  0  0  0
    7.0995    0.3295   22.3112 C   0  0  0  0  0  0  0  0  0  0  0  0
    6.4512    1.1518   22.5883 H   0  0  0  0  0  0  0  0  0  0  0  0
    7.8186   -0.5355   23.0828 C   0  0  0  0  0  0  0  0  0  0  0  0
    7.8076   -0.6002   24.1632 H   0  0  0  0  0  0  0  0  0  0  0  0
    8.5522   -1.3957   22.2120 C   0  0  0  0  0  0  0  0  0  0  0  0
    9.3204   -2.6123   22.6642 C   0  0  0  0  0  0  0  0  0  0  0  0
    9.9567   -2.9858   21.8487 H   0  0  0  0  0  0  0  0  0  0  0  0
   10.0180   -2.3289   23.4670 H   0  0  0  0  0  0  0  0  0  0  0  0
    8.3461   -3.6822   23.1851 C   0  0  0  0  0  0  0  0  0  0  0  0
    8.1590   -3.7832   24.5781 C   0  0  0  0  0  0  0  0  0  0  0  0
    8.8100   -3.2556   25.2808 H   0  0  0  0  0  0  0  0  0  0  0  0
    7.1558   -4.6205   25.0296 C   0  0  0  0  0  0  0  0  0  0  0  0
    6.9154   -4.8191   26.0718 H   0  0  0  0  0  0  0  0  0  0  0  0
    6.3889   -5.2747   24.0741 C   0  0  0  0  0  0  0  0  0  0  0  0
    5.5607   -6.3520   24.2554 C   0  0  0  0  0  0  0  0  0  0  0  0
    5.4408   -6.7066   25.2788 H   0  0  0  0  0  0  0  0  0  0  0  0
    5.0276   -7.0143   23.1199 C   0  0  0  0  0  0  0  0  0  0  0  0
    4.4169   -7.9031   23.2257 H   0  0  0  0  0  0  0  0  0  0  0  0
    5.3141   -6.3874   21.9252 C   0  0  0  0  0  0  0  0  0  0  0  0
    4.9124   -6.8767   21.0090 H   0  0  0  0  0  0  0  0  0  0  0  0
    5.9665   -4.7925   21.5125 C   0  0  0  0  0  0  0  0  0  0  0  0
    6.0520   -4.8280   20.4280 H   0  0  0  0  0  0  0  0  0  0  0  0
    6.0809   -5.0023   21.8409 C   0  0  0  0  0  0  0  0  0  0  0  0
    7.6173   -4.4416   22.1876 C   0  0  0  0  0  0  0  0  0  0  0  0
    8.3083   -4.4672   21.3159 H   0  0  0  0  0  0  0  0  0  0  0  0
    8.2983   -0.9657   20.9385 C   0  0  0  0  0  0  0  0  0  0  0  0
    8.7138   -1.2818   19.9918 H   0  0  0  0  0  0  0  0  0  0  0  0
    5.3747    1.0904   19.9423 C   0  0  0  0  0  0  0  0  0  0  0  0
    4.8483    1.1091   20.8963 H   0  0  0  0  0  0  0  0  0  0  0  0
    4.7514    1.5362   18.7757 C   0  0  0  0  0  0  0  0  0  0  0  0
    3.7388    1.9241   18.7997 H   0  0  0  0  0  0  0  0  0  0  0  0
  1  2  1  0
  2  3  2  0
  3  4  1  0
  4  5  1  0
  4  6  2  0
  6  7  1  0
  7  8  1  0
  8  9  1  0
  8 10  2  0
 10 11  1  0
 10 12  1  0
 12 13  1  0
 13 14  1  0
 13 15  1  0
 13 16  1  0
 16 17  2  0
 17 18  1  0
 17 19  1  0
 19 20  1  0
 19 21  2  0
 21 22  1  0
 22 23  1  0
 22 24  2  0
 24 25  1  0
 24 26  1  0
 26 27  1  0
 26 28  2  0
 28 29  1  0
 28 30  1  0
 30 31  2  0
 31 32  1  0
 12 33  2  0
 33 34  1  0
  6 35  1  0
 35 36  1  0
 35 37  2  0
 37 38  1  0
 37  2  1  0
 33  7  1  0
 31 16  1  0
 30 21  1  0
M  END
>  <cnnaffinity>  (1) 
-5.35618

>  <filename>  (1) 
c1cncc(-n2ccc(Cc3ccc4ccccc4c3)c2)c1

$$$$
