
     RDKit          3D

 33 35  0  0  0  0  0  0  0  0999 V2000
    5.0385    1.7813   16.6313 H   0  0  0  0  0  0  0  0  0  0  0  0
    5.4505    1.3848   17.5577 C   0  0  0  0  0  0  0  0  0  0  0  0
    6.6377    0.7661   17.4591 N   0  0  0  0  0  0  0  0  0  0  0  0
    7.1890    0.2922   18.5848 C   0  0  0  0  0  0  0  0  0  0  0  0
    8.1680   -0.1754   18.4969 H   0  0  0  0  0  0  0  0  0  0  0  0
    6.5744    0.3914   19.8437 C   0  0  0  0  0  0  0  0  0  0  0  0
    7.2112   -0.1067   21.0279 N   0  0  0  0  0  0  0  0  0  0  0  0
    7.9307    0.6932   21.9022 C   0  0  0  0  0  0  0  0  0  0  0  0
    8.0323    1.7474   21.6864 H   0  0  0  0  0  0  0  0  0  0  0  0
    8.3510   -0.0690   22.9646 C   0  0  0  0  0  0  0  0  0  0  0  0
    8.9534    0.2660   23.8033 H   0  0  0  0  0  0  0  0  0  0  0  0
    7.8471   -1.3898   22.7520 C   0  0  0  0  0  0  0  0  0  0  0  0
    7.8996   -2.2612   23.3921 H   0  0  0  0  0  0  0  0  0  0  0  0
    7.1467   -1.3899   21.5630 C   0  0  0  0  0  0  0  0  0  0  0  0
    6.4739   -2.4609   21.0125 N   0  0  0  0  0  0  0  0  0  0  0  0
    6.3572   -2.3403   20.0039 H   0  0  0  0  0  0  0  0  0  0  0  0
    7.7674   -4.5397   21.1123 C   0  0  0  0  0  0  0  0  0  0  0  0
    6.8998   -3.5923   21.3180 H   0  0  0  0  0  0  0  0  0  0  0  0
    8.6005   -3.6513   21.1002 H   0  0  0  0  0  0  0  0  0  0  0  0
    7.7307   -4.5321   20.9928 C   0  0  0  0  0  0  0  0  0  0  0  0
    5.5880   -5.8926   20.4343 C   0  0  0  0  0  0  0  0  0  0  0  0
    5.8457   -5.7091   19.4245 H   0  0  0  0  0  0  0  0  0  0  0  0
    5.1730   -6.0351   21.6338 C   0  0  0  0  0  0  0  0  0  0  0  0
    4.1241   -5.9284   21.9920 H   0  0  0  0  0  0  0  0  0  0  0  0
    6.0116   -6.4351   22.7804 N   0  0  0  0  0  0  0  0  0  0  0  0
    7.2465   -6.5764   22.6022 C   0  0  0  0  0  0  0  0  0  0  0  0
    7.8585   -7.2373   23.2208 H   0  0  0  0  0  0  0  0  0  0  0  0
    8.0944   -5.8394   21.5769 C   0  0  0  0  0  0  0  0  0  0  0  0
    9.1326   -6.1348   21.7517 H   0  0  0  0  0  0  0  0  0  0  0  0
    5.3320    1.0278   19.9368 C   0  0  0  0  0  0  0  0  0  0  0  0
    4.8482    1.1099   20.9097 H   0  0  0  0  0  0  0  0  0  0  0  0
    4.7607    1.5328   18.7672 C   0  0  0  0  0  0  0  0  0  0  0  0
    3.8081    2.0504   18.7868 H   0  0  0  0  0  0  0  0  0  0  0  0
  1  2  1  0
  2  3  2  0
  3  4  1  0
  4  5  1  0
  4  6  2  0
  6  7  1  0
  7  8  1  0
  8  9  1  0
  8 10  2  0
 10 11  1  0
 10 12  1  0
 12 13  1  0
 12 14  2  0
 14 15  1  0
 15 16  1  0
 15 17  1  0
 17 18  1  0
 17 19  1  0
 17 20  1  0
 20 21  2  0
 21 22  1  0
 21 23  1  0
 23 24  1  0
 23 25  2  0
 25 26  1  0
 26 27  1  0
 26 28  2  0
 28 29  1  0
  6 30  1  0
 30 31  1  0
 30 32  2  0
 32 33  1  0
 32  2  1  0
 14  7  1  0
 28 20  1  0
M  END
>  <cnnaffinity>  (1) 
-4.49716

>  <filename>  (1) 
c1cncc(-n2cccc2NCc2ccncc2)c1

$$$$
