
     RDKit          3D

 50 55  0  0  0  0  0  0  0  0999 V2000
    4.8000    1.3251   18.9587 C   0  0  0  0  0  0  0  0  0  0  0  0
    5.4046    1.2991   17.6978 C   0  0  0  0  0  0  0  0  0  0  0  0
    6.5120    0.5951   17.4178 N   0  0  0  0  0  0  0  0  0  0  0  0
    7.0736   -0.0845   18.4263 C   0  0  0  0  0  0  0  0  0  0  0  0
    6.5680   -0.1144   19.7360 C   0  0  0  0  0  0  0  0  0  0  0  0
    7.3320   -0.7309   20.8941 C   0  0  0  0  0  0  0  0  0  0  0  0
    8.1006    0.3217   21.6366 C   0  0  0  0  0  0  0  0  0  0  0  0
    7.6459    0.9417   22.7021 N   0  0  0  0  0  0  0  0  0  0  0  0
    8.6458    1.8147   22.9934 N   0  0  0  0  0  0  0  0  0  0  0  0
    8.5252    2.7306   24.0883 C   0  0  0  0  0  0  0  0  0  0  0  0
    8.3544    2.2366   25.4147 C   0  0  0  0  0  0  0  0  0  0  0  0
    8.4702    3.0760   26.5123 C   0  0  0  0  0  0  0  0  0  0  0  0
    8.7259    4.4510   26.2695 C   0  0  0  0  0  0  0  0  0  0  0  0
    8.9438    5.5075   27.0997 N   0  0  0  0  0  0  0  0  0  0  0  0
    9.1887    6.6607   26.4346 N   0  0  0  0  0  0  0  0  0  0  0  0
    9.1311    6.3501   25.1511 C   0  0  0  0  0  0  0  0  0  0  0  0
    8.8222    4.9637   24.9588 C   0  0  0  0  0  0  0  0  0  0  0  0
    8.6329    4.0939   23.8546 C   0  0  0  0  0  0  0  0  0  0  0  0
    8.5252    4.4676   22.8428 H   0  0  0  0  0  0  0  0  0  0  0  0
    9.3054    7.1045   24.3924 H   0  0  0  0  0  0  0  0  0  0  0  0
    8.8032    5.5337   28.1003 H   0  0  0  0  0  0  0  0  0  0  0  0
    8.3851    2.6944   27.5250 H   0  0  0  0  0  0  0  0  0  0  0  0
    8.1631    1.1758   25.5462 H   0  0  0  0  0  0  0  0  0  0  0  0
    9.6920    1.6139   22.1278 C   0  0  0  0  0  0  0  0  0  0  0  0
   11.1147    2.0501   22.4217 C   0  0  0  0  0  0  0  0  0  0  0  0
   11.5420    1.3858   23.7356 C   0  0  0  0  0  0  0  0  0  0  0  0
   12.8476    1.7004   24.3933 C   0  0  0  0  0  0  0  0  0  0  0  0
   11.5515    2.1866   24.9865 C   0  0  0  0  0  0  0  0  0  0  0  0
   11.1488    1.7293   25.8936 H   0  0  0  0  0  0  0  0  0  0  0  0
   11.2840    3.2291   24.8116 H   0  0  0  0  0  0  0  0  0  0  0  0
   13.3847    0.8871   24.8752 H   0  0  0  0  0  0  0  0  0  0  0  0
   13.5026    2.4462   23.9441 H   0  0  0  0  0  0  0  0  0  0  0  0
   11.2156    0.3460   23.7910 H   0  0  0  0  0  0  0  0  0  0  0  0
   12.1116    1.7254   21.2885 C   0  0  0  0  0  0  0  0  0  0  0  0
   12.0141    3.1668   20.7629 C   0  0  0  0  0  0  0  0  0  0  0  0
   11.4381    3.5624   22.1500 C   0  0  0  0  0  0  0  0  0  0  0  0
   10.6270    4.2953   22.2493 H   0  0  0  0  0  0  0  0  0  0  0  0
   12.2596    3.8955   22.7904 H   0  0  0  0  0  0  0  0  0  0  0  0
   12.9314    3.6889   20.4659 H   0  0  0  0  0  0  0  0  0  0  0  0
   11.3214    3.2334   19.9228 H   0  0  0  0  0  0  0  0  0  0  0  0
   11.7938    0.8966   20.6676 H   0  0  0  0  0  0  0  0  0  0  0  0
   13.0888    1.5096   21.7305 H   0  0  0  0  0  0  0  0  0  0  0  0
    9.3325    0.7050   21.2293 N   0  0  0  0  0  0  0  0  0  0  0  0
    8.0494   -1.4822   20.5469 H   0  0  0  0  0  0  0  0  0  0  0  0
    6.6446   -1.2108   21.5993 H   0  0  0  0  0  0  0  0  0  0  0  0
    5.3974    0.6081   19.9974 C   0  0  0  0  0  0  0  0  0  0  0  0
    4.9817    0.6219   21.0070 H   0  0  0  0  0  0  0  0  0  0  0  0
    7.9873   -0.6303   18.1866 H   0  0  0  0  0  0  0  0  0  0  0  0
    4.9844    1.8751   16.8755 H   0  0  0  0  0  0  0  0  0  0  0  0
    3.9084    1.9229   19.1183 H   0  0  0  0  0  0  0  0  0  0  0  0
  1  2  2  0
  2  3  1  0
  3  4  2  0
  4  5  1  0
  5  6  1  0
  6  7  1  0
  7  8  2  0
  8  9  1  0
  9 10  1  0
 10 11  2  0
 11 12  1  0
 12 13  2  0
 13 14  1  0
 14 15  1  0
 15 16  2  0
 16 17  1  0
 17 18  2  0
 18 19  1  0
 16 20  1  0
 14 21  1  0
 12 22  1  0
 11 23  1  0
  9 24  1  0
 24 25  1  0
 25 26  1  0
 26 27  1  0
 27 28  1  0
 28 29  1  0
 28 30  1  0
 27 31  1  0
 27 32  1  0
 26 33  1  0
 25 34  1  0
 34 35  1  0
 35 36  1  0
 36 37  1  0
 36 38  1  0
 35 39  1  0
 35 40  1  0
 34 41  1  0
 34 42  1  0
 24 43  2  0
  6 44  1  0
  6 45  1  0
  5 46  2  0
 46 47  1  0
  4 48  1  0
  2 49  1  0
  1 50  1  0
 46  1  1  0
 43  7  1  0
 18 10  1  0
 36 25  1  0
 17 13  1  0
 28 26  1  0
M  END
>  <cnnaffinity>  (1) 
-6.2225

>  <filename>  (1) 
c1cncc(Cc2nc(C3(C4CC4)CCC3)n(-c3ccc4[nH]ncc4c3)n2)c1

$$$$
