
     RDKit          3D

 34 37  0  0  0  0  0  0  0  0999 V2000
    4.8025    1.3113   19.1100 C   0  0  0  0  0  0  0  0  0  0  0  0
    5.4041    1.2894   17.8447 C   0  0  0  0  0  0  0  0  0  0  0  0
    6.5681    0.6750   17.5835 N   0  0  0  0  0  0  0  0  0  0  0  0
    7.1752    0.0604   18.6003 C   0  0  0  0  0  0  0  0  0  0  0  0
    6.6500    0.0162   19.8984 C   0  0  0  0  0  0  0  0  0  0  0  0
    7.4031   -0.7000   20.9171 C   0  0  0  0  0  0  0  0  0  0  0  0
    8.5293   -1.3286   20.7973 N   0  0  0  0  0  0  0  0  0  0  0  0
    8.8274   -1.8438   22.0378 N   0  0  0  0  0  0  0  0  0  0  0  0
    7.8613   -1.4928   22.8284 C   0  0  0  0  0  0  0  0  0  0  0  0
    7.7591   -1.8283   24.2745 C   0  0  0  0  0  0  0  0  0  0  0  0
    8.7932   -2.5868   24.8588 C   0  0  0  0  0  0  0  0  0  0  0  0
    8.7086   -2.8899   26.2089 C   0  0  0  0  0  0  0  0  0  0  0  0
    7.5957   -2.4294   26.8927 C   0  0  0  0  0  0  0  0  0  0  0  0
    6.5941   -1.6901   26.2549 C   0  0  0  0  0  0  0  0  0  0  0  0
    5.3816   -1.1916   27.0085 C   0  0  0  0  0  0  0  0  0  0  0  0
    4.7094   -0.0281   26.5991 C   0  0  0  0  0  0  0  0  0  0  0  0
    3.5890    0.4093   27.3056 C   0  0  0  0  0  0  0  0  0  0  0  0
    3.0880   -0.2108   28.3826 N   0  0  0  0  0  0  0  0  0  0  0  0
    3.7299   -1.3166   28.7811 C   0  0  0  0  0  0  0  0  0  0  0  0
    4.8596   -1.8413   28.1460 C   0  0  0  0  0  0  0  0  0  0  0  0
    5.2933   -2.7548   28.5380 H   0  0  0  0  0  0  0  0  0  0  0  0
    3.3225   -1.8179   29.6551 H   0  0  0  0  0  0  0  0  0  0  0  0
    3.0683    1.3025   26.9745 H   0  0  0  0  0  0  0  0  0  0  0  0
    5.0573    0.5146   25.7267 H   0  0  0  0  0  0  0  0  0  0  0  0
    6.6952   -1.3783   24.9566 N   0  0  0  0  0  0  0  0  0  0  0  0
    7.5343   -2.6248   27.9239 H   0  0  0  0  0  0  0  0  0  0  0  0
    9.4734   -3.4684   26.7317 H   0  0  0  0  0  0  0  0  0  0  0  0
    9.6366   -2.9159   24.2683 H   0  0  0  0  0  0  0  0  0  0  0  0
    6.9194   -0.7622   22.1788 O   0  0  0  0  0  0  0  0  0  0  0  0
    5.4295    0.6569   20.1661 C   0  0  0  0  0  0  0  0  0  0  0  0
    4.9959    0.6377   21.1694 H   0  0  0  0  0  0  0  0  0  0  0  0
    8.1224   -0.4306   18.3848 H   0  0  0  0  0  0  0  0  0  0  0  0
    4.9209    1.7757   17.0013 H   0  0  0  0  0  0  0  0  0  0  0  0
    3.8708    1.8457   19.2582 H   0  0  0  0  0  0  0  0  0  0  0  0
  1  2  2  0
  2  3  1  0
  3  4  2  0
  4  5  1  0
  5  6  1  0
  6  7  2  0
  7  8  1  0
  8  9  2  0
  9 10  1  0
 10 11  2  0
 11 12  1  0
 12 13  2  0
 13 14  1  0
 14 15  1  0
 15 16  2  0
 16 17  1  0
 17 18  2  0
 18 19  1  0
 19 20  2  0
 20 21  1  0
 19 22  1  0
 17 23  1  0
 16 24  1  0
 14 25  2  0
 13 26  1  0
 12 27  1  0
 11 28  1  0
  9 29  1  0
  5 30  2  0
 30 31  1  0
  4 32  1  0
  2 33  1  0
  1 34  1  0
 30  1  1  0
 29  6  1  0
 25 10  1  0
 20 15  1  0
M  END
>  <cnnaffinity>  (1) 
-5.40732

>  <filename>  (1) 
c1cncc(-c2nnc(-c3cccc(-c4ccncc4)n3)o2)c1

$$$$
