
     RDKit          3D

 49 54  0  0  0  0  0  0  0  0999 V2000
    4.6290    1.4196   18.7398 C   0  0  0  0  0  0  0  0  0  0  0  0
    5.3542    1.3158   17.5488 C   0  0  0  0  0  0  0  0  0  0  0  0
    6.3806    0.4686   17.3729 N   0  0  0  0  0  0  0  0  0  0  0  0
    6.7336   -0.2854   18.4216 C   0  0  0  0  0  0  0  0  0  0  0  0
    6.1074   -0.2298   19.6797 C   0  0  0  0  0  0  0  0  0  0  0  0
    6.6869   -0.9071   20.9147 C   0  0  0  0  0  0  0  0  0  0  0  0
    7.5733    0.0316   21.6888 C   0  0  0  0  0  0  0  0  0  0  0  0
    7.1491    0.9343   22.5592 N   0  0  0  0  0  0  0  0  0  0  0  0
    8.2896    1.5855   22.9015 N   0  0  0  0  0  0  0  0  0  0  0  0
    8.3712    2.6468   23.9304 C   0  0  0  0  0  0  0  0  0  0  0  0
    7.8203    4.0440   23.5223 C   0  0  0  0  0  0  0  0  0  0  0  0
    6.4976    4.2553   24.3027 C   0  0  0  0  0  0  0  0  0  0  0  0
    6.5672    3.2256   25.4069 C   0  0  0  0  0  0  0  0  0  0  0  0
    5.7530    3.1000   26.5329 C   0  0  0  0  0  0  0  0  0  0  0  0
    6.0584    2.1195   27.4857 C   0  0  0  0  0  0  0  0  0  0  0  0
    7.1584    1.2684   27.3076 C   0  0  0  0  0  0  0  0  0  0  0  0
    7.9523    1.3717   26.1585 C   0  0  0  0  0  0  0  0  0  0  0  0
    7.6301    2.3430   25.2100 C   0  0  0  0  0  0  0  0  0  0  0  0
    8.8116    0.7189   26.0121 H   0  0  0  0  0  0  0  0  0  0  0  0
    7.4060    0.5301   28.0667 H   0  0  0  0  0  0  0  0  0  0  0  0
    5.4407    2.0277   28.3757 H   0  0  0  0  0  0  0  0  0  0  0  0
    4.9054    3.7692   26.6632 H   0  0  0  0  0  0  0  0  0  0  0  0
    6.4175    5.2708   24.7088 H   0  0  0  0  0  0  0  0  0  0  0  0
    5.6139    4.0923   23.6730 H   0  0  0  0  0  0  0  0  0  0  0  0
    7.7028    4.1647   22.4398 H   0  0  0  0  0  0  0  0  0  0  0  0
    8.5550    4.7874   23.8573 H   0  0  0  0  0  0  0  0  0  0  0  0
    9.4345    2.7179   24.1723 H   0  0  0  0  0  0  0  0  0  0  0  0
    9.3248    1.0575   22.1944 C   0  0  0  0  0  0  0  0  0  0  0  0
   10.6442    1.6989   22.2169 C   0  0  0  0  0  0  0  0  0  0  0  0
   11.8673    1.2690   22.6415 C   0  0  0  0  0  0  0  0  0  0  0  0
   12.7376    2.4061   22.5433 C   0  0  0  0  0  0  0  0  0  0  0  0
   14.0624    2.7316   22.7801 C   0  0  0  0  0  0  0  0  0  0  0  0
   14.5318    3.9771   22.6508 N   0  0  0  0  0  0  0  0  0  0  0  0
   13.6770    4.9097   22.2118 C   0  0  0  0  0  0  0  0  0  0  0  0
   12.4033    4.7350   21.8649 N   0  0  0  0  0  0  0  0  0  0  0  0
   11.9942    3.4903   22.0577 C   0  0  0  0  0  0  0  0  0  0  0  0
   10.7436    3.0346   21.8480 N   0  0  0  0  0  0  0  0  0  0  0  0
   10.0524    3.6617   21.4704 H   0  0  0  0  0  0  0  0  0  0  0  0
   14.0518    5.9264   22.1278 H   0  0  0  0  0  0  0  0  0  0  0  0
   14.7494    1.9294   23.0475 H   0  0  0  0  0  0  0  0  0  0  0  0
   12.1024    0.2798   23.0195 H   0  0  0  0  0  0  0  0  0  0  0  0
    8.9072    0.0551   21.4461 N   0  0  0  0  0  0  0  0  0  0  0  0
    7.3047   -1.7683   20.6353 H   0  0  0  0  0  0  0  0  0  0  0  0
    5.8883   -1.2531   21.5779 H   0  0  0  0  0  0  0  0  0  0  0  0
    5.0127    0.6298   19.8251 C   0  0  0  0  0  0  0  0  0  0  0  0
    4.5022    0.6906   20.7895 H   0  0  0  0  0  0  0  0  0  0  0  0
    7.5708   -0.9690   18.2640 H   0  0  0  0  0  0  0  0  0  0  0  0
    5.1048    1.9419   16.6947 H   0  0  0  0  0  0  0  0  0  0  0  0
    3.8114    2.1281   18.8161 H   0  0  0  0  0  0  0  0  0  0  0  0
  1  2  2  0
  2  3  1  0
  3  4  2  0
  4  5  1  0
  5  6  1  0
  6  7  1  0
  7  8  2  0
  8  9  1  0
  9 10  1  0
 10 11  1  0
 11 12  1  0
 12 13  1  0
 13 14  2  0
 14 15  1  0
 15 16  2  0
 16 17  1  0
 17 18  2  0
 17 19  1  0
 16 20  1  0
 15 21  1  0
 14 22  1  0
 12 23  1  0
 12 24  1  0
 11 25  1  0
 11 26  1  0
 10 27  1  0
  9 28  1  0
 28 29  1  0
 29 30  2  0
 30 31  1  0
 31 32  2  0
 32 33  1  0
 33 34  2  0
 34 35  1  0
 35 36  2  0
 36 37  1  0
 37 38  1  0
 34 39  1  0
 32 40  1  0
 30 41  1  0
 28 42  2  0
  6 43  1  0
  6 44  1  0
  5 45  2  0
 45 46  1  0
  4 47  1  0
  2 48  1  0
  1 49  1  0
 45  1  1  0
 42  7  1  0
 18 10  1  0
 37 29  1  0
 18 13  1  0
 36 31  1  0
M  END
>  <cnnaffinity>  (1) 
-6.53795

>  <filename>  (1) 
c1cncc(Cc2nc(-c3cc4cncnc4[nH]3)n(C3CCc4ccccc43)n2)c1

$$$$
