
     RDKit          3D

 31 33  0  0  0  0  0  0  0  0999 V2000
    4.9501    1.8092   17.0090 H   0  0  0  0  0  0  0  0  0  0  0  0
    5.4208    1.2835   17.8389 C   0  0  0  0  0  0  0  0  0  0  0  0
    6.5802    0.6624   17.5655 N   0  0  0  0  0  0  0  0  0  0  0  0
    7.1943    0.0317   18.5712 C   0  0  0  0  0  0  0  0  0  0  0  0
    8.1461   -0.4461   18.3585 H   0  0  0  0  0  0  0  0  0  0  0  0
    6.6768   -0.0406   19.8770 C   0  0  0  0  0  0  0  0  0  0  0  0
    7.4954   -0.6337   20.8470 O   0  0  0  0  0  0  0  0  0  0  0  0
    7.0278   -1.5379   21.7236 C   0  0  0  0  0  0  0  0  0  0  0  0
    5.8805   -2.1576   21.7540 N   0  0  0  0  0  0  0  0  0  0  0  0
    5.9499   -2.9816   22.8352 N   0  0  0  0  0  0  0  0  0  0  0  0
    7.0781   -2.8841   23.4326 N   0  0  0  0  0  0  0  0  0  0  0  0
    7.8054   -1.9708   22.7614 N   0  0  0  0  0  0  0  0  0  0  0  0
    9.1783   -1.7625   23.0777 N   0  0  0  0  0  0  0  0  0  0  0  0
    9.3939   -0.7713   22.9262 H   0  0  0  0  0  0  0  0  0  0  0  0
    9.5729   -2.1212   24.4590 C   0  0  0  0  0  0  0  0  0  0  0  0
    9.2541   -3.1480   24.6768 H   0  0  0  0  0  0  0  0  0  0  0  0
   10.6662   -2.1235   24.4772 H   0  0  0  0  0  0  0  0  0  0  0  0
    9.0549   -1.1713   25.5259 C   0  0  0  0  0  0  0  0  0  0  0  0
    8.1424   -1.6107   26.4969 C   0  0  0  0  0  0  0  0  0  0  0  0
    7.8225   -2.6478   26.5132 H   0  0  0  0  0  0  0  0  0  0  0  0
    7.6266   -0.7046   27.4275 C   0  0  0  0  0  0  0  0  0  0  0  0
    6.9092   -1.0413   28.1767 H   0  0  0  0  0  0  0  0  0  0  0  0
    7.9662    0.5887   27.4668 N   0  0  0  0  0  0  0  0  0  0  0  0
    8.8781    1.0026   26.5761 C   0  0  0  0  0  0  0  0  0  0  0  0
    9.1689    2.0520   26.6479 H   0  0  0  0  0  0  0  0  0  0  0  0
    9.4563    0.1741   25.6104 C   0  0  0  0  0  0  0  0  0  0  0  0
   10.2298    0.5843   24.9667 H   0  0  0  0  0  0  0  0  0  0  0  0
    5.4613    0.5816   20.1604 C   0  0  0  0  0  0  0  0  0  0  0  0
    5.0310    0.5382   21.1621 H   0  0  0  0  0  0  0  0  0  0  0  0
    4.8334    1.2658   19.1071 C   0  0  0  0  0  0  0  0  0  0  0  0
    3.9063    1.8028   19.2626 H   0  0  0  0  0  0  0  0  0  0  0  0
  1  2  1  0
  2  3  2  0
  3  4  1  0
  4  5  1  0
  4  6  2  0
  6  7  1  0
  7  8  1  0
  8  9  2  0
  9 10  1  0
 10 11  2  0
 11 12  1  0
 12 13  1  0
 13 14  1  0
 13 15  1  0
 15 16  1  0
 15 17  1  0
 15 18  1  0
 18 19  2  0
 19 20  1  0
 19 21  1  0
 21 22  1  0
 21 23  2  0
 23 24  1  0
 24 25  1  0
 24 26  2  0
 26 27  1  0
  6 28  1  0
 28 29  1  0
 28 30  2  0
 30 31  1  0
 30  2  1  0
 12  8  1  0
 26 18  1  0
M  END
>  <cnnaffinity>  (1) 
-4.66671

>  <filename>  (1) 
c1cncc(Oc2nnnn2NCc2ccncc2)c1

$$$$
