
     RDKit          3D

 34 37  0  0  0  0  0  0  0  0999 V2000
    4.9314    1.8293   16.9771 H   0  0  0  0  0  0  0  0  0  0  0  0
    5.4052    1.3087   17.8074 C   0  0  0  0  0  0  0  0  0  0  0  0
    6.5634    0.6838   17.5392 N   0  0  0  0  0  0  0  0  0  0  0  0
    7.1731    0.0369   18.5484 C   0  0  0  0  0  0  0  0  0  0  0  0
    8.0866   -0.4996   18.2909 H   0  0  0  0  0  0  0  0  0  0  0  0
    6.6739   -0.0221   19.8787 C   0  0  0  0  0  0  0  0  0  0  0  0
    7.3130   -0.6823   20.9509 N   0  0  0  0  0  0  0  0  0  0  0  0
    6.7290   -1.2638   21.5406 H   0  0  0  0  0  0  0  0  0  0  0  0
    8.6661   -0.5973   21.3056 C   0  0  0  0  0  0  0  0  0  0  0  0
    9.6664    0.2418   20.7538 C   0  0  0  0  0  0  0  0  0  0  0  0
    9.5085    1.0113   20.0177 H   0  0  0  0  0  0  0  0  0  0  0  0
   10.8719   -0.0098   21.2470 N   0  0  0  0  0  0  0  0  0  0  0  0
   10.6548   -1.0014   22.1221 N   0  0  0  0  0  0  0  0  0  0  0  0
   11.4466   -1.3893   22.6147 H   0  0  0  0  0  0  0  0  0  0  0  0
    9.3432   -1.3683   22.2479 C   0  0  0  0  0  0  0  0  0  0  0  0
    8.8942   -2.4139   23.1854 C   0  0  0  0  0  0  0  0  0  0  0  0
    9.7105   -3.5629   23.3883 C   0  0  0  0  0  0  0  0  0  0  0  0
   10.6813   -3.5908   22.9008 H   0  0  0  0  0  0  0  0  0  0  0  0
    9.2910   -4.6369   24.1574 C   0  0  0  0  0  0  0  0  0  0  0  0
    9.9418   -5.4849   24.3415 H   0  0  0  0  0  0  0  0  0  0  0  0
    8.0255   -4.5371   24.7720 C   0  0  0  0  0  0  0  0  0  0  0  0
    7.2512   -3.3518   24.7057 C   0  0  0  0  0  0  0  0  0  0  0  0
    7.6893   -2.2963   23.8871 C   0  0  0  0  0  0  0  0  0  0  0  0
    7.1113   -1.3794   23.8191 H   0  0  0  0  0  0  0  0  0  0  0  0
    6.1224   -3.5403   25.5761 C   0  0  0  0  0  0  0  0  0  0  0  0
    5.3669   -2.8021   25.8233 H   0  0  0  0  0  0  0  0  0  0  0  0
    6.2216   -4.7996   26.0822 C   0  0  0  0  0  0  0  0  0  0  0  0
    5.5499   -5.3121   26.7585 H   0  0  0  0  0  0  0  0  0  0  0  0
    7.3593   -5.4147   25.5889 N   0  0  0  0  0  0  0  0  0  0  0  0
    7.6627   -6.3557   25.7683 H   0  0  0  0  0  0  0  0  0  0  0  0
    5.4430    0.6066   20.1151 C   0  0  0  0  0  0  0  0  0  0  0  0
    5.0106    0.5637   21.1138 H   0  0  0  0  0  0  0  0  0  0  0  0
    4.8069    1.2891   19.0719 C   0  0  0  0  0  0  0  0  0  0  0  0
    3.8638    1.8023   19.2304 H   0  0  0  0  0  0  0  0  0  0  0  0
  1  2  1  0
  2  3  2  0
  3  4  1  0
  4  5  1  0
  4  6  2  0
  6  7  1  0
  7  8  1  0
  7  9  1  0
  9 10  1  0
 10 11  1  0
 10 12  2  0
 12 13  1  0
 13 14  1  0
 13 15  1  0
 15 16  1  0
 16 17  2  0
 17 18  1  0
 17 19  1  0
 19 20  1  0
 19 21  2  0
 21 22  1  0
 22 23  2  0
 23 24  1  0
 22 25  1  0
 25 26  1  0
 25 27  2  0
 27 28  1  0
 27 29  1  0
 29 30  1  0
  6 31  1  0
 31 32  1  0
 31 33  2  0
 33 34  1  0
 33  2  1  0
 15  9  2  0
 23 16  1  0
 29 21  1  0
M  END
>  <cnnaffinity>  (1) 
-5.69289

>  <filename>  (1) 
c1cncc(Nc2cn[nH]c2-c2ccc3[nH]ccc3c2)c1

$$$$
