
     RDKit          3D

 38 41  0  0  0  0  0  0  0  0999 V2000
    4.7928    1.3147   19.0831 C   0  0  0  0  0  0  0  0  0  0  0  0
    5.3898    1.3060   17.8181 C   0  0  0  0  0  0  0  0  0  0  0  0
    6.5508    0.6882   17.5579 N   0  0  0  0  0  0  0  0  0  0  0  0
    7.1491    0.0569   18.5771 C   0  0  0  0  0  0  0  0  0  0  0  0
    6.6350   -0.0204   19.8831 C   0  0  0  0  0  0  0  0  0  0  0  0
    7.4078   -0.6854   20.9949 C   0  0  0  0  0  0  0  0  0  0  0  0
    8.3642    0.2964   21.6875 C   0  0  0  0  0  0  0  0  0  0  0  0
    9.1686   -0.3635   22.8254 C   0  0  0  0  0  0  0  0  0  0  0  0
    8.3005   -0.7384   23.9743 C   0  0  0  0  0  0  0  0  0  0  0  0
    7.7864    0.0606   24.8566 N   0  0  0  0  0  0  0  0  0  0  0  0
    7.0329   -0.7989   25.6229 C   0  0  0  0  0  0  0  0  0  0  0  0
    6.2464   -0.3140   26.7878 C   0  0  0  0  0  0  0  0  0  0  0  0
    6.1923    1.0411   27.1751 C   0  0  0  0  0  0  0  0  0  0  0  0
    5.4309    1.4340   28.2913 C   0  0  0  0  0  0  0  0  0  0  0  0
    4.7128    0.5980   29.0592 N   0  0  0  0  0  0  0  0  0  0  0  0
    4.7824   -0.6752   28.6769 C   0  0  0  0  0  0  0  0  0  0  0  0
    5.5043   -1.2167   27.5800 C   0  0  0  0  0  0  0  0  0  0  0  0
    5.2554   -2.6325   27.5853 C   0  0  0  0  0  0  0  0  0  0  0  0
    4.4280   -2.8898   28.6385 C   0  0  0  0  0  0  0  0  0  0  0  0
    4.1445   -1.7095   29.2896 N   0  0  0  0  0  0  0  0  0  0  0  0
    3.5868   -1.5356   30.1053 H   0  0  0  0  0  0  0  0  0  0  0  0
    4.0123   -3.8304   28.9845 H   0  0  0  0  0  0  0  0  0  0  0  0
    5.6698   -3.3236   26.8650 H   0  0  0  0  0  0  0  0  0  0  0  0
    5.4079    2.4897   28.5682 H   0  0  0  0  0  0  0  0  0  0  0  0
    6.7374    1.7943   26.6186 H   0  0  0  0  0  0  0  0  0  0  0  0
    7.0872   -2.0512   25.2286 N   0  0  0  0  0  0  0  0  0  0  0  0
    7.9301   -2.0078   24.1369 O   0  0  0  0  0  0  0  0  0  0  0  0
    9.6901   -1.2576   22.4712 H   0  0  0  0  0  0  0  0  0  0  0  0
    9.9119    0.3369   23.2165 H   0  0  0  0  0  0  0  0  0  0  0  0
    7.7900    1.1420   22.0902 H   0  0  0  0  0  0  0  0  0  0  0  0
    9.0503    0.7234   20.9460 H   0  0  0  0  0  0  0  0  0  0  0  0
    7.9884   -1.5337   20.6053 H   0  0  0  0  0  0  0  0  0  0  0  0
    6.7117   -1.1091   21.7306 H   0  0  0  0  0  0  0  0  0  0  0  0
    5.4255    0.6430   20.1322 C   0  0  0  0  0  0  0  0  0  0  0  0
    5.0003    0.6417   21.1391 H   0  0  0  0  0  0  0  0  0  0  0  0
    8.1030   -0.4138   18.3377 H   0  0  0  0  0  0  0  0  0  0  0  0
    4.9218    1.8096   16.9738 H   0  0  0  0  0  0  0  0  0  0  0  0
    3.8648    1.8519   19.2356 H   0  0  0  0  0  0  0  0  0  0  0  0
  1  2  2  0
  2  3  1  0
  3  4  2  0
  4  5  1  0
  5  6  1  0
  6  7  1  0
  7  8  1  0
  8  9  1  0
  9 10  2  0
 10 11  1  0
 11 12  1  0
 12 13  2  0
 13 14  1  0
 14 15  2  0
 15 16  1  0
 16 17  2  0
 17 18  1  0
 18 19  2  0
 19 20  1  0
 20 21  1  0
 19 22  1  0
 18 23  1  0
 14 24  1  0
 13 25  1  0
 11 26  2  0
 26 27  1  0
  8 28  1  0
  8 29  1  0
  7 30  1  0
  7 31  1  0
  6 32  1  0
  6 33  1  0
  5 34  2  0
 34 35  1  0
  4 36  1  0
  2 37  1  0
  1 38  1  0
 34  1  1  0
 27  9  1  0
 17 12  1  0
 20 16  1  0
M  END
>  <cnnaffinity>  (1) 
-5.48362

>  <filename>  (1) 
c1cncc(CCCc2nc(-c3ccnc4[nH]ccc34)no2)c1

$$$$
