
     RDKit          3D

 34 38  0  0  0  0  0  0  0  0999 V2000
    4.9488    1.7990   16.9845 H   0  0  0  0  0  0  0  0  0  0  0  0
    5.4107    1.2882   17.8250 C   0  0  0  0  0  0  0  0  0  0  0  0
    6.5669    0.6567   17.5672 N   0  0  0  0  0  0  0  0  0  0  0  0
    7.1650    0.0343   18.5849 C   0  0  0  0  0  0  0  0  0  0  0  0
    8.1053   -0.4717   18.3629 H   0  0  0  0  0  0  0  0  0  0  0  0
    6.6470    0.0150   19.8924 C   0  0  0  0  0  0  0  0  0  0  0  0
    7.4092   -0.6918   20.9241 C   0  0  0  0  0  0  0  0  0  0  0  0
    8.3112   -1.6230   20.7213 N   0  0  0  0  0  0  0  0  0  0  0  0
    8.8246   -2.0356   21.9279 N   0  0  0  0  0  0  0  0  0  0  0  0
    8.2207   -1.3137   22.8389 C   0  0  0  0  0  0  0  0  0  0  0  0
    8.2800   -1.0724   24.5389 S   0  0  0  0  0  0  0  0  0  0  0  0
    7.0117    0.1712   24.3312 C   0  0  0  0  0  0  0  0  0  0  0  0
    6.3726    0.9167   25.4285 C   0  0  0  0  0  0  0  0  0  0  0  0
    5.1718    1.5975   25.2432 C   0  0  0  0  0  0  0  0  0  0  0  0
    4.6577    1.5203   24.2864 H   0  0  0  0  0  0  0  0  0  0  0  0
    4.5903    2.3653   26.2809 C   0  0  0  0  0  0  0  0  0  0  0  0
    3.6146    2.8182   26.1097 H   0  0  0  0  0  0  0  0  0  0  0  0
    5.2258    2.5108   27.4985 C   0  0  0  0  0  0  0  0  0  0  0  0
    4.7766    3.1234   28.2813 H   0  0  0  0  0  0  0  0  0  0  0  0
    6.4532    1.8325   27.7424 C   0  0  0  0  0  0  0  0  0  0  0  0
    7.1787    1.9140   28.9730 C   0  0  0  0  0  0  0  0  0  0  0  0
    6.8527    2.6045   29.7477 H   0  0  0  0  0  0  0  0  0  0  0  0
    8.2361    1.0650   29.1755 C   0  0  0  0  0  0  0  0  0  0  0  0
    8.8378    1.0621   30.0811 H   0  0  0  0  0  0  0  0  0  0  0  0
    8.6105    0.1656   28.1317 C   0  0  0  0  0  0  0  0  0  0  0  0
    9.4225   -0.5362   28.3055 H   0  0  0  0  0  0  0  0  0  0  0  0
    8.0258    0.1033   26.9661 N   0  0  0  0  0  0  0  0  0  0  0  0
    6.9746    0.9448   26.7291 C   0  0  0  0  0  0  0  0  0  0  0  0
    6.6322    0.3683   23.1016 N   0  0  0  0  0  0  0  0  0  0  0  0
    7.3153   -0.4667   22.2810 N   0  0  0  0  0  0  0  0  0  0  0  0
    5.4313    0.6691   20.1474 C   0  0  0  0  0  0  0  0  0  0  0  0
    5.0036    0.6761   21.1501 H   0  0  0  0  0  0  0  0  0  0  0  0
    4.8035    1.3127   19.0848 C   0  0  0  0  0  0  0  0  0  0  0  0
    3.8668    1.8414   19.2202 H   0  0  0  0  0  0  0  0  0  0  0  0
  1  2  1  0
  2  3  2  0
  3  4  1  0
  4  5  1  0
  4  6  2  0
  6  7  1  0
  7  8  2  0
  8  9  1  0
  9 10  2  0
 10 11  1  0
 11 12  1  0
 12 13  1  0
 13 14  2  0
 14 15  1  0
 14 16  1  0
 16 17  1  0
 16 18  2  0
 18 19  1  0
 18 20  1  0
 20 21  2  0
 21 22  1  0
 21 23  1  0
 23 24  1  0
 23 25  2  0
 25 26  1  0
 25 27  1  0
 27 28  2  0
 12 29  2  0
 29 30  1  0
  6 31  1  0
 31 32  1  0
 31 33  2  0
 33 34  1  0
 33  2  1  0
 30  7  1  0
 30 10  1  0
 28 13  1  0
 28 20  1  0
M  END
>  <cnnaffinity>  (1) 
-5.45317

>  <filename>  (1) 
c1cncc(-c2nnc3sc(-c4cccc5cccnc45)nn23)c1

$$$$
