
     RDKit          3D

 49 54  0  0  0  0  0  0  0  0999 V2000
    4.7773    1.3347   18.9940 C   0  0  0  0  0  0  0  0  0  0  0  0
    5.3984    1.3090   17.7422 C   0  0  0  0  0  0  0  0  0  0  0  0
    6.5258    0.6271   17.4876 N   0  0  0  0  0  0  0  0  0  0  0  0
    7.0758   -0.0473   18.5051 C   0  0  0  0  0  0  0  0  0  0  0  0
    6.5440   -0.0878   19.8058 C   0  0  0  0  0  0  0  0  0  0  0  0
    7.2719   -0.7578   20.9651 C   0  0  0  0  0  0  0  0  0  0  0  0
    8.1357    0.2106   21.7184 C   0  0  0  0  0  0  0  0  0  0  0  0
    7.6676    1.0628   22.6092 N   0  0  0  0  0  0  0  0  0  0  0  0
    8.7646    1.7956   22.9352 N   0  0  0  0  0  0  0  0  0  0  0  0
    8.6770    2.9816   23.8141 C   0  0  0  0  0  0  0  0  0  0  0  0
    7.7382    4.1093   23.2937 C   0  0  0  0  0  0  0  0  0  0  0  0
    6.4856    4.1242   24.2116 C   0  0  0  0  0  0  0  0  0  0  0  0
    6.8837    3.2678   25.3970 C   0  0  0  0  0  0  0  0  0  0  0  0
    6.1779    3.0227   26.5817 C   0  0  0  0  0  0  0  0  0  0  0  0
    6.7262    2.1519   27.5337 C   0  0  0  0  0  0  0  0  0  0  0  0
    7.9689    1.5449   27.3127 C   0  0  0  0  0  0  0  0  0  0  0  0
    8.6755    1.7961   26.1316 C   0  0  0  0  0  0  0  0  0  0  0  0
    8.1169    2.6480   25.1776 C   0  0  0  0  0  0  0  0  0  0  0  0
    9.6454    1.3324   25.9647 H   0  0  0  0  0  0  0  0  0  0  0  0
    8.3894    0.8765   28.0606 H   0  0  0  0  0  0  0  0  0  0  0  0
    6.1821    1.9407   28.4512 H   0  0  0  0  0  0  0  0  0  0  0  0
    5.2134    3.4930   26.7643 H   0  0  0  0  0  0  0  0  0  0  0  0
    5.6099    3.6976   23.7041 H   0  0  0  0  0  0  0  0  0  0  0  0
    6.1996    5.1364   24.5228 H   0  0  0  0  0  0  0  0  0  0  0  0
    8.2721    5.0637   23.3625 H   0  0  0  0  0  0  0  0  0  0  0  0
    7.4891    3.9522   22.2395 H   0  0  0  0  0  0  0  0  0  0  0  0
    9.7054    3.3433   23.8969 H   0  0  0  0  0  0  0  0  0  0  0  0
    9.8336    1.3229   22.2342 C   0  0  0  0  0  0  0  0  0  0  0  0
   11.1637    1.9725   22.2908 C   0  0  0  0  0  0  0  0  0  0  0  0
   12.0564    1.7467   23.3788 C   0  0  0  0  0  0  0  0  0  0  0  0
   13.2362    2.4625   23.4952 C   0  0  0  0  0  0  0  0  0  0  0  0
   13.4727    3.4633   22.5354 C   0  0  0  0  0  0  0  0  0  0  0  0
   14.4422    4.3894   22.3759 N   0  0  0  0  0  0  0  0  0  0  0  0
   14.2029    5.1677   21.2992 N   0  0  0  0  0  0  0  0  0  0  0  0
   13.1193    4.7673   20.7390 N   0  0  0  0  0  0  0  0  0  0  0  0
   12.6156    3.6992   21.4543 C   0  0  0  0  0  0  0  0  0  0  0  0
   11.4699    2.8943   21.2970 C   0  0  0  0  0  0  0  0  0  0  0  0
   10.8277    2.9519   20.4324 H   0  0  0  0  0  0  0  0  0  0  0  0
   15.2239    4.5703   22.9784 H   0  0  0  0  0  0  0  0  0  0  0  0
   13.9553    2.2512   24.2650 H   0  0  0  0  0  0  0  0  0  0  0  0
   11.7998    1.0049   24.1344 H   0  0  0  0  0  0  0  0  0  0  0  0
    9.4600    0.3366   21.4448 N   0  0  0  0  0  0  0  0  0  0  0  0
    7.9279   -1.5634   20.6214 H   0  0  0  0  0  0  0  0  0  0  0  0
    6.5567   -1.1898   21.6717 H   0  0  0  0  0  0  0  0  0  0  0  0
    5.3650    0.6283   20.0459 C   0  0  0  0  0  0  0  0  0  0  0  0
    4.9362    0.6391   21.0501 H   0  0  0  0  0  0  0  0  0  0  0  0
    7.9971   -0.5857   18.2750 H   0  0  0  0  0  0  0  0  0  0  0  0
    4.9717    1.8513   16.9007 H   0  0  0  0  0  0  0  0  0  0  0  0
    3.8695    1.9111   19.1318 H   0  0  0  0  0  0  0  0  0  0  0  0
  1  2  2  0
  2  3  1  0
  3  4  2  0
  4  5  1  0
  5  6  1  0
  6  7  1  0
  7  8  2  0
  8  9  1  0
  9 10  1  0
 10 11  1  0
 11 12  1  0
 12 13  1  0
 13 14  2  0
 14 15  1  0
 15 16  2  0
 16 17  1  0
 17 18  2  0
 17 19  1  0
 16 20  1  0
 15 21  1  0
 14 22  1  0
 12 23  1  0
 12 24  1  0
 11 25  1  0
 11 26  1  0
 10 27  1  0
  9 28  1  0
 28 29  1  0
 29 30  2  0
 30 31  1  0
 31 32  2  0
 32 33  1  0
 33 34  1  0
 34 35  2  0
 35 36  1  0
 36 37  2  0
 37 38  1  0
 33 39  1  0
 31 40  1  0
 30 41  1  0
 28 42  2  0
  6 43  1  0
  6 44  1  0
  5 45  2  0
 45 46  1  0
  4 47  1  0
  2 48  1  0
  1 49  1  0
 45  1  1  0
 42  7  1  0
 18 10  1  0
 37 29  1  0
 18 13  1  0
 36 32  1  0
M  END
>  <cnnaffinity>  (1) 
-6.73586

>  <filename>  (1) 
c1cncc(Cc2nc(-c3ccc4[nH]nnc4c3)n(C3CCc4ccccc43)n2)c1

$$$$
