
     RDKit          3D

 48 53  0  0  0  0  0  0  0  0999 V2000
    4.8313    1.3217   19.0036 C   0  0  0  0  0  0  0  0  0  0  0  0
    5.4076    1.2805   17.7308 C   0  0  0  0  0  0  0  0  0  0  0  0
    6.5398    0.6169   17.4499 N   0  0  0  0  0  0  0  0  0  0  0  0
    7.1419   -0.0191   18.4622 C   0  0  0  0  0  0  0  0  0  0  0  0
    6.6651   -0.0352   19.7842 C   0  0  0  0  0  0  0  0  0  0  0  0
    7.4516   -0.6758   20.9228 C   0  0  0  0  0  0  0  0  0  0  0  0
    8.3466    0.3015   21.6334 C   0  0  0  0  0  0  0  0  0  0  0  0
    9.6205    0.4659   21.3205 N   0  0  0  0  0  0  0  0  0  0  0  0
    9.9974    1.4832   22.1436 N   0  0  0  0  0  0  0  0  0  0  0  0
   11.3040    2.0296   22.1857 C   0  0  0  0  0  0  0  0  0  0  0  0
   11.5283    3.4044   22.2666 C   0  0  0  0  0  0  0  0  0  0  0  0
   12.8173    3.9187   22.5139 C   0  0  0  0  0  0  0  0  0  0  0  0
   13.9022    3.0683   22.6758 C   0  0  0  0  0  0  0  0  0  0  0  0
   13.7004    1.6720   22.5925 C   0  0  0  0  0  0  0  0  0  0  0  0
   12.4162    1.1808   22.2926 C   0  0  0  0  0  0  0  0  0  0  0  0
   12.5694   -0.1828   22.1983 N   0  0  0  0  0  0  0  0  0  0  0  0
   13.8850   -0.4511   22.4237 C   0  0  0  0  0  0  0  0  0  0  0  0
   14.5982    0.6136   22.6690 N   0  0  0  0  0  0  0  0  0  0  0  0
   14.2768   -1.4617   22.4074 H   0  0  0  0  0  0  0  0  0  0  0  0
   11.8406   -0.8113   21.8942 H   0  0  0  0  0  0  0  0  0  0  0  0
   14.8938    3.4915   22.7489 H   0  0  0  0  0  0  0  0  0  0  0  0
   12.9623    4.9941   22.5760 H   0  0  0  0  0  0  0  0  0  0  0  0
   10.7020    4.0985   22.1744 H   0  0  0  0  0  0  0  0  0  0  0  0
    8.9518    1.8298   22.9454 C   0  0  0  0  0  0  0  0  0  0  0  0
    9.0179    2.8645   24.0396 C   0  0  0  0  0  0  0  0  0  0  0  0
    8.1933    4.1496   23.7304 C   0  0  0  0  0  0  0  0  0  0  0  0
    7.2097    4.3006   24.7640 O   0  0  0  0  0  0  0  0  0  0  0  0
    7.3680    3.2984   25.6623 C   0  0  0  0  0  0  0  0  0  0  0  0
    6.5662    3.1147   26.7847 C   0  0  0  0  0  0  0  0  0  0  0  0
    6.8561    2.0248   27.6170 C   0  0  0  0  0  0  0  0  0  0  0  0
    7.9225    1.1584   27.3272 C   0  0  0  0  0  0  0  0  0  0  0  0
    8.7132    1.3623   26.1885 C   0  0  0  0  0  0  0  0  0  0  0  0
    8.4114    2.4359   25.3558 C   0  0  0  0  0  0  0  0  0  0  0  0
    9.5430    0.7000   25.9544 H   0  0  0  0  0  0  0  0  0  0  0  0
    8.1406    0.3247   27.9886 H   0  0  0  0  0  0  0  0  0  0  0  0
    6.2439    1.8456   28.4978 H   0  0  0  0  0  0  0  0  0  0  0  0
    5.7512    3.8028   26.9821 H   0  0  0  0  0  0  0  0  0  0  0  0
    7.6542    4.0963   22.7776 H   0  0  0  0  0  0  0  0  0  0  0  0
    8.8194    5.0504   23.7427 H   0  0  0  0  0  0  0  0  0  0  0  0
   10.0679    3.1267   24.2041 H   0  0  0  0  0  0  0  0  0  0  0  0
    7.8920    1.1125   22.6258 N   0  0  0  0  0  0  0  0  0  0  0  0
    6.7615   -1.0753   21.6743 H   0  0  0  0  0  0  0  0  0  0  0  0
    8.0686   -1.5068   20.5628 H   0  0  0  0  0  0  0  0  0  0  0  0
    5.4750    0.6567   20.0498 C   0  0  0  0  0  0  0  0  0  0  0  0
    5.0768    0.6825   21.0671 H   0  0  0  0  0  0  0  0  0  0  0  0
    8.0656   -0.5456   18.2155 H   0  0  0  0  0  0  0  0  0  0  0  0
    4.9473    1.8062   16.8967 H   0  0  0  0  0  0  0  0  0  0  0  0
    3.9162    1.8827   19.1619 H   0  0  0  0  0  0  0  0  0  0  0  0
  1  2  2  0
  2  3  1  0
  3  4  2  0
  4  5  1  0
  5  6  1  0
  6  7  1  0
  7  8  2  0
  8  9  1  0
  9 10  1  0
 10 11  2  0
 11 12  1  0
 12 13  2  0
 13 14  1  0
 14 15  2  0
 15 16  1  0
 16 17  1  0
 17 18  2  0
 17 19  1  0
 16 20  1  0
 13 21  1  0
 12 22  1  0
 11 23  1  0
  9 24  1  0
 24 25  1  0
 25 26  1  0
 26 27  1  0
 27 28  1  0
 28 29  2  0
 29 30  1  0
 30 31  2  0
 31 32  1  0
 32 33  2  0
 32 34  1  0
 31 35  1  0
 30 36  1  0
 29 37  1  0
 26 38  1  0
 26 39  1  0
 25 40  1  0
 24 41  2  0
  6 42  1  0
  6 43  1  0
  5 44  2  0
 44 45  1  0
  4 46  1  0
  2 47  1  0
  1 48  1  0
 44  1  1  0
 41  7  1  0
 15 10  1  0
 33 25  1  0
 18 14  1  0
 33 28  1  0
M  END
>  <cnnaffinity>  (1) 
-6.81142

>  <filename>  (1) 
c1cncc(Cc2nc(C3COc4ccccc43)n(-c3cccc4nc[nH]c34)n2)c1

$$$$
