
     RDKit          3D

 26 28  0  0  0  0  0  0  0  0999 V2000
    5.1330    1.9275   16.9853 H   0  0  0  0  0  0  0  0  0  0  0  0
    5.5044    1.3450   17.8260 C   0  0  0  0  0  0  0  0  0  0  0  0
    6.6562    0.6776   17.6328 N   0  0  0  0  0  0  0  0  0  0  0  0
    7.1707   -0.0157   18.6627 C   0  0  0  0  0  0  0  0  0  0  0  0
    8.1197   -0.5198   18.4739 H   0  0  0  0  0  0  0  0  0  0  0  0
    6.5397   -0.1252   19.9357 C   0  0  0  0  0  0  0  0  0  0  0  0
    6.9839   -0.8845   21.0452 N   0  0  0  0  0  0  0  0  0  0  0  0
    6.3804   -0.8548   21.8613 H   0  0  0  0  0  0  0  0  0  0  0  0
    8.5875   -1.4082   21.3630 S   0  0  0  0  0  0  0  0  0  0  0  0
    9.5563    0.0907   21.6356 C   0  0  0  0  0  0  0  0  0  0  0  0
   10.0359    0.8464   20.7130 N   0  0  0  0  0  0  0  0  0  0  0  0
   10.8002    1.7831   21.4048 C   0  0  0  0  0  0  0  0  0  0  0  0
   11.6038    2.8298   20.9480 C   0  0  0  0  0  0  0  0  0  0  0  0
   11.6767    3.0115   19.8836 H   0  0  0  0  0  0  0  0  0  0  0  0
   12.2146    3.6492   21.8999 C   0  0  0  0  0  0  0  0  0  0  0  0
   12.8388    4.4717   21.5622 H   0  0  0  0  0  0  0  0  0  0  0  0
   12.0577    3.4006   23.2810 C   0  0  0  0  0  0  0  0  0  0  0  0
   12.5078    4.0922   23.9910 H   0  0  0  0  0  0  0  0  0  0  0  0
   11.3285    2.2971   23.7470 C   0  0  0  0  0  0  0  0  0  0  0  0
   11.2040    2.0685   24.8018 H   0  0  0  0  0  0  0  0  0  0  0  0
   10.6986    1.5240   22.7731 C   0  0  0  0  0  0  0  0  0  0  0  0
    9.9018    0.4119   22.9191 O   0  0  0  0  0  0  0  0  0  0  0  0
    5.3227    0.5582   20.0904 C   0  0  0  0  0  0  0  0  0  0  0  0
    4.8046    0.4670   21.0448 H   0  0  0  0  0  0  0  0  0  0  0  0
    4.8080    1.3171   19.0394 C   0  0  0  0  0  0  0  0  0  0  0  0
    3.8925    1.8901   19.1569 H   0  0  0  0  0  0  0  0  0  0  0  0
  1  2  1  0
  2  3  2  0
  3  4  1  0
  4  5  1  0
  4  6  2  0
  6  7  1  0
  7  8  1  0
  7  9  1  0
  9 10  1  0
 10 11  2  0
 11 12  1  0
 12 13  2  0
 13 14  1  0
 13 15  1  0
 15 16  1  0
 15 17  2  0
 17 18  1  0
 17 19  1  0
 19 20  1  0
 19 21  2  0
 21 22  1  0
  6 23  1  0
 23 24  1  0
 23 25  2  0
 25 26  1  0
 25  2  1  0
 22 10  1  0
 21 12  1  0
M  END
>  <cnnaffinity>  (1) 
-5.16183

>  <filename>  (1) 
c1cncc(NSc2nc3ccccc3o2)c1

$$$$
