
     RDKit          3D

 36 38  0  0  0  0  0  0  0  0999 V2000
    4.9361    1.7965   16.9765 H   0  0  0  0  0  0  0  0  0  0  0  0
    5.3969    1.2943   17.8254 C   0  0  0  0  0  0  0  0  0  0  0  0
    6.5608    0.6729   17.5788 N   0  0  0  0  0  0  0  0  0  0  0  0
    7.1654    0.0611   18.6011 C   0  0  0  0  0  0  0  0  0  0  0  0
    8.1183   -0.4153   18.3835 H   0  0  0  0  0  0  0  0  0  0  0  0
    6.6394    0.0131   19.8996 C   0  0  0  0  0  0  0  0  0  0  0  0
    7.4064   -0.6947   20.9157 C   0  0  0  0  0  0  0  0  0  0  0  0
    8.6458   -1.1137   20.8011 N   0  0  0  0  0  0  0  0  0  0  0  0
    8.9437   -1.7346   21.9822 C   0  0  0  0  0  0  0  0  0  0  0  0
    9.9417   -2.1354   22.1540 H   0  0  0  0  0  0  0  0  0  0  0  0
    7.8689   -1.7188   22.8321 C   0  0  0  0  0  0  0  0  0  0  0  0
    7.6889   -2.3892   24.1556 C   0  0  0  0  0  0  0  0  0  0  0  0
    8.5470   -2.1762   24.8041 H   0  0  0  0  0  0  0  0  0  0  0  0
    6.8101   -1.9967   24.6911 H   0  0  0  0  0  0  0  0  0  0  0  0
    7.5640   -3.8428   24.0634 N   0  0  0  0  0  0  0  0  0  0  0  0
    8.3486   -4.1925   23.5131 H   0  0  0  0  0  0  0  0  0  0  0  0
    6.3343   -4.3260   23.4272 C   0  0  0  0  0  0  0  0  0  0  0  0
    5.4994   -3.6939   23.7832 H   0  0  0  0  0  0  0  0  0  0  0  0
    6.0696   -5.7705   23.8598 C   0  0  0  0  0  0  0  0  0  0  0  0
    5.6156   -5.8032   24.8578 H   0  0  0  0  0  0  0  0  0  0  0  0
    7.0466   -6.2671   23.9289 H   0  0  0  0  0  0  0  0  0  0  0  0
    5.2035   -6.3927   22.7531 C   0  0  0  0  0  0  0  0  0  0  0  0
    5.2759   -7.4872   22.7327 H   0  0  0  0  0  0  0  0  0  0  0  0
    4.1417   -6.1615   22.9207 H   0  0  0  0  0  0  0  0  0  0  0  0
    5.7123   -5.7295   21.4507 C   0  0  0  0  0  0  0  0  0  0  0  0
    6.4787   -6.3503   20.9720 H   0  0  0  0  0  0  0  0  0  0  0  0
    4.9131   -5.6238   20.7093 H   0  0  0  0  0  0  0  0  0  0  0  0
    6.3117   -4.3560   21.8702 C   0  0  0  0  0  0  0  0  0  0  0  0
    7.3217   -4.1940   21.4654 H   0  0  0  0  0  0  0  0  0  0  0  0
    5.7127   -3.5246   21.4911 H   0  0  0  0  0  0  0  0  0  0  0  0
    6.8912   -1.0246   22.1328 N   0  0  0  0  0  0  0  0  0  0  0  0
    5.9177   -0.9205   22.3703 H   0  0  0  0  0  0  0  0  0  0  0  0
    5.4177    0.6624   20.1453 C   0  0  0  0  0  0  0  0  0  0  0  0
    4.9680    0.6819   21.1405 H   0  0  0  0  0  0  0  0  0  0  0  0
    4.7908    1.3161   19.0887 C   0  0  0  0  0  0  0  0  0  0  0  0
    3.8592    1.8527   19.2301 H   0  0  0  0  0  0  0  0  0  0  0  0
  1  2  1  0
  2  3  2  0
  3  4  1  0
  4  5  1  0
  4  6  2  0
  6  7  1  0
  7  8  2  0
  8  9  1  0
  9 10  1  0
  9 11  2  0
 11 12  1  0
 12 13  1  0
 12 14  1  0
 12 15  1  0
 15 16  1  0
 15 17  1  0
 17 18  1  0
 17 19  1  0
 19 20  1  0
 19 21  1  0
 19 22  1  0
 22 23  1  0
 22 24  1  0
 22 25  1  0
 25 26  1  0
 25 27  1  0
 25 28  1  0
 28 29  1  0
 28 30  1  0
 11 31  1  0
 31 32  1  0
  6 33  1  0
 33 34  1  0
 33 35  2  0
 35 36  1  0
 35  2  1  0
 31  7  1  0
 28 17  1  0
M  END
>  <cnnaffinity>  (1) 
-5.29112

>  <filename>  (1) 
c1cncc(-c2ncc(CNC3CCCC3)[nH]2)c1

$$$$
