
     RDKit          3D

 43 47  0  0  0  0  0  0  0  0999 V2000
    4.6955    1.4574   18.8810 C   0  0  0  0  0  0  0  0  0  0  0  0
    5.3974    1.3770   17.6712 C   0  0  0  0  0  0  0  0  0  0  0  0
    6.5323    0.6780   17.5226 N   0  0  0  0  0  0  0  0  0  0  0  0
    7.0103    0.0555   18.6013 C   0  0  0  0  0  0  0  0  0  0  0  0
    6.3968    0.0858   19.8640 C   0  0  0  0  0  0  0  0  0  0  0  0
    7.1024   -0.5762   20.9660 C   0  0  0  0  0  0  0  0  0  0  0  0
    8.2794   -1.1415   20.7739 N   0  0  0  0  0  0  0  0  0  0  0  0
    8.6207   -1.5669   22.0059 N   0  0  0  0  0  0  0  0  0  0  0  0
    9.8324   -2.3127   22.1888 C   0  0  0  0  0  0  0  0  0  0  0  0
   10.7252   -2.0764   23.3679 C   0  0  0  0  0  0  0  0  0  0  0  0
   11.1551   -1.6288   22.0000 C   0  0  0  0  0  0  0  0  0  0  0  0
   11.0980   -0.5660   21.7925 H   0  0  0  0  0  0  0  0  0  0  0  0
   11.9621   -2.1514   21.4885 H   0  0  0  0  0  0  0  0  0  0  0  0
   10.4691   -1.2961   24.0826 H   0  0  0  0  0  0  0  0  0  0  0  0
   11.1856   -2.9593   23.8132 H   0  0  0  0  0  0  0  0  0  0  0  0
    9.7130   -3.3127   21.8087 H   0  0  0  0  0  0  0  0  0  0  0  0
    7.6073   -1.3206   22.8696 C   0  0  0  0  0  0  0  0  0  0  0  0
    7.5897   -1.8702   24.2522 C   0  0  0  0  0  0  0  0  0  0  0  0
    7.0664   -3.3135   24.3561 C   0  0  0  0  0  0  0  0  0  0  0  0
    5.6266   -3.4518   23.8705 C   0  0  0  0  0  0  0  0  0  0  0  0
    5.0155   -5.1436   24.0626 S   0  0  0  0  0  0  0  0  0  0  0  0
    5.5573   -5.4436   25.7283 C   0  0  0  0  0  0  0  0  0  0  0  0
    4.9559   -6.4799   26.4591 C   0  0  0  0  0  0  0  0  0  0  0  0
    5.3551   -6.7688   27.7658 C   0  0  0  0  0  0  0  0  0  0  0  0
    6.3710   -6.0067   28.3580 C   0  0  0  0  0  0  0  0  0  0  0  0
    6.9775   -4.9713   27.6457 C   0  0  0  0  0  0  0  0  0  0  0  0
    6.5863   -4.6848   26.3269 C   0  0  0  0  0  0  0  0  0  0  0  0
    7.2294   -3.6337   25.7390 O   0  0  0  0  0  0  0  0  0  0  0  0
    7.7619   -4.3586   28.0791 H   0  0  0  0  0  0  0  0  0  0  0  0
    6.6886   -6.2260   29.3741 H   0  0  0  0  0  0  0  0  0  0  0  0
    4.8840   -7.5842   28.3098 H   0  0  0  0  0  0  0  0  0  0  0  0
    4.1684   -7.0605   25.9878 H   0  0  0  0  0  0  0  0  0  0  0  0
    5.5808   -3.2189   22.8050 H   0  0  0  0  0  0  0  0  0  0  0  0
    4.9762   -2.7534   24.4012 H   0  0  0  0  0  0  0  0  0  0  0  0
    7.6926   -4.0040   23.7710 H   0  0  0  0  0  0  0  0  0  0  0  0
    8.6056   -1.9028   24.6402 H   0  0  0  0  0  0  0  0  0  0  0  0
    7.0069   -1.2178   24.9116 H   0  0  0  0  0  0  0  0  0  0  0  0
    6.6449   -0.6684   22.2416 N   0  0  0  0  0  0  0  0  0  0  0  0
    5.1940    0.7937   20.0037 C   0  0  0  0  0  0  0  0  0  0  0  0
    4.6796    0.8284   20.9670 H   0  0  0  0  0  0  0  0  0  0  0  0
    7.9403   -0.4926   18.4732 H   0  0  0  0  0  0  0  0  0  0  0  0
    5.0339    1.8820   16.7782 H   0  0  0  0  0  0  0  0  0  0  0  0
    3.7849    2.0457   18.9277 H   0  0  0  0  0  0  0  0  0  0  0  0
  1  2  2  0
  2  3  1  0
  3  4  2  0
  4  5  1  0
  5  6  1  0
  6  7  2  0
  7  8  1  0
  8  9  1  0
  9 10  1  0
 10 11  1  0
 11 12  1  0
 11 13  1  0
 10 14  1  0
 10 15  1  0
  9 16  1  0
  8 17  1  0
 17 18  1  0
 18 19  1  0
 19 20  1  0
 20 21  1  0
 21 22  1  0
 22 23  2  0
 23 24  1  0
 24 25  2  0
 25 26  1  0
 26 27  2  0
 27 28  1  0
 26 29  1  0
 25 30  1  0
 24 31  1  0
 23 32  1  0
 20 33  1  0
 20 34  1  0
 19 35  1  0
 18 36  1  0
 18 37  1  0
 17 38  2  0
  5 39  2  0
 39 40  1  0
  4 41  1  0
  2 42  1  0
  1 43  1  0
 39  1  1  0
 38  6  1  0
 11  9  1  0
 28 19  1  0
 27 22  1  0
M  END
>  <cnnaffinity>  (1) 
-5.9203

>  <filename>  (1) 
c1cncc(-c2nc(CC3CSc4ccccc4O3)n(C3CC3)n2)c1

$$$$
