
     RDKit          3D

 47 52  0  0  0  0  0  0  0  0999 V2000
    4.8055    1.2997   19.0386 C   0  0  0  0  0  0  0  0  0  0  0  0
    5.3931    1.3040   17.7707 C   0  0  0  0  0  0  0  0  0  0  0  0
    6.5318    0.6536   17.4816 N   0  0  0  0  0  0  0  0  0  0  0  0
    7.1266   -0.0121   18.4797 C   0  0  0  0  0  0  0  0  0  0  0  0
    6.6353   -0.0714   19.7946 C   0  0  0  0  0  0  0  0  0  0  0  0
    7.4068   -0.7237   20.9339 C   0  0  0  0  0  0  0  0  0  0  0  0
    8.2829    0.2613   21.6599 C   0  0  0  0  0  0  0  0  0  0  0  0
    9.5602    0.4269   21.3604 N   0  0  0  0  0  0  0  0  0  0  0  0
    9.9019    1.5136   22.1041 N   0  0  0  0  0  0  0  0  0  0  0  0
   11.2074    2.0748   22.1252 C   0  0  0  0  0  0  0  0  0  0  0  0
   11.4224    3.4532   22.1959 C   0  0  0  0  0  0  0  0  0  0  0  0
   12.7076    3.9823   22.4377 C   0  0  0  0  0  0  0  0  0  0  0  0
   13.7936    3.1437   22.6656 C   0  0  0  0  0  0  0  0  0  0  0  0
   13.6028    1.7458   22.5901 C   0  0  0  0  0  0  0  0  0  0  0  0
   12.3322    1.2434   22.2630 C   0  0  0  0  0  0  0  0  0  0  0  0
   12.4970   -0.1168   22.1674 N   0  0  0  0  0  0  0  0  0  0  0  0
   13.8177   -0.3709   22.4022 C   0  0  0  0  0  0  0  0  0  0  0  0
   14.5109    0.6940   22.6864 N   0  0  0  0  0  0  0  0  0  0  0  0
   14.2087   -1.3842   22.3879 H   0  0  0  0  0  0  0  0  0  0  0  0
   11.8010   -0.7075   21.7429 H   0  0  0  0  0  0  0  0  0  0  0  0
   14.7821    3.5529   22.8149 H   0  0  0  0  0  0  0  0  0  0  0  0
   12.8537    5.0579   22.4469 H   0  0  0  0  0  0  0  0  0  0  0  0
   10.5759    4.1255   22.1399 H   0  0  0  0  0  0  0  0  0  0  0  0
    8.8371    1.8798   22.8819 C   0  0  0  0  0  0  0  0  0  0  0  0
    8.9405    2.9304   23.9391 C   0  0  0  0  0  0  0  0  0  0  0  0
    8.3908    4.3109   23.6135 C   0  0  0  0  0  0  0  0  0  0  0  0
    6.9055    4.4986   23.5024 C   0  0  0  0  0  0  0  0  0  0  0  0
    7.7734    4.6578   22.2888 C   0  0  0  0  0  0  0  0  0  0  0  0
    7.9358    5.6574   21.8878 H   0  0  0  0  0  0  0  0  0  0  0  0
    7.7204    3.8635   21.5461 H   0  0  0  0  0  0  0  0  0  0  0  0
    6.4561    5.3764   23.9597 H   0  0  0  0  0  0  0  0  0  0  0  0
    6.3117    3.5905   23.5587 H   0  0  0  0  0  0  0  0  0  0  0  0
    8.9369    5.1190   24.1140 H   0  0  0  0  0  0  0  0  0  0  0  0
    8.8806    2.5354   25.4172 C   0  0  0  0  0  0  0  0  0  0  0  0
   10.1724    2.9370   24.7999 C   0  0  0  0  0  0  0  0  0  0  0  0
   10.5645    3.9389   24.9502 H   0  0  0  0  0  0  0  0  0  0  0  0
   10.9212    2.1679   24.6283 H   0  0  0  0  0  0  0  0  0  0  0  0
    8.7424    1.4879   25.6769 H   0  0  0  0  0  0  0  0  0  0  0  0
    8.3946    3.2322   26.0927 H   0  0  0  0  0  0  0  0  0  0  0  0
    7.7954    1.1179   22.5957 N   0  0  0  0  0  0  0  0  0  0  0  0
    8.0336   -1.5379   20.5594 H   0  0  0  0  0  0  0  0  0  0  0  0
    6.7030   -1.1453   21.6601 H   0  0  0  0  0  0  0  0  0  0  0  0
    5.4409    0.6039   20.0685 C   0  0  0  0  0  0  0  0  0  0  0  0
    5.0484    0.5957   21.0873 H   0  0  0  0  0  0  0  0  0  0  0  0
    8.0582   -0.5212   18.2261 H   0  0  0  0  0  0  0  0  0  0  0  0
    4.9314    1.8501   16.9492 H   0  0  0  0  0  0  0  0  0  0  0  0
    3.8870    1.8483   19.2124 H   0  0  0  0  0  0  0  0  0  0  0  0
  1  2  2  0
  2  3  1  0
  3  4  2  0
  4  5  1  0
  5  6  1  0
  6  7  1  0
  7  8  2  0
  8  9  1  0
  9 10  1  0
 10 11  2  0
 11 12  1  0
 12 13  2  0
 13 14  1  0
 14 15  2  0
 15 16  1  0
 16 17  1  0
 17 18  2  0
 17 19  1  0
 16 20  1  0
 13 21  1  0
 12 22  1  0
 11 23  1  0
  9 24  1  0
 24 25  1  0
 25 26  1  0
 26 27  1  0
 27 28  1  0
 28 29  1  0
 28 30  1  0
 27 31  1  0
 27 32  1  0
 26 33  1  0
 25 34  1  0
 34 35  1  0
 35 36  1  0
 35 37  1  0
 34 38  1  0
 34 39  1  0
 24 40  2  0
  6 41  1  0
  6 42  1  0
  5 43  2  0
 43 44  1  0
  4 45  1  0
  2 46  1  0
  1 47  1  0
 43  1  1  0
 40  7  1  0
 15 10  1  0
 35 25  1  0
 18 14  1  0
 28 26  1  0
M  END
>  <cnnaffinity>  (1) 
-6.78318

>  <filename>  (1) 
c1cncc(Cc2nc(C3(C4CC4)CC3)n(-c3cccc4nc[nH]c34)n2)c1

$$$$
