
     RDKit          3D

 49 53  0  0  0  0  0  0  0  0999 V2000
    4.8139    1.3262   18.9746 C   0  0  0  0  0  0  0  0  0  0  0  0
    5.4035    1.2805   17.7075 C   0  0  0  0  0  0  0  0  0  0  0  0
    6.5240    0.5942   17.4367 N   0  0  0  0  0  0  0  0  0  0  0  0
    7.1085   -0.0505   18.4559 C   0  0  0  0  0  0  0  0  0  0  0  0
    6.6231   -0.0493   19.7758 C   0  0  0  0  0  0  0  0  0  0  0  0
    7.3897   -0.6391   20.9530 C   0  0  0  0  0  0  0  0  0  0  0  0
    8.1251    0.4296   21.7105 C   0  0  0  0  0  0  0  0  0  0  0  0
    9.2900    0.8656   21.2775 N   0  0  0  0  0  0  0  0  0  0  0  0
    9.6113    1.8225   22.1953 N   0  0  0  0  0  0  0  0  0  0  0  0
   10.9415    2.3121   22.3322 C   0  0  0  0  0  0  0  0  0  0  0  0
   11.1764    3.6726   22.4254 C   0  0  0  0  0  0  0  0  0  0  0  0
   12.4712    4.1683   22.6758 C   0  0  0  0  0  0  0  0  0  0  0  0
   13.5332    3.3005   22.7824 C   0  0  0  0  0  0  0  0  0  0  0  0
   13.3274    1.8967   22.6781 C   0  0  0  0  0  0  0  0  0  0  0  0
   14.3928    0.9649   22.7859 C   0  0  0  0  0  0  0  0  0  0  0  0
   14.1279   -0.3828   22.8136 C   0  0  0  0  0  0  0  0  0  0  0  0
   12.8917   -0.9066   22.6463 N   0  0  0  0  0  0  0  0  0  0  0  0
   11.8908   -0.0573   22.4647 C   0  0  0  0  0  0  0  0  0  0  0  0
   12.0176    1.3704   22.4590 C   0  0  0  0  0  0  0  0  0  0  0  0
   10.9051   -0.4915   22.3144 H   0  0  0  0  0  0  0  0  0  0  0  0
   14.9204   -1.1107   22.9778 H   0  0  0  0  0  0  0  0  0  0  0  0
   15.3948    1.3640   22.7787 H   0  0  0  0  0  0  0  0  0  0  0  0
   14.5389    3.6749   22.9454 H   0  0  0  0  0  0  0  0  0  0  0  0
   12.6122    5.2385   22.8037 H   0  0  0  0  0  0  0  0  0  0  0  0
   10.3468    4.3574   22.3076 H   0  0  0  0  0  0  0  0  0  0  0  0
    8.6072    1.9180   23.1140 C   0  0  0  0  0  0  0  0  0  0  0  0
    8.6139    2.8588   24.2723 C   0  0  0  0  0  0  0  0  0  0  0  0
    8.9955    2.1934   25.6025 C   0  0  2  0  0  0  0  0  0  0  0  0
   10.2973    1.3810   25.5625 C   0  0  0  0  0  0  0  0  0  0  0  0
    9.8152   -0.0637   25.4011 C   0  0  0  0  0  0  0  0  0  0  0  0
    8.4132   -0.0472   26.0214 C   0  0  0  0  0  0  0  0  0  0  0  0
    7.9636    1.2941   25.9645 O   0  0  0  0  0  0  0  0  0  0  0  0
    8.4051   -0.3903   27.0676 H   0  0  0  0  0  0  0  0  0  0  0  0
    7.7026   -0.6594   25.4511 H   0  0  0  0  0  0  0  0  0  0  0  0
   10.4906   -0.7825   25.8672 H   0  0  0  0  0  0  0  0  0  0  0  0
    9.7347   -0.3304   24.3431 H   0  0  0  0  0  0  0  0  0  0  0  0
   10.8383    1.4919   26.4979 H   0  0  0  0  0  0  0  0  0  0  0  0
   10.9799    1.7095   24.7705 H   0  0  0  0  0  0  0  0  0  0  0  0
    9.0243    2.9810   26.3676 H   0  0  0  0  0  0  0  0  0  0  0  0
    9.2800    3.7050   24.1053 H   0  0  0  0  0  0  0  0  0  0  0  0
    7.6028    3.2478   24.3763 H   0  0  0  0  0  0  0  0  0  0  0  0
    7.6680    1.0310   22.8375 N   0  0  0  0  0  0  0  0  0  0  0  0
    8.1426   -1.3633   20.6283 H   0  0  0  0  0  0  0  0  0  0  0  0
    6.7098   -1.1478   21.6451 H   0  0  0  0  0  0  0  0  0  0  0  0
    5.4374    0.6533   20.0253 C   0  0  0  0  0  0  0  0  0  0  0  0
    5.0320    0.6835   21.0395 H   0  0  0  0  0  0  0  0  0  0  0  0
    8.0254   -0.5890   18.2112 H   0  0  0  0  0  0  0  0  0  0  0  0
    4.9609    1.8273   16.8775 H   0  0  0  0  0  0  0  0  0  0  0  0
    3.9073    1.9003   19.1289 H   0  0  0  0  0  0  0  0  0  0  0  0
  1  2  2  0
  2  3  1  0
  3  4  2  0
  4  5  1  0
  5  6  1  0
  6  7  1  0
  7  8  2  0
  8  9  1  0
  9 10  1  0
 10 11  2  0
 11 12  1  0
 12 13  2  0
 13 14  1  0
 14 15  2  0
 15 16  1  0
 16 17  2  0
 17 18  1  0
 18 19  2  0
 18 20  1  0
 16 21  1  0
 15 22  1  0
 13 23  1  0
 12 24  1  0
 11 25  1  0
  9 26  1  0
 26 27  1  0
 27 28  1  0
 28 29  1  0
 29 30  1  0
 30 31  1  0
 31 32  1  0
 31 33  1  0
 31 34  1  0
 30 35  1  0
 30 36  1  0
 29 37  1  0
 29 38  1  0
 28 39  1  1
 27 40  1  0
 27 41  1  0
 26 42  2  0
  6 43  1  0
  6 44  1  0
  5 45  2  0
 45 46  1  0
  4 47  1  0
  2 48  1  0
  1 49  1  0
 45  1  1  0
 42  7  1  0
 19 10  1  0
 32 28  1  0
 19 14  1  0
M  END
>  <cnnaffinity>  (1) 
-6.27197

>  <filename>  (1) 
c1cncc(Cc2nc(C[C@@H]3CCCO3)n(-c3cccc4ccncc34)n2)c1

$$$$
