
     RDKit          3D

 53 57  0  0  0  0  0  0  0  0999 V2000
    4.8235    1.3109   19.0479 C   0  0  0  0  0  0  0  0  0  0  0  0
    5.4104    1.2933   17.7797 C   0  0  0  0  0  0  0  0  0  0  0  0
    6.5515    0.6440   17.5007 N   0  0  0  0  0  0  0  0  0  0  0  0
    7.1569    0.0050   18.5101 C   0  0  0  0  0  0  0  0  0  0  0  0
    6.6783   -0.0192   19.8328 C   0  0  0  0  0  0  0  0  0  0  0  0
    7.4517   -0.6668   20.9820 C   0  0  0  0  0  0  0  0  0  0  0  0
    8.3282    0.2915   21.7446 C   0  0  0  0  0  0  0  0  0  0  0  0
    9.5987    0.4984   21.4383 N   0  0  0  0  0  0  0  0  0  0  0  0
    9.9461    1.5158   22.2708 N   0  0  0  0  0  0  0  0  0  0  0  0
   11.2362    2.1018   22.2868 C   0  0  0  0  0  0  0  0  0  0  0  0
   11.4375    3.4827   22.2683 C   0  0  0  0  0  0  0  0  0  0  0  0
   12.7184    4.0380   22.4611 C   0  0  0  0  0  0  0  0  0  0  0  0
   13.8236    3.2284   22.6970 C   0  0  0  0  0  0  0  0  0  0  0  0
   13.6414    1.8280   22.7252 C   0  0  0  0  0  0  0  0  0  0  0  0
   12.3692    1.2944   22.4682 C   0  0  0  0  0  0  0  0  0  0  0  0
   12.5432   -0.0674   22.4575 N   0  0  0  0  0  0  0  0  0  0  0  0
   13.8678   -0.2906   22.6895 C   0  0  0  0  0  0  0  0  0  0  0  0
   14.5578    0.7967   22.8781 N   0  0  0  0  0  0  0  0  0  0  0  0
   14.2652   -1.2959   22.7547 H   0  0  0  0  0  0  0  0  0  0  0  0
   11.8506   -0.7030   22.0959 H   0  0  0  0  0  0  0  0  0  0  0  0
   14.8088    3.6597   22.8001 H   0  0  0  0  0  0  0  0  0  0  0  0
   12.8598    5.1113   22.4029 H   0  0  0  0  0  0  0  0  0  0  0  0
   10.5940    4.1470   22.1289 H   0  0  0  0  0  0  0  0  0  0  0  0
    8.8934    1.8176   23.0810 C   0  0  0  0  0  0  0  0  0  0  0  0
    8.9189    2.7987   24.2177 C   0  0  0  0  0  0  0  0  0  0  0  0
    7.7852    3.8341   24.1775 C   0  0  0  0  0  0  0  0  0  0  0  0
    7.8165    4.8003   22.9797 C   0  0  0  0  0  0  0  0  0  0  0  0
    8.7909    5.9895   23.1248 C   0  0  0  0  0  0  0  0  0  0  0  0
    8.2811    7.0403   24.1262 C   0  0  0  0  0  0  0  0  0  0  0  0
    6.8320    7.4302   23.8034 C   0  0  0  0  0  0  0  0  0  0  0  0
    5.9640    6.1815   23.6509 C   0  0  0  0  0  0  0  0  0  0  0  0
    6.5049    5.2884   22.6929 O   0  0  0  0  0  0  0  0  0  0  0  0
    4.9631    6.4271   23.2832 H   0  0  0  0  0  0  0  0  0  0  0  0
    5.8396    5.6815   24.6271 H   0  0  0  0  0  0  0  0  0  0  0  0
    6.4110    8.0861   24.5754 H   0  0  0  0  0  0  0  0  0  0  0  0
    6.7979    7.9822   22.8558 H   0  0  0  0  0  0  0  0  0  0  0  0
    8.9275    7.9255   24.1124 H   0  0  0  0  0  0  0  0  0  0  0  0
    8.3422    6.6384   25.1476 H   0  0  0  0  0  0  0  0  0  0  0  0
    8.8732    6.4485   22.1309 H   0  0  0  0  0  0  0  0  0  0  0  0
    9.7933    5.6426   23.4021 H   0  0  0  0  0  0  0  0  0  0  0  0
    8.0670    4.2250   22.0785 H   0  0  0  0  0  0  0  0  0  0  0  0
    6.8213    3.3140   24.1455 H   0  0  0  0  0  0  0  0  0  0  0  0
    7.7936    4.4103   25.1107 H   0  0  0  0  0  0  0  0  0  0  0  0
    8.8356    2.2237   25.1458 H   0  0  0  0  0  0  0  0  0  0  0  0
    9.8955    3.2879   24.2741 H   0  0  0  0  0  0  0  0  0  0  0  0
    7.8598    1.0579   22.7628 N   0  0  0  0  0  0  0  0  0  0  0  0
    6.7433   -1.0987   21.7002 H   0  0  0  0  0  0  0  0  0  0  0  0
    8.0910   -1.4750   20.6134 H   0  0  0  0  0  0  0  0  0  0  0  0
    5.4706    0.6419   20.0890 C   0  0  0  0  0  0  0  0  0  0  0  0
    5.0650    0.6330   21.1021 H   0  0  0  0  0  0  0  0  0  0  0  0
    8.0808   -0.5194   18.2593 H   0  0  0  0  0  0  0  0  0  0  0  0
    4.9450    1.8171   16.9471 H   0  0  0  0  0  0  0  0  0  0  0  0
    3.8949    1.8476   19.2085 H   0  0  0  0  0  0  0  0  0  0  0  0
  1  2  2  0
  2  3  1  0
  3  4  2  0
  4  5  1  0
  5  6  1  0
  6  7  1  0
  7  8  2  0
  8  9  1  0
  9 10  1  0
 10 11  2  0
 11 12  1  0
 12 13  2  0
 13 14  1  0
 14 15  2  0
 15 16  1  0
 16 17  1  0
 17 18  2  0
 17 19  1  0
 16 20  1  0
 13 21  1  0
 12 22  1  0
 11 23  1  0
  9 24  1  0
 24 25  1  0
 25 26  1  0
 26 27  1  0
 27 28  1  0
 28 29  1  0
 29 30  1  0
 30 31  1  0
 31 32  1  0
 31 33  1  0
 31 34  1  0
 30 35  1  0
 30 36  1  0
 29 37  1  0
 29 38  1  0
 28 39  1  0
 28 40  1  0
 27 41  1  0
 26 42  1  0
 26 43  1  0
 25 44  1  0
 25 45  1  0
 24 46  2  0
  6 47  1  0
  6 48  1  0
  5 49  2  0
 49 50  1  0
  4 51  1  0
  2 52  1  0
  1 53  1  0
 49  1  1  0
 46  7  1  0
 15 10  1  0
 32 27  1  0
 18 14  1  0
M  END
>  <cnnaffinity>  (1) 
-6.57245

>  <filename>  (1) 
c1cncc(Cc2nc(CCC3CCCCO3)n(-c3cccc4nc[nH]c34)n2)c1

$$$$
