
     RDKit          3D

 31 33  0  0  0  0  0  0  0  0999 V2000
    6.8200   -2.6911   23.3770 H   0  0  0  0  0  0  0  0  0  0  0  0
    7.2403   -2.0296   22.6317 C   0  0  0  0  0  0  0  0  0  0  0  0
    8.4814   -1.7166   22.4408 N   0  0  0  0  0  0  0  0  0  0  0  0
    8.4377   -0.9016   21.3407 C   0  0  0  0  0  0  0  0  0  0  0  0
    9.5808   -0.3759   20.7655 N   0  0  0  0  0  0  0  0  0  0  0  0
    9.4431    0.6115   20.6093 H   0  0  0  0  0  0  0  0  0  0  0  0
   10.8590   -0.6030   21.4335 C   0  0  0  0  0  0  0  0  0  0  0  0
   10.9068   -1.6476   21.7458 H   0  0  0  0  0  0  0  0  0  0  0  0
   11.6492   -0.4655   20.6876 H   0  0  0  0  0  0  0  0  0  0  0  0
   11.1319    0.3249   22.6114 C   0  0  0  0  0  0  0  0  0  0  0  0
   11.1530   -0.1348   23.9374 C   0  0  0  0  0  0  0  0  0  0  0  0
   10.8770   -1.1563   24.1752 H   0  0  0  0  0  0  0  0  0  0  0  0
   11.5001    0.7449   24.9670 C   0  0  0  0  0  0  0  0  0  0  0  0
   11.5252    0.3839   25.9950 H   0  0  0  0  0  0  0  0  0  0  0  0
   11.8211    2.0294   24.7670 N   0  0  0  0  0  0  0  0  0  0  0  0
   11.7819    2.4793   23.5057 C   0  0  0  0  0  0  0  0  0  0  0  0
   12.0575    3.5242   23.3512 H   0  0  0  0  0  0  0  0  0  0  0  0
   11.4267    1.6839   22.4129 C   0  0  0  0  0  0  0  0  0  0  0  0
   11.3767    2.1333   21.4258 H   0  0  0  0  0  0  0  0  0  0  0  0
    7.1373   -0.7830   20.8896 C   0  0  0  0  0  0  0  0  0  0  0  0
    6.4777   -0.0708   19.8038 C   0  0  0  0  0  0  0  0  0  0  0  0
    7.0593   -0.0096   18.5245 C   0  0  0  0  0  0  0  0  0  0  0  0
    7.9877   -0.5487   18.3348 H   0  0  0  0  0  0  0  0  0  0  0  0
    6.5399    0.6712   17.4936 N   0  0  0  0  0  0  0  0  0  0  0  0
    5.4027    1.3456   17.7218 C   0  0  0  0  0  0  0  0  0  0  0  0
    4.9963    1.9095   16.8845 H   0  0  0  0  0  0  0  0  0  0  0  0
    4.7283    1.3383   18.9490 C   0  0  0  0  0  0  0  0  0  0  0  0
    3.8109    1.9024   19.0650 H   0  0  0  0  0  0  0  0  0  0  0  0
    5.2652    0.6078   20.0067 C   0  0  0  0  0  0  0  0  0  0  0  0
    4.7730    0.5701   20.9773 H   0  0  0  0  0  0  0  0  0  0  0  0
    6.3680   -1.5101   21.7623 O   0  0  0  0  0  0  0  0  0  0  0  0
  1  2  1  0
  2  3  2  0
  3  4  1  0
  4  5  1  0
  5  6  1  0
  5  7  1  0
  7  8  1  0
  7  9  1  0
  7 10  1  0
 10 11  2  0
 11 12  1  0
 11 13  1  0
 13 14  1  0
 13 15  2  0
 15 16  1  0
 16 17  1  0
 16 18  2  0
 18 19  1  0
  4 20  2  0
 20 21  1  0
 21 22  2  0
 22 23  1  0
 22 24  1  0
 24 25  2  0
 25 26  1  0
 25 27  1  0
 27 28  1  0
 27 29  2  0
 29 30  1  0
 20 31  1  0
 31  2  1  0
 18 10  1  0
 29 21  1  0
M  END
>  <cnnaffinity>  (1) 
-4.99913

>  <filename>  (1) 
c1cncc(-c2ocnc2NCc2ccncc2)c1

$$$$
