
     RDKit          3D

 25 26  0  0  0  0  0  0  0  0999 V2000
    4.9162    1.7834   16.9904 H   0  0  0  0  0  0  0  0  0  0  0  0
    5.4007    1.2932   17.8320 C   0  0  0  0  0  0  0  0  0  0  0  0
    6.5594    0.6759   17.5680 N   0  0  0  0  0  0  0  0  0  0  0  0
    7.1662    0.0647   18.5904 C   0  0  0  0  0  0  0  0  0  0  0  0
    8.1187   -0.4190   18.3688 H   0  0  0  0  0  0  0  0  0  0  0  0
    6.6635    0.0310   19.8944 C   0  0  0  0  0  0  0  0  0  0  0  0
    7.3778   -0.7388   20.9671 C   0  0  0  0  0  0  0  0  0  0  0  0
    8.4672   -0.7759   20.7778 H   0  0  0  0  0  0  0  0  0  0  0  0
    7.2345   -0.2300   21.9311 H   0  0  0  0  0  0  0  0  0  0  0  0
    6.8128   -2.0816   21.0605 N   0  0  0  0  0  0  0  0  0  0  0  0
    7.0273   -2.5357   20.1691 H   0  0  0  0  0  0  0  0  0  0  0  0
    7.4787   -2.8103   22.1101 N   0  0  0  0  0  0  0  0  0  0  0  0
    7.2277   -2.3577   22.9922 H   0  0  0  0  0  0  0  0  0  0  0  0
    6.9468   -4.1387   22.2160 C   0  0  0  0  0  0  0  0  0  0  0  0
    7.1047   -4.7198   21.3164 H   0  0  0  0  0  0  0  0  0  0  0  0
    5.7048   -4.3684   23.0186 C   0  0  0  0  0  0  0  0  0  0  0  0
    4.9963   -5.1194   22.6864 H   0  0  0  0  0  0  0  0  0  0  0  0
    5.2477   -3.4955   23.4703 H   0  0  0  0  0  0  0  0  0  0  0  0
    7.0451   -4.8184   23.5361 C   0  0  0  0  0  0  0  0  0  0  0  0
    7.5016   -4.2557   24.3441 H   0  0  0  0  0  0  0  0  0  0  0  0
    7.2571   -5.8818   23.5557 H   0  0  0  0  0  0  0  0  0  0  0  0
    5.4397    0.6646   20.1544 C   0  0  0  0  0  0  0  0  0  0  0  0
    5.0082    0.6284   21.1588 H   0  0  0  0  0  0  0  0  0  0  0  0
    4.8026    1.3160   19.0983 C   0  0  0  0  0  0  0  0  0  0  0  0
    3.8684    1.8468   19.2539 H   0  0  0  0  0  0  0  0  0  0  0  0
  1  2  1  0
  2  3  2  0
  3  4  1  0
  4  5  1  0
  4  6  2  0
  6  7  1  0
  7  8  1  0
  7  9  1  0
  7 10  1  0
 10 11  1  0
 10 12  1  0
 12 13  1  0
 12 14  1  0
 14 15  1  0
 14 16  1  0
 16 17  1  0
 16 18  1  0
 16 19  1  0
 19 20  1  0
 19 21  1  0
  6 22  1  0
 22 23  1  0
 22 24  2  0
 24 25  1  0
 24  2  1  0
 19 14  1  0
M  END
>  <cnnaffinity>  (1) 
-3.94787

>  <filename>  (1) 
c1cncc(CNNC2CC2)c1

$$$$
