
     RDKit          3D

 41 45  0  0  0  0  0  0  0  0999 V2000
    5.0062    1.7884   16.9395 H   0  0  0  0  0  0  0  0  0  0  0  0
    5.4587    1.3203   17.8119 C   0  0  0  0  0  0  0  0  0  0  0  0
    6.6048    0.6644   17.5936 N   0  0  0  0  0  0  0  0  0  0  0  0
    7.1960    0.0948   18.6533 C   0  0  0  0  0  0  0  0  0  0  0  0
    8.1311   -0.4152   18.4305 H   0  0  0  0  0  0  0  0  0  0  0  0
    6.6995    0.1143   19.9727 C   0  0  0  0  0  0  0  0  0  0  0  0
    7.5115   -0.4621   21.1615 C   0  0  2  0  0  0  0  0  0  0  0  0
    8.3170    0.7257   21.7721 C   0  0  0  0  0  0  0  0  0  0  0  0
    9.4355    1.1661   21.0310 C   0  0  0  0  0  0  0  0  0  0  0  0
    9.6818    0.6645   20.0951 H   0  0  0  0  0  0  0  0  0  0  0  0
   10.2585    2.2253   21.4483 C   0  0  0  0  0  0  0  0  0  0  0  0
   11.1531    2.5319   20.9153 H   0  0  0  0  0  0  0  0  0  0  0  0
    9.9052    2.8721   22.6096 C   0  0  0  0  0  0  0  0  0  0  0  0
    8.7832    2.4931   23.3425 C   0  0  0  0  0  0  0  0  0  0  0  0
    7.9783    1.4290   22.9612 C   0  0  0  0  0  0  0  0  0  0  0  0
    7.1323    1.1711   23.5945 H   0  0  0  0  0  0  0  0  0  0  0  0
    8.6939    3.2905   24.4583 O   0  0  0  0  0  0  0  0  0  0  0  0
    9.6695    4.3165   24.2747 C   0  0  0  0  0  0  0  0  0  0  0  0
    9.1817    5.2560   23.9743 H   0  0  0  0  0  0  0  0  0  0  0  0
   10.2395    4.4639   25.1969 H   0  0  0  0  0  0  0  0  0  0  0  0
   10.5547    3.8968   23.2438 O   0  0  0  0  0  0  0  0  0  0  0  0
    8.5156   -1.6282   20.7791 C   0  0  0  0  0  0  0  0  0  0  0  0
    9.5325   -1.3614   21.0875 H   0  0  0  0  0  0  0  0  0  0  0  0
    8.5412   -1.7725   19.7056 H   0  0  0  0  0  0  0  0  0  0  0  0
    8.0964   -2.8647   21.5962 C   0  0  2  0  0  0  0  0  0  0  0  0
    8.9120   -3.5862   21.6815 H   0  0  0  0  0  0  0  0  0  0  0  0
    6.7675   -3.4729   21.1130 C   0  0  0  0  0  0  0  0  0  0  0  0
    6.7340   -3.7949   20.0676 H   0  0  0  0  0  0  0  0  0  0  0  0
    6.5441   -4.3712   21.7012 H   0  0  0  0  0  0  0  0  0  0  0  0
    5.7597   -2.3350   21.4225 C   0  0  0  0  0  0  0  0  0  0  0  0
    4.9204   -2.6933   22.0259 H   0  0  0  0  0  0  0  0  0  0  0  0
    5.3529   -1.9261   20.4956 H   0  0  0  0  0  0  0  0  0  0  0  0
    6.6207   -1.2720   22.1761 C   0  0  1  0  0  0  0  0  0  0  0  0
    6.0489   -0.6098   22.8239 H   0  0  0  0  0  0  0  0  0  0  0  0
    7.6356   -2.1765   22.8929 C   0  0  0  0  0  0  0  0  0  0  0  0
    8.4323   -1.6208   23.3968 H   0  0  0  0  0  0  0  0  0  0  0  0
    7.1796   -2.8604   23.6193 H   0  0  0  0  0  0  0  0  0  0  0  0
    5.4871    0.8023   20.1655 C   0  0  0  0  0  0  0  0  0  0  0  0
    5.0157    0.8625   21.1494 H   0  0  0  0  0  0  0  0  0  0  0  0
    4.8552    1.4050   19.0717 C   0  0  0  0  0  0  0  0  0  0  0  0
    3.9167    1.9394   19.1783 H   0  0  0  0  0  0  0  0  0  0  0  0
  1  2  1  0
  2  3  2  0
  3  4  1  0
  4  5  1  0
  4  6  2  0
  7  6  1  6
  7  8  1  0
  8  9  1  0
  9 10  1  0
  9 11  2  0
 11 12  1  0
 11 13  1  0
 13 14  2  0
 14 15  1  0
 15 16  1  0
 14 17  1  0
 17 18  1  0
 18 19  1  0
 18 20  1  0
 18 21  1  0
  7 22  1  0
 22 23  1  0
 22 24  1  0
 22 25  1  0
 25 26  1  1
 25 27  1  0
 27 28  1  0
 27 29  1  0
 27 30  1  0
 30 31  1  0
 30 32  1  0
 30 33  1  0
 33 34  1  1
 33 35  1  0
 35 36  1  0
 35 37  1  0
  6 38  1  0
 38 39  1  0
 38 40  2  0
 40 41  1  0
 40  2  1  0
 33  7  1  0
 15  8  2  0
 35 25  1  0
 21 13  1  0
M  END
>  <cnnaffinity>  (1) 
-5.59139

>  <filename>  (1) 
c1cncc([C@]2(c3ccc4c(c3)OCO4)C[C@@H]3CC[C@H]2C3)c1

$$$$
