
     RDKit          3D

 33 36  0  0  0  0  0  0  0  0999 V2000
    4.9240    1.7828   16.9870 H   0  0  0  0  0  0  0  0  0  0  0  0
    5.4019    1.2943   17.8319 C   0  0  0  0  0  0  0  0  0  0  0  0
    6.5653    0.6789   17.5754 N   0  0  0  0  0  0  0  0  0  0  0  0
    7.1786    0.0792   18.6069 C   0  0  0  0  0  0  0  0  0  0  0  0
    8.1200   -0.4190   18.3816 H   0  0  0  0  0  0  0  0  0  0  0  0
    6.6649    0.0535   19.9069 C   0  0  0  0  0  0  0  0  0  0  0  0
    7.3569   -0.7819   20.9717 C   0  0  0  0  0  0  0  0  0  0  0  0
    6.8834   -2.2221   20.9777 C   0  0  0  0  0  0  0  0  0  0  0  0
    5.9614   -2.7836   20.1487 C   0  0  0  0  0  0  0  0  0  0  0  0
    5.4182   -2.2787   19.3593 H   0  0  0  0  0  0  0  0  0  0  0  0
    5.7118   -4.4710   20.4249 S   0  0  0  0  0  0  0  0  0  0  0  0
    6.8404   -4.4626   21.7470 C   0  0  0  0  0  0  0  0  0  0  0  0
    7.1965   -5.5495   22.5629 C   0  0  0  0  0  0  0  0  0  0  0  0
    6.7323   -6.5197   22.4123 H   0  0  0  0  0  0  0  0  0  0  0  0
    8.1473   -5.3476   23.5556 C   0  0  0  0  0  0  0  0  0  0  0  0
    8.4352   -6.1804   24.1960 H   0  0  0  0  0  0  0  0  0  0  0  0
    8.7413   -4.0776   23.7481 C   0  0  0  0  0  0  0  0  0  0  0  0
    9.4836   -3.9470   24.5372 H   0  0  0  0  0  0  0  0  0  0  0  0
    8.3803   -3.0042   22.9454 C   0  0  0  0  0  0  0  0  0  0  0  0
    8.8320   -2.0248   23.0934 H   0  0  0  0  0  0  0  0  0  0  0  0
    7.4142   -3.1896   21.9294 C   0  0  0  0  0  0  0  0  0  0  0  0
    7.1368   -0.2359   22.2597 O   0  0  0  0  0  0  0  0  0  0  0  0
    8.1632    0.7040   22.5298 C   0  0  0  0  0  0  0  0  0  0  0  0
    7.8097    1.7349   22.3950 H   0  0  0  0  0  0  0  0  0  0  0  0
    8.4501    0.5563   23.5751 H   0  0  0  0  0  0  0  0  0  0  0  0
    9.2825    0.3392   21.5355 C   0  0  0  0  0  0  0  0  0  0  0  0
    9.5318    1.1751   20.8710 H   0  0  0  0  0  0  0  0  0  0  0  0
   10.1907   -0.0144   22.0322 H   0  0  0  0  0  0  0  0  0  0  0  0
    8.7624   -0.7559   20.7944 O   0  0  0  0  0  0  0  0  0  0  0  0
    5.4317    0.6738   20.1564 C   0  0  0  0  0  0  0  0  0  0  0  0
    5.0056    0.6428   21.1638 H   0  0  0  0  0  0  0  0  0  0  0  0
    4.7991    1.3189   19.0963 C   0  0  0  0  0  0  0  0  0  0  0  0
    3.8660    1.8484   19.2469 H   0  0  0  0  0  0  0  0  0  0  0  0
  1  2  1  0
  2  3  2  0
  3  4  1  0
  4  5  1  0
  4  6  2  0
  6  7  1  0
  7  8  1  0
  8  9  2  0
  9 10  1  0
  9 11  1  0
 11 12  1  0
 12 13  2  0
 13 14  1  0
 13 15  1  0
 15 16  1  0
 15 17  2  0
 17 18  1  0
 17 19  1  0
 19 20  1  0
 19 21  2  0
  7 22  1  0
 22 23  1  0
 23 24  1  0
 23 25  1  0
 23 26  1  0
 26 27  1  0
 26 28  1  0
 26 29  1  0
  6 30  1  0
 30 31  1  0
 30 32  2  0
 32 33  1  0
 32  2  1  0
 29  7  1  0
 21  8  1  0
 21 12  1  0
M  END
>  <cnnaffinity>  (1) 
-4.8588

>  <filename>  (1) 
c1cncc(C2(c3csc4ccccc34)OCCO2)c1

$$$$
