
     RDKit          3D

 38 40  0  0  0  0  0  0  0  0999 V2000
    4.9227    1.8039   16.9838 H   0  0  0  0  0  0  0  0  0  0  0  0
    5.3878    1.3016   17.8308 C   0  0  0  0  0  0  0  0  0  0  0  0
    6.5472    0.6797   17.5717 N   0  0  0  0  0  0  0  0  0  0  0  0
    7.1580    0.0634   18.5900 C   0  0  0  0  0  0  0  0  0  0  0  0
    8.1048   -0.4215   18.3524 H   0  0  0  0  0  0  0  0  0  0  0  0
    6.6533    0.0137   19.9017 C   0  0  0  0  0  0  0  0  0  0  0  0
    7.4317   -0.6948   20.9922 C   0  0  0  0  0  0  0  0  0  0  0  0
    7.5551   -1.7620   20.7773 H   0  0  0  0  0  0  0  0  0  0  0  0
    6.9131   -0.5927   21.9490 H   0  0  0  0  0  0  0  0  0  0  0  0
    8.7912   -0.1994   21.1775 N   0  0  0  0  0  0  0  0  0  0  0  0
    9.8309   -1.0166   20.9392 N   0  0  0  0  0  0  0  0  0  0  0  0
   10.9161   -0.2785   21.1224 C   0  0  0  0  0  0  0  0  0  0  0  0
   11.8864   -0.7267   20.9430 H   0  0  0  0  0  0  0  0  0  0  0  0
   10.5746    1.0419   21.4889 C   0  0  0  0  0  0  0  0  0  0  0  0
   11.2134    1.8738   21.7580 H   0  0  0  0  0  0  0  0  0  0  0  0
    9.1977    1.0512   21.5192 C   0  0  0  0  0  0  0  0  0  0  0  0
    8.2430    2.1547   21.8504 C   0  0  0  0  0  0  0  0  0  0  0  0
    7.6870    2.4382   20.9458 H   0  0  0  0  0  0  0  0  0  0  0  0
    8.8513    3.0371   22.1270 H   0  0  0  0  0  0  0  0  0  0  0  0
    7.2847    1.7959   22.8955 N   0  0  0  0  0  0  0  0  0  0  0  0
    7.9524    1.6114   24.2047 C   0  0  0  0  0  0  0  0  0  0  0  0
    8.7095    0.8283   24.1092 H   0  0  0  0  0  0  0  0  0  0  0  0
    8.4837    2.5361   24.5217 H   0  0  0  0  0  0  0  0  0  0  0  0
    6.9322    1.2382   25.2996 C   0  0  0  0  0  0  0  0  0  0  0  0
    6.4845    0.2655   25.0454 H   0  0  0  0  0  0  0  0  0  0  0  0
    7.4434    1.1280   26.2650 H   0  0  0  0  0  0  0  0  0  0  0  0
    5.8312    2.2129   25.4482 N   0  0  0  0  0  0  0  0  0  0  0  0
    6.2178    3.0937   25.7914 H   0  0  0  0  0  0  0  0  0  0  0  0
    5.2239    2.4449   24.1218 C   0  0  0  0  0  0  0  0  0  0  0  0
    4.4593    3.2272   24.2116 H   0  0  0  0  0  0  0  0  0  0  0  0
    4.7199    1.5128   23.8232 H   0  0  0  0  0  0  0  0  0  0  0  0
    6.2411    2.8257   23.0290 C   0  0  0  0  0  0  0  0  0  0  0  0
    5.7280    2.9501   22.0687 H   0  0  0  0  0  0  0  0  0  0  0  0
    6.6780    3.8165   23.2867 H   0  0  0  0  0  0  0  0  0  0  0  0
    5.4372    0.6601   20.1476 C   0  0  0  0  0  0  0  0  0  0  0  0
    5.0128    0.6499   21.1533 H   0  0  0  0  0  0  0  0  0  0  0  0
    4.7928    1.3190   19.0946 C   0  0  0  0  0  0  0  0  0  0  0  0
    3.8600    1.8510   19.2314 H   0  0  0  0  0  0  0  0  0  0  0  0
  1  2  1  0
  2  3  2  0
  3  4  1  0
  4  5  1  0
  4  6  2  0
  6  7  1  0
  7  8  1  0
  7  9  1  0
  7 10  1  0
 10 11  1  0
 11 12  2  0
 12 13  1  0
 12 14  1  0
 14 15  1  0
 14 16  2  0
 16 17  1  0
 17 18  1  0
 17 19  1  0
 17 20  1  0
 20 21  1  0
 21 22  1  0
 21 23  1  0
 21 24  1  0
 24 25  1  0
 24 26  1  0
 24 27  1  0
 27 28  1  0
 27 29  1  0
 29 30  1  0
 29 31  1  0
 29 32  1  0
 32 33  1  0
 32 34  1  0
  6 35  1  0
 35 36  1  0
 35 37  2  0
 37 38  1  0
 37  2  1  0
 16 10  1  0
 32 20  1  0
M  END
>  <cnnaffinity>  (1) 
-4.87802

>  <filename>  (1) 
c1cncc(Cn2nccc2CN2CCNCC2)c1

$$$$
