
     RDKit          3D

 31 34  0  0  0  0  0  0  0  0999 V2000
    4.9122    1.7864   16.9921 H   0  0  0  0  0  0  0  0  0  0  0  0
    5.3981    1.2994   17.8296 C   0  0  0  0  0  0  0  0  0  0  0  0
    6.5626    0.6858   17.5542 N   0  0  0  0  0  0  0  0  0  0  0  0
    7.1621    0.0560   18.5671 C   0  0  0  0  0  0  0  0  0  0  0  0
    8.1206   -0.4162   18.3547 H   0  0  0  0  0  0  0  0  0  0  0  0
    6.6491    0.0029   19.8780 C   0  0  0  0  0  0  0  0  0  0  0  0
    7.3607   -0.6817   20.9482 C   0  0  0  0  0  0  0  0  0  0  0  0
    7.5501   -0.3511   22.2797 C   0  0  0  0  0  0  0  0  0  0  0  0
    7.2067    0.9289   22.8871 C   0  0  0  0  0  0  0  0  0  0  0  0
    7.3480    2.1445   22.2846 C   0  0  0  0  0  0  0  0  0  0  0  0
    7.7102    2.3354   21.2799 H   0  0  0  0  0  0  0  0  0  0  0  0
    6.8920    3.4844   23.2728 S   0  0  0  0  0  0  0  0  0  0  0  0
    6.4622    2.4099   24.5765 C   0  0  0  0  0  0  0  0  0  0  0  0
    5.9643    2.7596   25.8460 C   0  0  0  0  0  0  0  0  0  0  0  0
    5.8117    3.8027   26.1094 H   0  0  0  0  0  0  0  0  0  0  0  0
    5.6693    1.7432   26.7511 C   0  0  0  0  0  0  0  0  0  0  0  0
    5.2833    1.9912   27.7389 H   0  0  0  0  0  0  0  0  0  0  0  0
    5.8585    0.3848   26.4069 C   0  0  0  0  0  0  0  0  0  0  0  0
    5.6215   -0.3991   27.1240 H   0  0  0  0  0  0  0  0  0  0  0  0
    6.3478    0.0395   25.1565 C   0  0  0  0  0  0  0  0  0  0  0  0
    6.5061   -0.9992   24.8690 H   0  0  0  0  0  0  0  0  0  0  0  0
    6.6727    1.0601   24.2317 C   0  0  0  0  0  0  0  0  0  0  0  0
    8.1907   -1.3949   22.9229 N   0  0  0  0  0  0  0  0  0  0  0  0
    8.4319   -2.2885   22.0081 C   0  0  0  0  0  0  0  0  0  0  0  0
    8.9433   -3.2274   22.1728 H   0  0  0  0  0  0  0  0  0  0  0  0
    7.9628   -1.9035   20.7929 N   0  0  0  0  0  0  0  0  0  0  0  0
    7.9616   -2.4473   19.9508 H   0  0  0  0  0  0  0  0  0  0  0  0
    5.4273    0.6504   20.1419 C   0  0  0  0  0  0  0  0  0  0  0  0
    5.0067    0.6264   21.1516 H   0  0  0  0  0  0  0  0  0  0  0  0
    4.7975    1.3143   19.0939 C   0  0  0  0  0  0  0  0  0  0  0  0
    3.8682    1.8479   19.2546 H   0  0  0  0  0  0  0  0  0  0  0  0
  1  2  1  0
  2  3  2  0
  3  4  1  0
  4  5  1  0
  4  6  2  0
  6  7  1  0
  7  8  2  0
  8  9  1  0
  9 10  2  0
 10 11  1  0
 10 12  1  0
 12 13  1  0
 13 14  2  0
 14 15  1  0
 14 16  1  0
 16 17  1  0
 16 18  2  0
 18 19  1  0
 18 20  1  0
 20 21  1  0
 20 22  2  0
  8 23  1  0
 23 24  2  0
 24 25  1  0
 24 26  1  0
 26 27  1  0
  6 28  1  0
 28 29  1  0
 28 30  2  0
 30 31  1  0
 30  2  1  0
 26  7  1  0
 22  9  1  0
 22 13  1  0
M  END
>  <cnnaffinity>  (1) 
-5.40325

>  <filename>  (1) 
c1cncc(-c2[nH]cnc2-c2csc3ccccc23)c1

$$$$
