
     RDKit          3D

 34 37  0  0  0  0  0  0  0  0999 V2000
    9.0819   -2.6790   23.7329 H   0  0  0  0  0  0  0  0  0  0  0  0
    8.6001   -2.0856   22.9552 C   0  0  0  0  0  0  0  0  0  0  0  0
    8.2738   -2.7279   21.8333 N   0  0  0  0  0  0  0  0  0  0  0  0
    7.6410   -2.0116   20.9089 C   0  0  0  0  0  0  0  0  0  0  0  0
    7.2692   -2.5280   20.0287 H   0  0  0  0  0  0  0  0  0  0  0  0
    7.3699   -0.6545   21.0205 C   0  0  0  0  0  0  0  0  0  0  0  0
    6.6559    0.0332   19.8887 C   0  0  0  0  0  0  0  0  0  0  0  0
    7.1530    0.0714   18.5651 C   0  0  0  0  0  0  0  0  0  0  0  0
    8.1055   -0.4057   18.3292 H   0  0  0  0  0  0  0  0  0  0  0  0
    6.5451    0.6843   17.5430 N   0  0  0  0  0  0  0  0  0  0  0  0
    5.3815    1.3033   17.8060 C   0  0  0  0  0  0  0  0  0  0  0  0
    4.9146    1.8178   16.9674 H   0  0  0  0  0  0  0  0  0  0  0  0
    4.7833    1.3089   19.0707 C   0  0  0  0  0  0  0  0  0  0  0  0
    3.8557    1.8467   19.2222 H   0  0  0  0  0  0  0  0  0  0  0  0
    5.4270    0.6611   20.1254 C   0  0  0  0  0  0  0  0  0  0  0  0
    5.0372    0.6481   21.1448 H   0  0  0  0  0  0  0  0  0  0  0  0
    7.7306   -0.0922   22.2739 C   0  0  0  0  0  0  0  0  0  0  0  0
    7.5268    1.3445   22.5187 C   0  0  0  0  0  0  0  0  0  0  0  0
    8.0177    2.2980   21.6303 C   0  0  0  0  0  0  0  0  0  0  0  0
    8.5271    1.9816   20.7217 H   0  0  0  0  0  0  0  0  0  0  0  0
    7.8299    3.6749   21.8751 C   0  0  0  0  0  0  0  0  0  0  0  0
    8.2780    4.4235   21.2316 H   0  0  0  0  0  0  0  0  0  0  0  0
    7.0864    4.1103   22.9430 C   0  0  0  0  0  0  0  0  0  0  0  0
    6.9088    5.1708   23.1003 H   0  0  0  0  0  0  0  0  0  0  0  0
    6.5407    3.1745   23.8556 C   0  0  0  0  0  0  0  0  0  0  0  0
    5.7875    3.5731   24.9955 C   0  0  0  0  0  0  0  0  0  0  0  0
    5.6348    4.6385   25.1687 H   0  0  0  0  0  0  0  0  0  0  0  0
    5.2939    2.6022   25.8305 C   0  0  0  0  0  0  0  0  0  0  0  0
    4.7315    2.8434   26.7211 H   0  0  0  0  0  0  0  0  0  0  0  0
    5.5326    1.2363   25.5173 C   0  0  0  0  0  0  0  0  0  0  0  0
    5.1487    0.4569   26.1716 H   0  0  0  0  0  0  0  0  0  0  0  0
    6.2120    0.8265   24.4731 N   0  0  0  0  0  0  0  0  0  0  0  0
    6.7646    1.7659   23.6485 C   0  0  0  0  0  0  0  0  0  0  0  0
    8.3595   -0.8047   23.2192 N   0  0  0  0  0  0  0  0  0  0  0  0
  1  2  1  0
  2  3  2  0
  3  4  1  0
  4  5  1  0
  4  6  2  0
  6  7  1  0
  7  8  2  0
  8  9  1  0
  8 10  1  0
 10 11  2  0
 11 12  1  0
 11 13  1  0
 13 14  1  0
 13 15  2  0
 15 16  1  0
  6 17  1  0
 17 18  1  0
 18 19  2  0
 19 20  1  0
 19 21  1  0
 21 22  1  0
 21 23  2  0
 23 24  1  0
 23 25  1  0
 25 26  2  0
 26 27  1  0
 26 28  1  0
 28 29  1  0
 28 30  2  0
 30 31  1  0
 30 32  1  0
 32 33  2  0
 17 34  2  0
 34  2  1  0
 15  7  1  0
 33 18  1  0
 33 25  1  0
M  END
>  <cnnaffinity>  (1) 
-5.17755

>  <filename>  (1) 
c1cncc(-c2cncnc2-c2cccc3cccnc23)c1

$$$$
