
     RDKit          3D

 36 39  0  0  0  0  0  0  0  0999 V2000
    5.1369    1.6927   17.0021 H   0  0  0  0  0  0  0  0  0  0  0  0
    5.5268    1.1414   17.8547 C   0  0  0  0  0  0  0  0  0  0  0  0
    6.6391    0.4257   17.6323 N   0  0  0  0  0  0  0  0  0  0  0  0
    7.1614   -0.2357   18.6735 C   0  0  0  0  0  0  0  0  0  0  0  0
    8.0582   -0.8198   18.4637 H   0  0  0  0  0  0  0  0  0  0  0  0
    6.6437   -0.1982   19.9758 C   0  0  0  0  0  0  0  0  0  0  0  0
    7.3743   -0.9233   21.0820 C   0  0  0  0  0  0  0  0  0  0  0  0
    6.9546   -2.3127   21.0565 N   0  0  0  0  0  0  0  0  0  0  0  0
    6.1231   -2.4569   20.5091 H   0  0  0  0  0  0  0  0  0  0  0  0
    7.0256   -3.1521   22.1623 C   0  0  0  0  0  0  0  0  0  0  0  0
    8.1134   -3.3473   22.9423 C   0  0  0  0  0  0  0  0  0  0  0  0
    9.0698   -2.8705   22.8339 H   0  0  0  0  0  0  0  0  0  0  0  0
    7.8451   -4.4289   24.2778 S   0  0  0  0  0  0  0  0  0  0  0  0
    6.1868   -4.6785   23.7743 C   0  0  0  0  0  0  0  0  0  0  0  0
    5.1989   -5.4740   24.3865 C   0  0  0  0  0  0  0  0  0  0  0  0
    5.3914   -5.9661   25.3385 H   0  0  0  0  0  0  0  0  0  0  0  0
    3.9732   -5.6151   23.7478 C   0  0  0  0  0  0  0  0  0  0  0  0
    3.2117   -6.2694   24.1730 H   0  0  0  0  0  0  0  0  0  0  0  0
    3.6861   -4.9131   22.5620 C   0  0  0  0  0  0  0  0  0  0  0  0
    2.7267   -5.0658   22.0782 H   0  0  0  0  0  0  0  0  0  0  0  0
    4.6240   -4.0562   22.0100 C   0  0  0  0  0  0  0  0  0  0  0  0
    4.3716   -3.4324   21.1577 H   0  0  0  0  0  0  0  0  0  0  0  0
    5.8977   -3.9549   22.5951 C   0  0  0  0  0  0  0  0  0  0  0  0
    8.9213   -0.7971   21.0700 C   0  0  0  0  0  0  0  0  0  0  0  0
    9.2800   -0.0952   20.3120 H   0  0  0  0  0  0  0  0  0  0  0  0
    9.4374   -1.7511   20.9229 H   0  0  0  0  0  0  0  0  0  0  0  0
    8.9022   -0.1929   22.4973 C   0  0  0  0  0  0  0  0  0  0  0  0
    9.3613    0.7989   22.5693 H   0  0  0  0  0  0  0  0  0  0  0  0
    9.3475   -0.8155   23.2817 H   0  0  0  0  0  0  0  0  0  0  0  0
    7.3490   -0.1878   22.4592 C   0  0  0  0  0  0  0  0  0  0  0  0
    6.8043   -0.6999   23.2624 H   0  0  0  0  0  0  0  0  0  0  0  0
    6.9369    0.8187   22.3558 H   0  0  0  0  0  0  0  0  0  0  0  0
    5.4373    0.4980   20.1681 C   0  0  0  0  0  0  0  0  0  0  0  0
    4.9545    0.5030   21.1481 H   0  0  0  0  0  0  0  0  0  0  0  0
    4.8756    1.1867   19.0919 C   0  0  0  0  0  0  0  0  0  0  0  0
    3.9752    1.7819   19.2058 H   0  0  0  0  0  0  0  0  0  0  0  0
  1  2  1  0
  2  3  2  0
  3  4  1  0
  4  5  1  0
  4  6  2  0
  6  7  1  0
  7  8  1  0
  8  9  1  0
  8 10  1  0
 10 11  2  0
 11 12  1  0
 11 13  1  0
 13 14  1  0
 14 15  2  0
 15 16  1  0
 15 17  1  0
 17 18  1  0
 17 19  2  0
 19 20  1  0
 19 21  1  0
 21 22  1  0
 21 23  2  0
  7 24  1  0
 24 25  1  0
 24 26  1  0
 24 27  1  0
 27 28  1  0
 27 29  1  0
 27 30  1  0
 30 31  1  0
 30 32  1  0
  6 33  1  0
 33 34  1  0
 33 35  2  0
 35 36  1  0
 35  2  1  0
 30  7  1  0
 23 10  1  0
 23 14  1  0
M  END
>  <cnnaffinity>  (1) 
-5.20088

>  <filename>  (1) 
c1cncc(C2(Nc3csc4ccccc34)CCC2)c1

$$$$
