
     RDKit          3D

 55 59  0  0  0  0  0  0  0  0999 V2000
    5.1200    1.2240   18.9303 C   0  0  0  0  0  0  0  0  0  0  0  0
    5.6984    1.0536   17.6701 C   0  0  0  0  0  0  0  0  0  0  0  0
    6.8346    0.3721   17.4663 N   0  0  0  0  0  0  0  0  0  0  0  0
    7.4160   -0.1922   18.5335 C   0  0  0  0  0  0  0  0  0  0  0  0
    6.9139   -0.1057   19.8442 C   0  0  0  0  0  0  0  0  0  0  0  0
    7.5861   -0.7767   21.0447 C   0  0  0  0  0  0  0  0  0  0  0  0
    8.1760    0.1811   22.0361 C   0  0  0  0  0  0  0  0  0  0  0  0
    9.4678    0.3766   22.1685 N   0  0  0  0  0  0  0  0  0  0  0  0
    9.5350    1.3832   23.0757 N   0  0  0  0  0  0  0  0  0  0  0  0
   10.7767    2.1338   23.2223 C   0  0  0  0  0  0  0  0  0  0  0  0
   10.7007    3.3779   22.3276 C   0  0  0  0  0  0  0  0  0  0  0  0
   11.8627    4.2855   22.4011 N   0  0  0  0  0  4  0  0  0  0  0  0
   12.2439    4.7461   23.7884 C   0  0  0  0  0  0  0  0  0  0  0  0
   13.2464    5.8893   23.6440 C   0  0  0  0  0  0  0  0  0  0  0  0
   14.4462    5.5358   22.7346 C   0  0  0  0  0  0  0  0  0  0  0  0
   13.9941    4.9325   21.4066 C   0  0  0  0  0  0  0  0  0  0  0  0
   13.0546    3.7663   21.6498 C   0  0  0  0  0  0  0  0  0  0  0  0
   12.7143    3.3039   20.7173 H   0  0  0  0  0  0  0  0  0  0  0  0
   13.5514    2.9869   22.2428 H   0  0  0  0  0  0  0  0  0  0  0  0
   14.8435    4.6240   20.7909 H   0  0  0  0  0  0  0  0  0  0  0  0
   13.4427    5.6985   20.8447 H   0  0  0  0  0  0  0  0  0  0  0  0
   15.0364    6.4336   22.5037 H   0  0  0  0  0  0  0  0  0  0  0  0
   15.1183    4.8437   23.2639 H   0  0  0  0  0  0  0  0  0  0  0  0
   12.7181    6.7463   23.2129 H   0  0  0  0  0  0  0  0  0  0  0  0
   13.5752    6.1948   24.6408 H   0  0  0  0  0  0  0  0  0  0  0  0
   12.6904    3.9041   24.3290 H   0  0  0  0  0  0  0  0  0  0  0  0
   11.3318    5.0491   24.3215 H   0  0  0  0  0  0  0  0  0  0  0  0
   11.5891    5.1590   21.8951 H   0  0  0  0  0  0  0  0  0  0  0  0
   10.5923    3.0284   21.2948 H   0  0  0  0  0  0  0  0  0  0  0  0
    9.7961    3.9505   22.5569 H   0  0  0  0  0  0  0  0  0  0  0  0
   10.9091    2.4057   24.2706 H   0  0  0  0  0  0  0  0  0  0  0  0
   11.5988    1.4709   22.9435 H   0  0  0  0  0  0  0  0  0  0  0  0
    8.2727    1.7831   23.3903 C   0  0  0  0  0  0  0  0  0  0  0  0
    7.9977    3.0323   24.0857 C   0  0  0  0  0  0  0  0  0  0  0  0
    8.6821    3.3552   25.2535 C   0  0  0  0  0  0  0  0  0  0  0  0
    8.7633    4.6015   25.7578 N   0  0  0  0  0  0  0  0  0  0  0  0
    8.1053    5.5918   25.1471 C   0  0  0  0  0  0  0  0  0  0  0  0
    7.3146    5.3522   23.9963 C   0  0  0  0  0  0  0  0  0  0  0  0
    7.2166    4.0443   23.4765 C   0  0  0  0  0  0  0  0  0  0  0  0
    6.3126    4.1012   22.3637 C   0  0  0  0  0  0  0  0  0  0  0  0
    5.9240    5.4024   22.2242 C   0  0  0  0  0  0  0  0  0  0  0  0
    6.5317    6.1666   23.2010 N   0  0  0  0  0  0  0  0  0  0  0  0
    6.4868    7.1749   23.2428 H   0  0  0  0  0  0  0  0  0  0  0  0
    5.2432    5.8524   21.5070 H   0  0  0  0  0  0  0  0  0  0  0  0
    6.0106    3.2409   21.7746 H   0  0  0  0  0  0  0  0  0  0  0  0
    8.1862    6.5861   25.5863 H   0  0  0  0  0  0  0  0  0  0  0  0
    9.2278    2.5883   25.8001 H   0  0  0  0  0  0  0  0  0  0  0  0
    7.3949    1.0011   22.7897 N   0  0  0  0  0  0  0  0  0  0  0  0
    8.3721   -1.4684   20.7282 H   0  0  0  0  0  0  0  0  0  0  0  0
    6.8349   -1.3507   21.5990 H   0  0  0  0  0  0  0  0  0  0  0  0
    5.7429    0.6441   20.0353 C   0  0  0  0  0  0  0  0  0  0  0  0
    5.3407    0.7703   21.0421 H   0  0  0  0  0  0  0  0  0  0  0  0
    8.3399   -0.7428   18.3450 H   0  0  0  0  0  0  0  0  0  0  0  0
    5.2279    1.4795   16.7859 H   0  0  0  0  0  0  0  0  0  0  0  0
    4.2108    1.8063   19.0321 H   0  0  0  0  0  0  0  0  0  0  0  0
  1  2  2  0
  2  3  1  0
  3  4  2  0
  4  5  1  0
  5  6  1  0
  6  7  1  0
  7  8  2  0
  8  9  1  0
  9 10  1  0
 10 11  1  0
 11 12  1  0
 12 13  1  0
 13 14  1  0
 14 15  1  0
 15 16  1  0
 16 17  1  0
 17 18  1  0
 17 19  1  0
 16 20  1  0
 16 21  1  0
 15 22  1  0
 15 23  1  0
 14 24  1  0
 14 25  1  0
 13 26  1  0
 13 27  1  0
 12 28  1  0
 11 29  1  0
 11 30  1  0
 10 31  1  0
 10 32  1  0
  9 33  1  0
 33 34  1  0
 34 35  2  0
 35 36  1  0
 36 37  2  0
 37 38  1  0
 38 39  2  0
 39 40  1  0
 40 41  2  0
 41 42  1  0
 42 43  1  0
 41 44  1  0
 40 45  1  0
 37 46  1  0
 35 47  1  0
 33 48  2  0
  6 49  1  0
  6 50  1  0
  5 51  2  0
 51 52  1  0
  4 53  1  0
  2 54  1  0
  1 55  1  0
 51  1  1  0
 48  7  1  0
 17 12  1  0
 39 34  1  0
 42 38  1  0
M  CHG  1  12   1
M  END
>  <cnnaffinity>  (1) 
-5.95562

>  <filename>  (1) 
c1cncc(Cc2nc(-c3cncc4[nH]ccc34)n(CC[NH+]3CCCCC3)n2)c1

$$$$
