
     RDKit          3D

 38 40  0  0  0  0  0  0  0  0999 V2000
    5.0541    1.7479   17.0218 H   0  0  0  0  0  0  0  0  0  0  0  0
    5.5175    1.3144   17.9053 C   0  0  0  0  0  0  0  0  0  0  0  0
    6.7223    0.7544   17.7238 N   0  0  0  0  0  0  0  0  0  0  0  0
    7.3278    0.2351   18.8043 C   0  0  0  0  0  0  0  0  0  0  0  0
    8.3008   -0.2293   18.6086 H   0  0  0  0  0  0  0  0  0  0  0  0
    6.7815    0.2260   20.1054 C   0  0  0  0  0  0  0  0  0  0  0  0
    7.5887   -0.4101   21.2487 C   0  0  2  0  0  0  0  0  0  0  0  0
    7.8426   -1.9282   20.9992 C   0  0  0  0  0  0  0  0  0  0  0  0
    8.6023   -2.0418   20.2097 H   0  0  0  0  0  0  0  0  0  0  0  0
    8.3284   -2.3108   21.9111 H   0  0  0  0  0  0  0  0  0  0  0  0
    6.6127   -2.8263   20.7305 C   0  0  1  0  0  0  0  0  0  0  0  0
    5.8131   -2.5595   21.4401 H   0  0  0  0  0  0  0  0  0  0  0  0
    5.9586   -2.7672   19.3229 C   0  0  0  0  0  0  0  0  0  0  0  0
    6.6203   -2.3472   18.5482 H   0  0  0  0  0  0  0  0  0  0  0  0
    5.0767   -2.1083   19.3200 H   0  0  0  0  0  0  0  0  0  0  0  0
    5.6388   -4.1485   18.9865 N   0  0  0  0  0  0  0  0  0  0  0  0
    4.7397   -4.2726   18.5463 H   0  0  0  0  0  0  0  0  0  0  0  0
    5.9277   -5.0836   20.0619 C   0  0  0  0  0  0  0  0  0  0  0  0
    6.3711   -5.9970   19.6416 H   0  0  0  0  0  0  0  0  0  0  0  0
    5.0421   -5.4037   20.6385 H   0  0  0  0  0  0  0  0  0  0  0  0
    6.9340   -4.3271   20.9262 C   0  0  0  0  0  0  0  0  0  0  0  0
    6.9065   -4.6227   21.9837 H   0  0  0  0  0  0  0  0  0  0  0  0
    7.9457   -4.5678   20.5791 H   0  0  0  0  0  0  0  0  0  0  0  0
    6.9859   -0.1817   22.6694 C   0  0  0  0  0  0  0  0  0  0  0  0
    7.3686   -0.9570   23.3508 H   0  0  0  0  0  0  0  0  0  0  0  0
    5.9047   -0.2916   22.6872 H   0  0  0  0  0  0  0  0  0  0  0  0
    7.4205    1.1329   23.1542 N   0  0  0  0  0  0  0  0  0  0  0  0
    6.6891    1.8193   23.0217 H   0  0  0  0  0  0  0  0  0  0  0  0
    8.6157    1.5275   22.3886 C   0  0  0  0  0  0  0  0  0  0  0  0
    9.4582    1.7287   23.0647 H   0  0  0  0  0  0  0  0  0  0  0  0
    8.4322    2.4510   21.8232 H   0  0  0  0  0  0  0  0  0  0  0  0
    8.9332    0.3460   21.4579 C   0  0  0  0  0  0  0  0  0  0  0  0
    9.4015    0.6547   20.5198 H   0  0  0  0  0  0  0  0  0  0  0  0
    9.6363   -0.3260   21.9621 H   0  0  0  0  0  0  0  0  0  0  0  0
    5.5075    0.7920   20.2523 C   0  0  0  0  0  0  0  0  0  0  0  0
    5.0152    0.8157   21.2244 H   0  0  0  0  0  0  0  0  0  0  0  0
    4.8668    1.3459   19.1405 C   0  0  0  0  0  0  0  0  0  0  0  0
    3.8927    1.8158   19.2293 H   0  0  0  0  0  0  0  0  0  0  0  0
  1  2  1  0
  2  3  2  0
  3  4  1  0
  4  5  1  0
  4  6  2  0
  6  7  1  0
  7  8  1  6
  8  9  1  0
  8 10  1  0
  8 11  1  0
 11 12  1  1
 11 13  1  0
 13 14  1  0
 13 15  1  0
 13 16  1  0
 16 17  1  0
 16 18  1  0
 18 19  1  0
 18 20  1  0
 18 21  1  0
 21 22  1  0
 21 23  1  0
  7 24  1  0
 24 25  1  0
 24 26  1  0
 24 27  1  0
 27 28  1  0
 27 29  1  0
 29 30  1  0
 29 31  1  0
 29 32  1  0
 32 33  1  0
 32 34  1  0
  6 35  1  0
 35 36  1  0
 35 37  2  0
 37 38  1  0
 37  2  1  0
 32  7  1  0
 21 11  1  0
M  END
>  <cnnaffinity>  (1) 
-4.26701

>  <filename>  (1) 
c1cncc([C@@]2(C[C@@H]3CCNC3)CCNC2)c1

$$$$
