
     RDKit          3D

 40 44  0  0  0  0  0  0  0  0999 V2000
    4.9524    1.8711   16.9021 H   0  0  0  0  0  0  0  0  0  0  0  0
    5.4054    1.3395   17.7352 C   0  0  0  0  0  0  0  0  0  0  0  0
    6.5577    0.7060   17.4740 N   0  0  0  0  0  0  0  0  0  0  0  0
    7.1475    0.0637   18.4915 C   0  0  0  0  0  0  0  0  0  0  0  0
    8.0795   -0.4436   18.2410 H   0  0  0  0  0  0  0  0  0  0  0  0
    6.6497    0.0065   19.8073 C   0  0  0  0  0  0  0  0  0  0  0  0
    7.3730   -0.7742   20.8950 C   0  0  1  0  0  0  0  0  0  0  0  0
    6.9975   -1.8082   20.8531 H   0  0  0  0  0  0  0  0  0  0  0  0
    8.9344   -0.8707   20.7721 C   0  0  0  0  0  0  0  0  0  0  0  0
    9.2755   -1.6162   20.0480 H   0  0  0  0  0  0  0  0  0  0  0  0
    9.3368    0.1083   20.4854 H   0  0  0  0  0  0  0  0  0  0  0  0
    9.3210   -1.2013   22.1872 C   0  0  0  0  0  0  0  0  0  0  0  0
   10.3241   -1.8172   22.7840 N   0  0  0  0  0  0  0  0  0  0  0  0
    9.9216   -1.8759   24.0788 N   0  0  0  0  0  0  0  0  0  0  0  0
   10.4075   -2.4817   24.7294 H   0  0  0  0  0  0  0  0  0  0  0  0
    8.6818   -1.3435   24.2994 C   0  0  0  0  0  0  0  0  0  0  0  0
    7.8990   -1.3984   25.5436 C   0  0  0  0  0  0  0  0  0  0  0  0
    7.1911   -0.2826   25.9726 C   0  0  0  0  0  0  0  0  0  0  0  0
    7.3306    0.6717   25.4666 H   0  0  0  0  0  0  0  0  0  0  0  0
    6.2801   -0.3563   27.0545 C   0  0  0  0  0  0  0  0  0  0  0  0
    5.7698    0.5450   27.3901 H   0  0  0  0  0  0  0  0  0  0  0  0
    6.0001   -1.5671   27.6520 C   0  0  0  0  0  0  0  0  0  0  0  0
    5.2615   -1.6497   28.4493 H   0  0  0  0  0  0  0  0  0  0  0  0
    6.7002   -2.7379   27.2381 C   0  0  0  0  0  0  0  0  0  0  0  0
    6.4322   -4.0379   27.7659 C   0  0  0  0  0  0  0  0  0  0  0  0
    5.5978   -4.1702   28.4554 H   0  0  0  0  0  0  0  0  0  0  0  0
    7.2519   -5.0826   27.4329 C   0  0  0  0  0  0  0  0  0  0  0  0
    7.0888   -6.0842   27.8177 H   0  0  0  0  0  0  0  0  0  0  0  0
    8.3687   -4.8349   26.5862 C   0  0  0  0  0  0  0  0  0  0  0  0
    9.0661   -5.6382   26.3649 H   0  0  0  0  0  0  0  0  0  0  0  0
    8.6202   -3.6748   26.0295 N   0  0  0  0  0  0  0  0  0  0  0  0
    7.7601   -2.6336   26.2736 C   0  0  0  0  0  0  0  0  0  0  0  0
    8.3015   -0.8509   23.0735 C   0  0  0  0  0  0  0  0  0  0  0  0
    7.1330   -0.2740   22.3533 C   0  0  0  0  0  0  0  0  0  0  0  0
    6.1649   -0.5836   22.7636 H   0  0  0  0  0  0  0  0  0  0  0  0
    7.1743    0.8240   22.3667 H   0  0  0  0  0  0  0  0  0  0  0  0
    5.4205    0.6532   20.0391 C   0  0  0  0  0  0  0  0  0  0  0  0
    4.9563    0.6328   21.0279 H   0  0  0  0  0  0  0  0  0  0  0  0
    4.7942    1.3329   18.9922 C   0  0  0  0  0  0  0  0  0  0  0  0
    3.8589    1.8660   19.1407 H   0  0  0  0  0  0  0  0  0  0  0  0
  1  2  1  0
  2  3  2  0
  3  4  1  0
  4  5  1  0
  4  6  2  0
  6  7  1  0
  7  8  1  1
  7  9  1  0
  9 10  1  0
  9 11  1  0
  9 12  1  0
 12 13  2  0
 13 14  1  0
 14 15  1  0
 14 16  1  0
 16 17  1  0
 17 18  2  0
 18 19  1  0
 18 20  1  0
 20 21  1  0
 20 22  2  0
 22 23  1  0
 22 24  1  0
 24 25  2  0
 25 26  1  0
 25 27  1  0
 27 28  1  0
 27 29  2  0
 29 30  1  0
 29 31  1  0
 31 32  2  0
 16 33  2  0
 33 34  1  0
 34 35  1  0
 34 36  1  0
  6 37  1  0
 37 38  1  0
 37 39  2  0
 39 40  1  0
 39  2  1  0
 34  7  1  0
 33 12  1  0
 32 17  1  0
 32 24  1  0
M  END
>  <cnnaffinity>  (1) 
-5.65822

>  <filename>  (1) 
c1cncc([C@H]2Cc3n[nH]c(-c4cccc5cccnc45)c3C2)c1

$$$$
