
     RDKit          3D

 28 30  0  0  0  0  0  0  0  0999 V2000
    4.9371    1.8250   16.9783 H   0  0  0  0  0  0  0  0  0  0  0  0
    5.3998    1.3050   17.8141 C   0  0  0  0  0  0  0  0  0  0  0  0
    6.5552    0.6721   17.5620 N   0  0  0  0  0  0  0  0  0  0  0  0
    7.1538    0.0470   18.5837 C   0  0  0  0  0  0  0  0  0  0  0  0
    8.0943   -0.4461   18.3339 H   0  0  0  0  0  0  0  0  0  0  0  0
    6.6402    0.0134   19.8958 C   0  0  0  0  0  0  0  0  0  0  0  0
    7.3860   -0.6979   21.0155 C   0  0  0  0  0  0  0  0  0  0  0  0
    6.8309   -0.6455   21.9556 H   0  0  0  0  0  0  0  0  0  0  0  0
    7.4933   -1.7587   20.7762 H   0  0  0  0  0  0  0  0  0  0  0  0
    8.7653   -0.2503   21.2270 N   0  0  0  0  0  0  0  0  0  0  0  0
    9.7455   -1.0579   20.8048 N   0  0  0  0  0  0  0  0  0  0  0  0
   10.8747   -0.4006   20.9982 C   0  0  0  0  0  0  0  0  0  0  0  0
   11.8044   -0.8668   20.6970 H   0  0  0  0  0  0  0  0  0  0  0  0
   10.6402    0.8790   21.5226 C   0  0  0  0  0  0  0  0  0  0  0  0
   11.3726    1.6411   21.7664 H   0  0  0  0  0  0  0  0  0  0  0  0
    9.2595    0.9432   21.6808 C   0  0  0  0  0  0  0  0  0  0  0  0
    8.4617    2.0128   22.2591 C   0  0  0  0  0  0  0  0  0  0  0  0
    7.1181    1.8516   22.4597 O   0  0  0  0  0  0  0  0  0  0  0  0
    6.6662    2.9994   23.0308 C   0  0  0  0  0  0  0  0  0  0  0  0
    5.6150    3.0431   23.2690 H   0  0  0  0  0  0  0  0  0  0  0  0
    7.6808    3.8847   23.1991 C   0  0  0  0  0  0  0  0  0  0  0  0
    7.5989    4.8719   23.6355 H   0  0  0  0  0  0  0  0  0  0  0  0
    8.8498    3.2415   22.6895 C   0  0  0  0  0  0  0  0  0  0  0  0
    9.8564    3.6347   22.6223 H   0  0  0  0  0  0  0  0  0  0  0  0
    5.4162    0.6526   20.1201 C   0  0  0  0  0  0  0  0  0  0  0  0
    4.9692    0.6454   21.1126 H   0  0  0  0  0  0  0  0  0  0  0  0
    4.7846    1.3180   19.0678 C   0  0  0  0  0  0  0  0  0  0  0  0
    3.8486    1.8516   19.2106 H   0  0  0  0  0  0  0  0  0  0  0  0
  1  2  1  0
  2  3  2  0
  3  4  1  0
  4  5  1  0
  4  6  2  0
  6  7  1  0
  7  8  1  0
  7  9  1  0
  7 10  1  0
 10 11  1  0
 11 12  2  0
 12 13  1  0
 12 14  1  0
 14 15  1  0
 14 16  2  0
 16 17  1  0
 17 18  1  0
 18 19  1  0
 19 20  1  0
 19 21  2  0
 21 22  1  0
 21 23  1  0
 23 24  1  0
  6 25  1  0
 25 26  1  0
 25 27  2  0
 27 28  1  0
 27  2  1  0
 16 10  1  0
 23 17  2  0
M  END
>  <cnnaffinity>  (1) 
-4.35392

>  <filename>  (1) 
c1cncc(Cn2nccc2-c2ccco2)c1

$$$$
