
     RDKit          3D

 40 44  0  0  0  0  0  0  0  0999 V2000
    4.9856    1.8271   16.9054 H   0  0  0  0  0  0  0  0  0  0  0  0
    5.4195    1.2957   17.7499 C   0  0  0  0  0  0  0  0  0  0  0  0
    6.5616    0.6351   17.5078 N   0  0  0  0  0  0  0  0  0  0  0  0
    7.1304    0.0021   18.5379 C   0  0  0  0  0  0  0  0  0  0  0  0
    8.0372   -0.5528   18.3075 H   0  0  0  0  0  0  0  0  0  0  0  0
    6.6264    0.0223   19.8534 C   0  0  0  0  0  0  0  0  0  0  0  0
    7.4034   -0.5918   20.9420 C   0  0  0  0  0  0  0  0  0  0  0  0
    8.1312   -1.6889   20.7275 N   0  0  0  0  0  0  0  0  0  0  0  0
    8.6285   -1.9715   21.9300 N   0  0  0  0  0  0  0  0  0  0  0  0
    8.3116   -1.1278   22.9035 C   0  0  0  0  0  0  0  0  0  0  0  0
    7.4864   -0.1794   22.3207 C   0  0  0  0  0  0  0  0  0  0  0  0
    7.0006    1.0350   22.9728 C   0  0  0  0  0  0  0  0  0  0  0  0
    7.2401    2.2597   22.3617 C   0  0  0  0  0  0  0  0  0  0  0  0
    7.6902    2.2770   21.3707 H   0  0  0  0  0  0  0  0  0  0  0  0
    6.9322    3.4702   23.0079 C   0  0  0  0  0  0  0  0  0  0  0  0
    7.1916    4.4059   22.5172 H   0  0  0  0  0  0  0  0  0  0  0  0
    6.3327    3.4757   24.2481 C   0  0  0  0  0  0  0  0  0  0  0  0
    6.1023    4.4186   24.7408 H   0  0  0  0  0  0  0  0  0  0  0  0
    6.0157    2.2494   24.8967 C   0  0  0  0  0  0  0  0  0  0  0  0
    5.3633    2.1786   26.1701 C   0  0  0  0  0  0  0  0  0  0  0  0
    5.0899    3.1001   26.6834 H   0  0  0  0  0  0  0  0  0  0  0  0
    5.0963    0.9531   26.7195 C   0  0  0  0  0  0  0  0  0  0  0  0
    4.5928    0.8555   27.6758 H   0  0  0  0  0  0  0  0  0  0  0  0
    5.4847   -0.2187   26.0229 C   0  0  0  0  0  0  0  0  0  0  0  0
    5.2822   -1.1928   26.4619 H   0  0  0  0  0  0  0  0  0  0  0  0
    6.0958   -0.2106   24.8568 N   0  0  0  0  0  0  0  0  0  0  0  0
    6.3644    1.0036   24.2677 C   0  0  0  0  0  0  0  0  0  0  0  0
    9.0691   -1.4596   24.1652 C   0  0  0  0  0  0  0  0  0  0  0  0
    9.6592   -0.6057   24.5042 H   0  0  0  0  0  0  0  0  0  0  0  0
    8.3762   -1.7267   24.9657 H   0  0  0  0  0  0  0  0  0  0  0  0
    9.9824   -2.6269   23.7263 C   0  0  0  0  0  0  0  0  0  0  0  0
    9.9416   -3.4600   24.4264 H   0  0  0  0  0  0  0  0  0  0  0  0
   11.0177   -2.3038   23.6735 H   0  0  0  0  0  0  0  0  0  0  0  0
    9.5488   -3.0148   22.2926 C   0  0  0  0  0  0  0  0  0  0  0  0
    9.0515   -3.9844   22.2378 H   0  0  0  0  0  0  0  0  0  0  0  0
   10.3915   -2.9624   21.6103 H   0  0  0  0  0  0  0  0  0  0  0  0
    5.3881    0.6565   20.0694 C   0  0  0  0  0  0  0  0  0  0  0  0
    4.9055    0.6364   21.0499 H   0  0  0  0  0  0  0  0  0  0  0  0
    4.7847    1.3108   18.9955 C   0  0  0  0  0  0  0  0  0  0  0  0
    3.8425    1.8355   19.1106 H   0  0  0  0  0  0  0  0  0  0  0  0
  1  2  1  0
  2  3  2  0
  3  4  1  0
  4  5  1  0
  4  6  2  0
  6  7  1  0
  7  8  2  0
  8  9  1  0
  9 10  1  0
 10 11  2  0
 11 12  1  0
 12 13  2  0
 13 14  1  0
 13 15  1  0
 15 16  1  0
 15 17  2  0
 17 18  1  0
 17 19  1  0
 19 20  2  0
 20 21  1  0
 20 22  1  0
 22 23  1  0
 22 24  2  0
 24 25  1  0
 24 26  1  0
 26 27  2  0
 10 28  1  0
 28 29  1  0
 28 30  1  0
 28 31  1  0
 31 32  1  0
 31 33  1  0
 31 34  1  0
 34 35  1  0
 34 36  1  0
  6 37  1  0
 37 38  1  0
 37 39  2  0
 39 40  1  0
 39  2  1  0
 11  7  1  0
 27 12  1  0
 34  9  1  0
 27 19  1  0
M  END
>  <cnnaffinity>  (1) 
-5.8252

>  <filename>  (1) 
c1cncc(-c2nn3c(c2-c2cccc4cccnc24)CCC3)c1

$$$$
