
     RDKit          3D

 29 32  0  0  0  0  0  0  0  0999 V2000
    4.9203    1.7798   16.9984 H   0  0  0  0  0  0  0  0  0  0  0  0
    5.4026    1.2900   17.8418 C   0  0  0  0  0  0  0  0  0  0  0  0
    6.5707    0.6725   17.5895 N   0  0  0  0  0  0  0  0  0  0  0  0
    7.1808    0.0529   18.6035 C   0  0  0  0  0  0  0  0  0  0  0  0
    8.1266   -0.4375   18.3782 H   0  0  0  0  0  0  0  0  0  0  0  0
    6.6524    0.0271   19.9127 C   0  0  0  0  0  0  0  0  0  0  0  0
    7.3455   -0.6216   20.9816 N   0  0  0  0  0  0  0  0  0  0  0  0
    8.1038   -1.7177   20.7354 N   0  0  0  0  0  0  0  0  0  0  0  0
    8.5929   -2.0975   21.8505 N   0  0  0  0  0  0  0  0  0  0  0  0
    8.2001   -1.2965   22.8688 N   0  0  0  0  0  0  0  0  0  0  0  0
    7.4355   -0.3983   22.3212 C   0  0  0  0  0  0  0  0  0  0  0  0
    6.8029    0.6546   22.8879 O   0  0  0  0  0  0  0  0  0  0  0  0
    6.9383    0.8396   24.2150 C   0  0  0  0  0  0  0  0  0  0  0  0
    7.5810    0.1250   25.0656 N   0  0  0  0  0  0  0  0  0  0  0  0
    7.3527    0.7958   26.2669 C   0  0  0  0  0  0  0  0  0  0  0  0
    7.7941    0.4996   27.5614 C   0  0  0  0  0  0  0  0  0  0  0  0
    8.4189   -0.3761   27.7193 H   0  0  0  0  0  0  0  0  0  0  0  0
    7.4171    1.3476   28.6071 C   0  0  0  0  0  0  0  0  0  0  0  0
    7.7576    1.1247   29.6212 H   0  0  0  0  0  0  0  0  0  0  0  0
    6.6094    2.4756   28.3539 C   0  0  0  0  0  0  0  0  0  0  0  0
    6.3307    3.1177   29.1935 H   0  0  0  0  0  0  0  0  0  0  0  0
    6.1601    2.7819   27.0551 C   0  0  0  0  0  0  0  0  0  0  0  0
    5.5382    3.6507   26.8641 H   0  0  0  0  0  0  0  0  0  0  0  0
    6.5513    1.9174   26.0303 C   0  0  0  0  0  0  0  0  0  0  0  0
    6.2848    1.9306   24.6649 O   0  0  0  0  0  0  0  0  0  0  0  0
    5.4331    0.6527   20.1706 C   0  0  0  0  0  0  0  0  0  0  0  0
    5.0103    0.6385   21.1740 H   0  0  0  0  0  0  0  0  0  0  0  0
    4.8057    1.3039   19.1050 C   0  0  0  0  0  0  0  0  0  0  0  0
    3.8777    1.8388   19.2600 H   0  0  0  0  0  0  0  0  0  0  0  0
  1  2  1  0
  2  3  2  0
  3  4  1  0
  4  5  1  0
  4  6  2  0
  6  7  1  0
  7  8  1  0
  8  9  2  0
  9 10  1  0
 10 11  2  0
 11 12  1  0
 12 13  1  0
 13 14  2  0
 14 15  1  0
 15 16  2  0
 16 17  1  0
 16 18  1  0
 18 19  1  0
 18 20  2  0
 20 21  1  0
 20 22  1  0
 22 23  1  0
 22 24  2  0
 24 25  1  0
  6 26  1  0
 26 27  1  0
 26 28  2  0
 28 29  1  0
 28  2  1  0
 11  7  1  0
 25 13  1  0
 24 15  1  0
M  END
>  <cnnaffinity>  (1) 
-5.00561

>  <filename>  (1) 
c1cncc(-n2nnnc2Oc2nc3ccccc3o2)c1

$$$$
