
     RDKit          3D

 38 40  0  0  0  0  0  0  0  0999 V2000
    4.9200    1.7783   17.0012 H   0  0  0  0  0  0  0  0  0  0  0  0
    5.4071    1.2908   17.8437 C   0  0  0  0  0  0  0  0  0  0  0  0
    6.5730    0.6779   17.5868 N   0  0  0  0  0  0  0  0  0  0  0  0
    7.1695    0.0364   18.5959 C   0  0  0  0  0  0  0  0  0  0  0  0
    8.1214   -0.4388   18.3671 H   0  0  0  0  0  0  0  0  0  0  0  0
    6.6491   -0.0171   19.8960 C   0  0  0  0  0  0  0  0  0  0  0  0
    7.3935   -0.7468   20.9539 C   0  0  0  0  0  0  0  0  0  0  0  0
    7.7709   -1.9966   20.6634 N   0  0  0  0  0  0  0  0  0  0  0  0
    8.3742   -2.7211   21.6196 C   0  0  0  0  0  0  0  0  0  0  0  0
    8.6490   -3.7356   21.3517 H   0  0  0  0  0  0  0  0  0  0  0  0
    8.6622   -2.2085   22.8850 C   0  0  0  0  0  0  0  0  0  0  0  0
    9.1683   -2.8267   23.6153 H   0  0  0  0  0  0  0  0  0  0  0  0
    8.3101   -0.8946   23.1877 C   0  0  0  0  0  0  0  0  0  0  0  0
    8.5390   -0.4595   24.1588 H   0  0  0  0  0  0  0  0  0  0  0  0
    7.6662   -0.1081   22.2160 C   0  0  0  0  0  0  0  0  0  0  0  0
    7.3286    1.2196   22.4953 N   0  0  0  0  0  0  0  0  0  0  0  0
    7.3744    1.8852   21.7357 H   0  0  0  0  0  0  0  0  0  0  0  0
    7.0248    1.7838   23.7915 C   0  0  0  0  0  0  0  0  0  0  0  0
    6.7991    0.9366   24.4490 H   0  0  0  0  0  0  0  0  0  0  0  0
    8.2224    2.5669   24.3654 C   0  0  0  0  0  0  0  0  0  0  0  0
    9.1180    1.9349   24.3104 H   0  0  0  0  0  0  0  0  0  0  0  0
    8.0311    2.7522   25.4297 H   0  0  0  0  0  0  0  0  0  0  0  0
    8.4606    3.9057   23.6523 C   0  0  0  0  0  0  0  0  0  0  0  0
    8.7757    3.7148   22.6169 H   0  0  0  0  0  0  0  0  0  0  0  0
    9.2892    4.4415   24.1296 H   0  0  0  0  0  0  0  0  0  0  0  0
    7.1937    4.7706   23.6452 C   0  0  0  0  0  0  0  0  0  0  0  0
    6.9482    5.0463   24.6796 H   0  0  0  0  0  0  0  0  0  0  0  0
    7.3744    5.7068   23.1051 H   0  0  0  0  0  0  0  0  0  0  0  0
    5.9998    4.0270   23.0323 C   0  0  0  0  0  0  0  0  0  0  0  0
    5.0937    4.6428   23.0992 H   0  0  0  0  0  0  0  0  0  0  0  0
    6.1779    3.8628   21.9603 H   0  0  0  0  0  0  0  0  0  0  0  0
    5.7639    2.6748   23.7211 C   0  0  0  0  0  0  0  0  0  0  0  0
    4.9573    2.1239   23.2209 H   0  0  0  0  0  0  0  0  0  0  0  0
    5.4204    2.8546   24.7477 H   0  0  0  0  0  0  0  0  0  0  0  0
    5.4412    0.6466   20.1559 C   0  0  0  0  0  0  0  0  0  0  0  0
    5.0000    0.6315   21.1562 H   0  0  0  0  0  0  0  0  0  0  0  0
    4.8053    1.3061   19.1071 C   0  0  0  0  0  0  0  0  0  0  0  0
    3.8739    1.8423   19.2613 H   0  0  0  0  0  0  0  0  0  0  0  0
  1  2  1  0
  2  3  2  0
  3  4  1  0
  4  5  1  0
  4  6  2  0
  6  7  1  0
  7  8  2  0
  8  9  1  0
  9 10  1  0
  9 11  2  0
 11 12  1  0
 11 13  1  0
 13 14  1  0
 13 15  2  0
 15 16  1  0
 16 17  1  0
 16 18  1  0
 18 19  1  0
 18 20  1  0
 20 21  1  0
 20 22  1  0
 20 23  1  0
 23 24  1  0
 23 25  1  0
 23 26  1  0
 26 27  1  0
 26 28  1  0
 26 29  1  0
 29 30  1  0
 29 31  1  0
 29 32  1  0
 32 33  1  0
 32 34  1  0
  6 35  1  0
 35 36  1  0
 35 37  2  0
 37 38  1  0
 37  2  1  0
 15  7  1  0
 32 18  1  0
M  END
>  <cnnaffinity>  (1) 
-5.03018

>  <filename>  (1) 
c1cncc(-c2ncccc2NC2CCCCC2)c1

$$$$
