
     RDKit          3D

 34 36  0  0  0  0  0  0  0  0999 V2000
    6.1309    0.7106   22.4202 H   0  0  0  0  0  0  0  0  0  0  0  0
    6.5571   -0.2379   22.1001 C   0  0  0  0  0  0  0  0  0  0  0  0
    7.0959   -1.0033   23.0675 N   0  0  0  0  0  0  0  0  0  0  0  0
    7.6064   -2.2039   22.6985 C   0  0  0  0  0  0  0  0  0  0  0  0
    8.2880   -3.0624   23.7644 C   0  0  0  0  0  0  0  0  0  0  0  0
    8.0438   -2.5717   24.7177 H   0  0  0  0  0  0  0  0  0  0  0  0
    9.8441   -3.1077   23.6390 C   0  0  0  0  0  0  0  0  0  0  0  0
   10.1156   -3.4751   22.6419 H   0  0  0  0  0  0  0  0  0  0  0  0
   10.2544   -2.0956   23.7237 H   0  0  0  0  0  0  0  0  0  0  0  0
   10.5015   -4.0200   24.7014 C   0  0  0  0  0  0  0  0  0  0  0  0
   10.4081   -3.5662   25.6970 H   0  0  0  0  0  0  0  0  0  0  0  0
   11.5801   -4.1228   24.5254 H   0  0  0  0  0  0  0  0  0  0  0  0
    9.9192   -5.3557   24.7989 N   0  0  0  0  0  0  0  0  0  0  0  0
   10.2008   -5.9368   24.0194 H   0  0  0  0  0  0  0  0  0  0  0  0
    8.4632   -5.3287   24.9051 C   0  0  0  0  0  0  0  0  0  0  0  0
    8.0954   -6.3581   24.9261 H   0  0  0  0  0  0  0  0  0  0  0  0
    8.2197   -4.8873   25.8857 H   0  0  0  0  0  0  0  0  0  0  0  0
    7.7685   -4.5214   23.7922 C   0  0  0  0  0  0  0  0  0  0  0  0
    6.6816   -4.5542   23.9254 H   0  0  0  0  0  0  0  0  0  0  0  0
    7.9749   -4.9945   22.8205 H   0  0  0  0  0  0  0  0  0  0  0  0
    7.5216   -2.6119   21.3477 C   0  0  0  0  0  0  0  0  0  0  0  0
    7.8563   -3.6041   21.0494 H   0  0  0  0  0  0  0  0  0  0  0  0
    7.0487   -1.8211   20.3671 N   0  0  0  0  0  0  0  0  0  0  0  0
    6.5603   -0.6126   20.7252 C   0  0  0  0  0  0  0  0  0  0  0  0
    6.0952    0.2717   19.6063 C   0  0  0  0  0  0  0  0  0  0  0  0
    6.7754    0.2097   18.3687 C   0  0  0  0  0  0  0  0  0  0  0  0
    7.6472   -0.4330   18.2620 H   0  0  0  0  0  0  0  0  0  0  0  0
    6.4353    0.9125   17.2825 N   0  0  0  0  0  0  0  0  0  0  0  0
    5.3815    1.7353   17.3843 C   0  0  0  0  0  0  0  0  0  0  0  0
    5.0991    2.2745   16.4795 H   0  0  0  0  0  0  0  0  0  0  0  0
    4.6535    1.9065   18.5646 C   0  0  0  0  0  0  0  0  0  0  0  0
    3.8285    2.6114   18.5768 H   0  0  0  0  0  0  0  0  0  0  0  0
    5.0185    1.1703   19.6983 C   0  0  0  0  0  0  0  0  0  0  0  0
    4.4500    1.3021   20.6211 H   0  0  0  0  0  0  0  0  0  0  0  0
  1  2  1  0
  2  3  2  0
  3  4  1  0
  4  5  1  0
  5  6  1  0
  5  7  1  0
  7  8  1  0
  7  9  1  0
  7 10  1  0
 10 11  1  0
 10 12  1  0
 10 13  1  0
 13 14  1  0
 13 15  1  0
 15 16  1  0
 15 17  1  0
 15 18  1  0
 18 19  1  0
 18 20  1  0
  4 21  2  0
 21 22  1  0
 21 23  1  0
 23 24  2  0
 24 25  1  0
 25 26  2  0
 26 27  1  0
 26 28  1  0
 28 29  2  0
 29 30  1  0
 29 31  1  0
 31 32  1  0
 31 33  2  0
 33 34  1  0
 24  2  1  0
 33 25  1  0
 18  5  1  0
M  END
>  <cnnaffinity>  (1) 
-4.64975

>  <filename>  (1) 
c1cncc(-c2cnc(C3CCNCC3)cn2)c1

$$$$
