
     RDKit          3D

 31 33  0  0  0  0  0  0  0  0999 V2000
    4.9166    1.7938   16.9789 H   0  0  0  0  0  0  0  0  0  0  0  0
    5.3925    1.3034   17.8227 C   0  0  0  0  0  0  0  0  0  0  0  0
    6.5568    0.6859   17.5630 N   0  0  0  0  0  0  0  0  0  0  0  0
    7.1592    0.0729   18.5926 C   0  0  0  0  0  0  0  0  0  0  0  0
    8.1024   -0.4226   18.3750 H   0  0  0  0  0  0  0  0  0  0  0  0
    6.6419    0.0102   19.8966 C   0  0  0  0  0  0  0  0  0  0  0  0
    7.3796   -0.6777   20.9672 C   0  0  0  0  0  0  0  0  0  0  0  0
    8.6934   -0.5561   21.3755 C   0  0  0  0  0  0  0  0  0  0  0  0
    9.7026    0.4074   20.8365 C   0  0  0  0  0  0  0  0  0  0  0  0
    9.7130    0.2715   19.7546 H   0  0  0  0  0  0  0  0  0  0  0  0
   10.6956    0.1591   21.2291 H   0  0  0  0  0  0  0  0  0  0  0  0
    9.3866    1.8755   21.1473 C   0  0  0  0  0  0  0  0  0  0  0  0
    8.4319    2.1300   20.6675 H   0  0  0  0  0  0  0  0  0  0  0  0
   10.1558    2.5311   20.7140 H   0  0  0  0  0  0  0  0  0  0  0  0
    9.2919    2.1836   22.6252 C   0  0  0  0  0  0  0  0  0  0  0  0
   10.1650    1.8715   23.2015 H   0  0  0  0  0  0  0  0  0  0  0  0
    8.6104    3.4415   23.0611 C   0  0  0  0  0  0  0  0  0  0  0  0
    8.2018    4.0872   22.2830 H   0  0  0  0  0  0  0  0  0  0  0  0
    9.0163    4.0003   23.9018 H   0  0  0  0  0  0  0  0  0  0  0  0
    7.9578    2.1020   23.3152 C   0  0  0  0  0  0  0  0  0  0  0  0
    7.0992    1.8424   22.6931 H   0  0  0  0  0  0  0  0  0  0  0  0
    7.8958    1.7221   24.3339 H   0  0  0  0  0  0  0  0  0  0  0  0
    8.7889   -1.3977   22.5025 C   0  0  0  0  0  0  0  0  0  0  0  0
    9.6618   -1.5396   23.1251 H   0  0  0  0  0  0  0  0  0  0  0  0
    7.6372   -1.9889   22.7966 N   0  0  0  0  0  0  0  0  0  0  0  0
    6.7986   -1.5158   21.8572 N   0  0  0  0  0  0  0  0  0  0  0  0
    5.8336   -1.8110   21.8430 H   0  0  0  0  0  0  0  0  0  0  0  0
    5.4191    0.6566   20.1443 C   0  0  0  0  0  0  0  0  0  0  0  0
    4.9968    0.6493   21.1538 H   0  0  0  0  0  0  0  0  0  0  0  0
    4.7950    1.3199   19.0900 C   0  0  0  0  0  0  0  0  0  0  0  0
    3.8646    1.8520   19.2433 H   0  0  0  0  0  0  0  0  0  0  0  0
  1  2  1  0
  2  3  2  0
  3  4  1  0
  4  5  1  0
  4  6  2  0
  6  7  1  0
  7  8  2  0
  8  9  1  0
  9 10  1  0
  9 11  1  0
  9 12  1  0
 12 13  1  0
 12 14  1  0
 12 15  1  0
 15 16  1  0
 15 17  1  0
 17 18  1  0
 17 19  1  0
 17 20  1  0
 20 21  1  0
 20 22  1  0
  8 23  1  0
 23 24  1  0
 23 25  2  0
 25 26  1  0
 26 27  1  0
  6 28  1  0
 28 29  1  0
 28 30  2  0
 30 31  1  0
 30  2  1  0
 26  7  1  0
 20 15  1  0
M  END
>  <cnnaffinity>  (1) 
-4.90047

>  <filename>  (1) 
c1cncc(-c2[nH]ncc2CCC2CC2)c1

$$$$
