
     RDKit          3D

 39 42  0  0  0  0  0  0  0  0999 V2000
    5.1785    1.9721   16.8996 H   0  0  0  0  0  0  0  0  0  0  0  0
    5.5670    1.3483   17.7040 C   0  0  0  0  0  0  0  0  0  0  0  0
    6.6980    0.6775   17.4429 N   0  0  0  0  0  0  0  0  0  0  0  0
    7.1893   -0.0956   18.4209 C   0  0  0  0  0  0  0  0  0  0  0  0
    8.1271   -0.5978   18.1925 H   0  0  0  0  0  0  0  0  0  0  0  0
    6.5842   -0.2967   19.6847 C   0  0  0  0  0  0  0  0  0  0  0  0
    7.2107   -1.1741   20.7107 C   0  0  0  0  0  0  0  0  0  0  0  0
    8.5668   -1.0622   21.1822 C   0  0  0  0  0  0  0  0  0  0  0  0
    9.5528   -0.1940   20.7098 N   0  0  0  0  0  0  0  0  0  0  0  0
    9.2067    0.7569   20.7803 H   0  0  0  0  0  0  0  0  0  0  0  0
   10.8771   -0.3543   21.3092 C   0  0  0  0  0  0  0  0  0  0  0  0
   11.0413   -1.4196   21.4852 H   0  0  0  0  0  0  0  0  0  0  0  0
   11.6437   -0.0728   20.5940 H   0  0  0  0  0  0  0  0  0  0  0  0
   11.1427    0.4126   22.5945 C   0  0  0  0  0  0  0  0  0  0  0  0
   11.1601   -0.2273   23.8438 C   0  0  0  0  0  0  0  0  0  0  0  0
   10.8633   -1.2641   23.9305 H   0  0  0  0  0  0  0  0  0  0  0  0
   11.5507    0.4874   24.9764 C   0  0  0  0  0  0  0  0  0  0  0  0
   11.5945   -0.0040   25.9447 H   0  0  0  0  0  0  0  0  0  0  0  0
   11.9189    1.7733   24.9462 N   0  0  0  0  0  0  0  0  0  0  0  0
   11.8742    2.3943   23.7635 C   0  0  0  0  0  0  0  0  0  0  0  0
   12.1959    3.4329   23.7500 H   0  0  0  0  0  0  0  0  0  0  0  0
   11.4785    1.7748   22.5790 C   0  0  0  0  0  0  0  0  0  0  0  0
   11.4441    2.3562   21.6645 H   0  0  0  0  0  0  0  0  0  0  0  0
    8.8503   -1.9418   22.1274 N   0  0  0  0  0  0  0  0  0  0  0  0
    7.7175   -2.6145   22.2741 N   0  0  0  0  0  0  0  0  0  0  0  0
    6.7183   -2.2498   21.4583 C   0  0  0  0  0  0  0  0  0  0  0  0
    5.6001   -3.2526   21.6653 C   0  0  0  0  0  0  0  0  0  0  0  0
    4.6322   -2.7709   21.7816 H   0  0  0  0  0  0  0  0  0  0  0  0
    5.5280   -3.9234   20.8073 H   0  0  0  0  0  0  0  0  0  0  0  0
    6.0173   -4.0154   22.9611 C   0  0  0  0  0  0  0  0  0  0  0  0
    5.8541   -5.0902   22.8968 H   0  0  0  0  0  0  0  0  0  0  0  0
    5.4346   -3.6486   23.8061 H   0  0  0  0  0  0  0  0  0  0  0  0
    7.5083   -3.6915   23.2029 C   0  0  0  0  0  0  0  0  0  0  0  0
    7.7133   -3.3417   24.2189 H   0  0  0  0  0  0  0  0  0  0  0  0
    8.1950   -4.5135   22.9783 H   0  0  0  0  0  0  0  0  0  0  0  0
    5.4029    0.4278   19.9259 C   0  0  0  0  0  0  0  0  0  0  0  0
    4.9070    0.3520   20.8947 H   0  0  0  0  0  0  0  0  0  0  0  0
    4.8991    1.2726   18.9316 C   0  0  0  0  0  0  0  0  0  0  0  0
    4.0183    1.8864   19.0955 H   0  0  0  0  0  0  0  0  0  0  0  0
  1  2  1  0
  2  3  2  0
  3  4  1  0
  4  5  1  0
  4  6  2  0
  6  7  1  0
  7  8  1  0
  8  9  1  0
  9 10  1  0
  9 11  1  0
 11 12  1  0
 11 13  1  0
 11 14  1  0
 14 15  2  0
 15 16  1  0
 15 17  1  0
 17 18  1  0
 17 19  2  0
 19 20  1  0
 20 21  1  0
 20 22  2  0
 22 23  1  0
  8 24  2  0
 24 25  1  0
 25 26  1  0
 26 27  1  0
 27 28  1  0
 27 29  1  0
 27 30  1  0
 30 31  1  0
 30 32  1  0
 30 33  1  0
 33 34  1  0
 33 35  1  0
  6 36  1  0
 36 37  1  0
 36 38  2  0
 38 39  1  0
 38  2  1  0
 26  7  2  0
 22 14  1  0
 33 25  1  0
M  END
>  <cnnaffinity>  (1) 
-5.54774

>  <filename>  (1) 
c1cncc(-c2c(NCc3ccncc3)nn3c2CCC3)c1

$$$$
