
     RDKit          3D

 30 32  0  0  0  0  0  0  0  0999 V2000
    4.9166    1.8091   16.9835 H   0  0  0  0  0  0  0  0  0  0  0  0
    5.3883    1.3034   17.8253 C   0  0  0  0  0  0  0  0  0  0  0  0
    6.5523    0.6858   17.5599 N   0  0  0  0  0  0  0  0  0  0  0  0
    7.1692    0.0653   18.5714 C   0  0  0  0  0  0  0  0  0  0  0  0
    8.1215   -0.4047   18.3300 H   0  0  0  0  0  0  0  0  0  0  0  0
    6.6731    0.0076   19.8989 C   0  0  0  0  0  0  0  0  0  0  0  0
    7.3725   -0.7019   20.9939 C   0  0  0  0  0  0  0  0  0  0  0  0
    8.0556   -2.2562   20.8942 S   0  0  0  0  0  0  0  0  0  0  0  0
    8.5527   -2.2878   22.4847 N   0  0  0  0  0  0  0  0  0  0  0  0
    8.2122   -1.2158   23.1006 N   0  0  0  0  0  0  0  0  0  0  0  0
    7.5499   -0.3146   22.3263 C   0  0  0  0  0  0  0  0  0  0  0  0
    7.0580    0.8559   22.8456 N   0  0  0  0  0  0  0  0  0  0  0  0
    6.9979    1.5762   22.1386 H   0  0  0  0  0  0  0  0  0  0  0  0
    7.4069    1.2574   24.2062 C   0  0  0  0  0  0  0  0  0  0  0  0
    6.8036    2.1409   24.4416 H   0  0  0  0  0  0  0  0  0  0  0  0
    7.0915    0.4548   24.8835 H   0  0  0  0  0  0  0  0  0  0  0  0
    8.8894    1.5420   24.4815 C   0  0  0  0  0  0  0  0  0  0  0  0
    9.5387    2.6689   23.9554 C   0  0  0  0  0  0  0  0  0  0  0  0
    9.0062    3.3966   23.3469 H   0  0  0  0  0  0  0  0  0  0  0  0
   10.9041    2.8579   24.1942 C   0  0  0  0  0  0  0  0  0  0  0  0
   11.4177    3.7282   23.7848 H   0  0  0  0  0  0  0  0  0  0  0  0
   11.6526    2.0166   24.9213 N   0  0  0  0  0  0  0  0  0  0  0  0
   11.0373    0.9464   25.4440 C   0  0  0  0  0  0  0  0  0  0  0  0
   11.6633    0.2685   26.0267 H   0  0  0  0  0  0  0  0  0  0  0  0
    9.6782    0.6722   25.2631 C   0  0  0  0  0  0  0  0  0  0  0  0
    9.2602   -0.2427   25.6755 H   0  0  0  0  0  0  0  0  0  0  0  0
    5.4468    0.6582   20.1409 C   0  0  0  0  0  0  0  0  0  0  0  0
    5.0260    0.6262   21.1463 H   0  0  0  0  0  0  0  0  0  0  0  0
    4.7946    1.3135   19.0908 C   0  0  0  0  0  0  0  0  0  0  0  0
    3.8592    1.8464   19.2403 H   0  0  0  0  0  0  0  0  0  0  0  0
  1  2  1  0
  2  3  2  0
  3  4  1  0
  4  5  1  0
  4  6  2  0
  6  7  1  0
  7  8  1  0
  8  9  1  0
  9 10  2  0
 10 11  1  0
 11 12  1  0
 12 13  1  0
 12 14  1  0
 14 15  1  0
 14 16  1  0
 14 17  1  0
 17 18  2  0
 18 19  1  0
 18 20  1  0
 20 21  1  0
 20 22  2  0
 22 23  1  0
 23 24  1  0
 23 25  2  0
 25 26  1  0
  6 27  1  0
 27 28  1  0
 27 29  2  0
 29 30  1  0
 29  2  1  0
 11  7  2  0
 25 17  1  0
M  END
>  <cnnaffinity>  (1) 
-4.99202

>  <filename>  (1) 
c1cncc(-c2snnc2NCc2ccncc2)c1

$$$$
