
     RDKit          3D

 25 27  0  0  0  0  0  0  0  0999 V2000
    6.2327    5.0666   22.7522 H   0  0  0  0  0  0  0  0  0  0  0  0
    6.7985    4.1869   22.4730 C   0  0  0  0  0  0  0  0  0  0  0  0
    6.3995    2.9807   22.9827 N   0  0  0  0  0  0  0  0  0  0  0  0
    7.1731    2.0440   22.5680 C   0  0  0  0  0  0  0  0  0  0  0  0
    6.9704    0.7833   22.9935 O   0  0  0  0  0  0  0  0  0  0  0  0
    7.5084   -0.2943   22.3217 C   0  0  0  0  0  0  0  0  0  0  0  0
    8.1735   -1.3697   22.9306 C   0  0  0  0  0  0  0  0  0  0  0  0
    8.4182   -1.4933   23.9765 H   0  0  0  0  0  0  0  0  0  0  0  0
    8.4720   -2.3022   22.0281 N   0  0  0  0  0  0  0  0  0  0  0  0
    7.9968   -1.8217   20.8793 N   0  0  0  0  0  0  0  0  0  0  0  0
    8.0339   -2.3959   20.0536 H   0  0  0  0  0  0  0  0  0  0  0  0
    7.3713   -0.6115   20.9801 C   0  0  0  0  0  0  0  0  0  0  0  0
    6.6553    0.0456   19.8610 C   0  0  0  0  0  0  0  0  0  0  0  0
    7.1488    0.0824   18.5373 C   0  0  0  0  0  0  0  0  0  0  0  0
    8.1024   -0.3830   18.2837 H   0  0  0  0  0  0  0  0  0  0  0  0
    6.5287    0.6882   17.5171 N   0  0  0  0  0  0  0  0  0  0  0  0
    5.3699    1.3157   17.7793 C   0  0  0  0  0  0  0  0  0  0  0  0
    4.9126    1.8409   16.9430 H   0  0  0  0  0  0  0  0  0  0  0  0
    4.7718    1.3279   19.0436 C   0  0  0  0  0  0  0  0  0  0  0  0
    3.8402    1.8666   19.1956 H   0  0  0  0  0  0  0  0  0  0  0  0
    5.4221    0.6802   20.0956 C   0  0  0  0  0  0  0  0  0  0  0  0
    4.9855    0.6563   21.0937 H   0  0  0  0  0  0  0  0  0  0  0  0
    8.4920    2.5568   21.5264 S   0  0  0  0  0  0  0  0  0  0  0  0
    7.9124    4.1863   21.7034 C   0  0  0  0  0  0  0  0  0  0  0  0
    8.3482    5.0275   21.1814 H   0  0  0  0  0  0  0  0  0  0  0  0
  1  2  1  0
  2  3  1  0
  3  4  2  0
  4  5  1  0
  5  6  1  0
  6  7  1  0
  7  8  1  0
  7  9  2  0
  9 10  1  0
 10 11  1  0
 10 12  1  0
 12 13  1  0
 13 14  2  0
 14 15  1  0
 14 16  1  0
 16 17  2  0
 17 18  1  0
 17 19  1  0
 19 20  1  0
 19 21  2  0
 21 22  1  0
  4 23  1  0
 23 24  1  0
 24 25  1  0
 24  2  2  0
 12  6  2  0
 21 13  1  0
M  END
>  <cnnaffinity>  (1) 
-4.72898

>  <filename>  (1) 
c1cncc(-c2[nH]ncc2Oc2nccs2)c1

$$$$
