
     RDKit          3D

 24 26  0  0  0  0  0  0  0  0999 V2000
    4.9508    1.7885   17.0159 H   0  0  0  0  0  0  0  0  0  0  0  0
    5.4078    1.2789   17.8594 C   0  0  0  0  0  0  0  0  0  0  0  0
    6.5772    0.6618   17.6086 N   0  0  0  0  0  0  0  0  0  0  0  0
    7.1809    0.0555   18.6361 C   0  0  0  0  0  0  0  0  0  0  0  0
    8.1342   -0.4393   18.4536 H   0  0  0  0  0  0  0  0  0  0  0  0
    6.6592    0.0267   19.9420 C   0  0  0  0  0  0  0  0  0  0  0  0
    7.4196   -0.6562   20.8654 O   0  0  0  0  0  0  0  0  0  0  0  0
    7.1999   -0.4875   22.2030 C   0  0  0  0  0  0  0  0  0  0  0  0
    7.0473   -1.5018   23.1724 C   0  0  0  0  0  0  0  0  0  0  0  0
    7.0192   -2.5801   23.0499 H   0  0  0  0  0  0  0  0  0  0  0  0
    6.9198   -0.9619   24.3848 N   0  0  0  0  0  0  0  0  0  0  0  0
    6.9913    0.3514   24.1991 N   0  0  0  0  0  0  0  0  0  0  0  0
    6.9739    0.9952   24.9859 H   0  0  0  0  0  0  0  0  0  0  0  0
    7.1823    0.7090   22.9011 C   0  0  0  0  0  0  0  0  0  0  0  0
    7.5096    2.0791   22.5265 C   0  0  0  0  0  0  0  0  0  0  0  0
    7.2190    3.1490   23.3204 N   0  0  0  0  0  0  0  0  0  0  0  0
    7.6989    4.1991   22.7238 N   0  0  0  0  0  0  0  0  0  0  0  0
    8.2741    3.7489   21.6296 N   0  0  0  0  0  0  0  0  0  0  0  0
    8.7205    4.3685   20.9577 H   0  0  0  0  0  0  0  0  0  0  0  0
    8.1800    2.4429   21.4419 N   0  0  0  0  0  0  0  0  0  0  0  0
    5.4363    0.6539   20.1944 C   0  0  0  0  0  0  0  0  0  0  0  0
    5.0072    0.6344   21.1975 H   0  0  0  0  0  0  0  0  0  0  0  0
    4.7999    1.2946   19.1175 C   0  0  0  0  0  0  0  0  0  0  0  0
    3.8594    1.8246   19.2478 H   0  0  0  0  0  0  0  0  0  0  0  0
  1  2  1  0
  2  3  2  0
  3  4  1  0
  4  5  1  0
  4  6  2  0
  6  7  1  0
  7  8  1  0
  8  9  1  0
  9 10  1  0
  9 11  2  0
 11 12  1  0
 12 13  1  0
 12 14  1  0
 14 15  1  0
 15 16  1  0
 16 17  2  0
 17 18  1  0
 18 19  1  0
 18 20  1  0
  6 21  1  0
 21 22  1  0
 21 23  2  0
 23 24  1  0
 23  2  1  0
 14  8  2  0
 20 15  2  0
M  END
>  <cnnaffinity>  (1) 
-4.97808

>  <filename>  (1) 
c1cncc(Oc2cn[nH]c2-c2nn[nH]n2)c1

$$$$
