
     RDKit          3D

 33 36  0  0  0  0  0  0  0  0999 V2000
    4.9342    1.8266   16.9997 H   0  0  0  0  0  0  0  0  0  0  0  0
    5.4024    1.3015   17.8289 C   0  0  0  0  0  0  0  0  0  0  0  0
    6.5621    0.6789   17.5626 N   0  0  0  0  0  0  0  0  0  0  0  0
    7.1769    0.0450   18.5752 C   0  0  0  0  0  0  0  0  0  0  0  0
    8.1226   -0.4421   18.3339 H   0  0  0  0  0  0  0  0  0  0  0  0
    6.6705   -0.0203   19.9018 C   0  0  0  0  0  0  0  0  0  0  0  0
    7.3248   -0.6617   20.9659 N   0  0  0  0  0  0  0  0  0  0  0  0
    6.7461   -1.1026   21.6708 H   0  0  0  0  0  0  0  0  0  0  0  0
    8.7060   -0.7514   21.1685 C   0  0  0  0  0  0  0  0  0  0  0  0
    9.7181    0.1229   20.7084 C   0  0  0  0  0  0  0  0  0  0  0  0
    9.5719    0.9973   20.0900 H   0  0  0  0  0  0  0  0  0  0  0  0
   10.9220   -0.2350   21.1445 N   0  0  0  0  0  0  0  0  0  0  0  0
   10.6877   -1.3213   21.8991 N   0  0  0  0  0  0  0  0  0  0  0  0
   11.4843   -1.8448   22.2417 H   0  0  0  0  0  0  0  0  0  0  0  0
    9.3735   -1.6916   21.9536 C   0  0  0  0  0  0  0  0  0  0  0  0
    8.8581   -2.8227   22.7285 C   0  0  0  0  0  0  0  0  0  0  0  0
    9.2553   -3.1744   23.9844 C   0  0  0  0  0  0  0  0  0  0  0  0
    9.9473   -2.6502   24.6332 H   0  0  0  0  0  0  0  0  0  0  0  0
    8.5039   -4.6074   24.5871 S   0  0  0  0  0  0  0  0  0  0  0  0
    7.5733   -4.7857   23.1256 C   0  0  0  0  0  0  0  0  0  0  0  0
    6.6808   -5.8294   22.7956 C   0  0  0  0  0  0  0  0  0  0  0  0
    6.4281   -6.6011   23.5136 H   0  0  0  0  0  0  0  0  0  0  0  0
    6.1437   -5.8739   21.5158 C   0  0  0  0  0  0  0  0  0  0  0  0
    5.5114   -6.7097   21.2191 H   0  0  0  0  0  0  0  0  0  0  0  0
    6.4025   -4.8370   20.5998 C   0  0  0  0  0  0  0  0  0  0  0  0
    5.9921   -4.8684   19.5947 H   0  0  0  0  0  0  0  0  0  0  0  0
    7.1867   -3.7538   20.9695 C   0  0  0  0  0  0  0  0  0  0  0  0
    7.2727   -2.8880   20.3309 H   0  0  0  0  0  0  0  0  0  0  0  0
    7.8400   -3.7399   22.2189 C   0  0  0  0  0  0  0  0  0  0  0  0
    5.4418    0.6120   20.1394 C   0  0  0  0  0  0  0  0  0  0  0  0
    5.0237    0.5965   21.1450 H   0  0  0  0  0  0  0  0  0  0  0  0
    4.8060    1.2921   19.0951 C   0  0  0  0  0  0  0  0  0  0  0  0
    3.8736    1.8257   19.2541 H   0  0  0  0  0  0  0  0  0  0  0  0
  1  2  1  0
  2  3  2  0
  3  4  1  0
  4  5  1  0
  4  6  2  0
  6  7  1  0
  7  8  1  0
  7  9  1  0
  9 10  1  0
 10 11  1  0
 10 12  2  0
 12 13  1  0
 13 14  1  0
 13 15  1  0
 15 16  1  0
 16 17  2  0
 17 18  1  0
 17 19  1  0
 19 20  1  0
 20 21  2  0
 21 22  1  0
 21 23  1  0
 23 24  1  0
 23 25  2  0
 25 26  1  0
 25 27  1  0
 27 28  1  0
 27 29  2  0
  6 30  1  0
 30 31  1  0
 30 32  2  0
 32 33  1  0
 32  2  1  0
 15  9  2  0
 29 16  1  0
 29 20  1  0
M  END
>  <cnnaffinity>  (1) 
-5.67001

>  <filename>  (1) 
c1cncc(Nc2cn[nH]c2-c2csc3ccccc23)c1

$$$$
