
     RDKit          3D

 31 32  0  0  0  0  0  0  0  0999 V2000
    4.9215    1.7842   16.9901 H   0  0  0  0  0  0  0  0  0  0  0  0
    5.4003    1.2963   17.8358 C   0  0  0  0  0  0  0  0  0  0  0  0
    6.5673    0.6836   17.5775 N   0  0  0  0  0  0  0  0  0  0  0  0
    7.1645    0.0665   18.6038 C   0  0  0  0  0  0  0  0  0  0  0  0
    8.1172   -0.4119   18.3901 H   0  0  0  0  0  0  0  0  0  0  0  0
    6.6250   -0.0154   19.8968 C   0  0  0  0  0  0  0  0  0  0  0  0
    7.4027   -0.7278   20.9719 C   0  0  0  0  0  0  0  0  0  0  0  0
    6.7790   -0.8326   21.8806 H   0  0  0  0  0  0  0  0  0  0  0  0
    7.6968   -1.7373   20.6473 H   0  0  0  0  0  0  0  0  0  0  0  0
    8.6151   -0.0392   21.2507 O   0  0  0  0  0  0  0  0  0  0  0  0
    8.4716    1.0516   22.1619 C   0  0  0  0  0  0  0  0  0  0  0  0
    7.4406    1.4402   22.1501 H   0  0  0  0  0  0  0  0  0  0  0  0
    9.3816    2.1963   21.7221 C   0  0  0  0  0  0  0  0  0  0  0  0
   10.4049    1.8116   21.6411 H   0  0  0  0  0  0  0  0  0  0  0  0
    9.0852    2.5283   20.7220 H   0  0  0  0  0  0  0  0  0  0  0  0
    9.3268    3.3649   22.7199 C   0  0  0  0  0  0  0  0  0  0  0  0
    8.3210    3.8085   22.6948 H   0  0  0  0  0  0  0  0  0  0  0  0
   10.0157    4.1610   22.4174 H   0  0  0  0  0  0  0  0  0  0  0  0
    9.6418    2.9035   24.1503 C   0  0  0  0  0  0  0  0  0  0  0  0
   10.6876    2.5724   24.1890 H   0  0  0  0  0  0  0  0  0  0  0  0
    9.5561    3.7414   24.8505 H   0  0  0  0  0  0  0  0  0  0  0  0
    8.7376    1.7425   24.5881 C   0  0  0  0  0  0  0  0  0  0  0  0
    7.7013    2.1004   24.6627 H   0  0  0  0  0  0  0  0  0  0  0  0
    9.0146    1.3917   25.5891 H   0  0  0  0  0  0  0  0  0  0  0  0
    8.7907    0.5832   23.5855 C   0  0  0  0  0  0  0  0  0  0  0  0
    9.7914    0.1355   23.5696 H   0  0  0  0  0  0  0  0  0  0  0  0
    8.0997   -0.2179   23.8759 H   0  0  0  0  0  0  0  0  0  0  0  0
    5.4186    0.6482   20.1535 C   0  0  0  0  0  0  0  0  0  0  0  0
    4.9919    0.6391   21.1619 H   0  0  0  0  0  0  0  0  0  0  0  0
    4.7957    1.3173   19.0965 C   0  0  0  0  0  0  0  0  0  0  0  0
    3.8655    1.8518   19.2487 H   0  0  0  0  0  0  0  0  0  0  0  0
  1  2  1  0
  2  3  2  0
  3  4  1  0
  4  5  1  0
  4  6  2  0
  6  7  1  0
  7  8  1  0
  7  9  1  0
  7 10  1  0
 10 11  1  0
 11 12  1  0
 11 13  1  0
 13 14  1  0
 13 15  1  0
 13 16  1  0
 16 17  1  0
 16 18  1  0
 16 19  1  0
 19 20  1  0
 19 21  1  0
 19 22  1  0
 22 23  1  0
 22 24  1  0
 22 25  1  0
 25 26  1  0
 25 27  1  0
  6 28  1  0
 28 29  1  0
 28 30  2  0
 30 31  1  0
 30  2  1  0
 25 11  1  0
M  END
>  <cnnaffinity>  (1) 
-4.21397

>  <filename>  (1) 
c1cncc(COC2CCCCC2)c1

$$$$
