
     RDKit          3D

 29 31  0  0  0  0  0  0  0  0999 V2000
    5.1191    1.8258   17.0164 H   0  0  0  0  0  0  0  0  0  0  0  0
    5.5193    1.2694   17.8601 C   0  0  0  0  0  0  0  0  0  0  0  0
    6.6468    0.5786   17.6291 N   0  0  0  0  0  0  0  0  0  0  0  0
    7.1711   -0.1042   18.6562 C   0  0  0  0  0  0  0  0  0  0  0  0
    8.0886   -0.6637   18.4500 H   0  0  0  0  0  0  0  0  0  0  0  0
    6.5953   -0.1543   19.9373 C   0  0  0  0  0  0  0  0  0  0  0  0
    7.2189   -0.9226   21.0296 C   0  0  0  0  0  0  0  0  0  0  0  0
    6.3894   -2.0999   21.9671 S   0  0  0  0  0  0  0  0  0  0  0  0
    7.7359   -2.5949   22.8121 N   0  0  0  0  0  0  0  0  0  0  0  0
    8.7556   -1.8662   22.4466 C   0  0  0  0  0  0  0  0  0  0  0  0
    9.7208   -2.0567   22.9097 H   0  0  0  0  0  0  0  0  0  0  0  0
    8.5201   -0.8484   21.4582 C   0  0  0  0  0  0  0  0  0  0  0  0
    9.4275    0.2773   21.0521 C   0  0  1  0  0  0  0  0  0  0  0  0
    9.5573    0.2605   19.9619 H   0  0  0  0  0  0  0  0  0  0  0  0
    8.8957    1.6861   21.3830 C   0  0  0  0  0  0  0  0  0  0  0  0
    8.5223    1.6903   22.4254 H   0  0  0  0  0  0  0  0  0  0  0  0
    8.0642    1.9828   20.7358 H   0  0  0  0  0  0  0  0  0  0  0  0
   10.0712    2.4978   21.1377 N   0  0  0  0  0  0  0  0  0  0  0  0
   10.0429    3.4463   21.4848 H   0  0  0  0  0  0  0  0  0  0  0  0
   11.3058    1.7499   21.3513 C   0  0  0  0  0  0  0  0  0  0  0  0
   11.9341    2.1743   22.1500 H   0  0  0  0  0  0  0  0  0  0  0  0
   11.9131    1.7615   20.4304 H   0  0  0  0  0  0  0  0  0  0  0  0
   10.8255    0.3255   21.6797 C   0  0  0  0  0  0  0  0  0  0  0  0
   10.7327    0.1832   22.7657 H   0  0  0  0  0  0  0  0  0  0  0  0
   11.5008   -0.4464   21.3017 H   0  0  0  0  0  0  0  0  0  0  0  0
    5.4028    0.5482   20.1458 C   0  0  0  0  0  0  0  0  0  0  0  0
    4.9469    0.5111   21.1351 H   0  0  0  0  0  0  0  0  0  0  0  0
    4.8582    1.2802   19.0939 C   0  0  0  0  0  0  0  0  0  0  0  0
    3.9452    1.8482   19.2178 H   0  0  0  0  0  0  0  0  0  0  0  0
  1  2  1  0
  2  3  2  0
  3  4  1  0
  4  5  1  0
  4  6  2  0
  6  7  1  0
  7  8  1  0
  8  9  1  0
  9 10  2  0
 10 11  1  0
 10 12  1  0
 12 13  1  0
 13 14  1  6
 13 15  1  0
 15 16  1  0
 15 17  1  0
 15 18  1  0
 18 19  1  0
 18 20  1  0
 20 21  1  0
 20 22  1  0
 20 23  1  0
 23 24  1  0
 23 25  1  0
  6 26  1  0
 26 27  1  0
 26 28  2  0
 28 29  1  0
 28  2  1  0
 12  7  2  0
 23 13  1  0
M  END
>  <cnnaffinity>  (1) 
-4.97456

>  <filename>  (1) 
c1cncc(-c2sncc2[C@@H]2CCNC2)c1

$$$$
