
     RDKit          3D

 29 31  0  0  0  0  0  0  0  0999 V2000
    4.9105    1.8006   16.9772 H   0  0  0  0  0  0  0  0  0  0  0  0
    5.3856    1.3043   17.8206 C   0  0  0  0  0  0  0  0  0  0  0  0
    6.5485    0.6869   17.5516 N   0  0  0  0  0  0  0  0  0  0  0  0
    7.1543    0.0658   18.5713 C   0  0  0  0  0  0  0  0  0  0  0  0
    8.1068   -0.4204   18.3506 H   0  0  0  0  0  0  0  0  0  0  0  0
    6.6584    0.0404   19.8904 C   0  0  0  0  0  0  0  0  0  0  0  0
    7.3665   -0.6918   20.9727 C   0  0  0  0  0  0  0  0  0  0  0  0
    7.8577   -0.0917   22.1814 C   0  0  0  0  0  0  0  0  0  0  0  0
    7.7343    1.2478   22.3697 N   0  0  0  0  0  0  0  0  0  0  0  0
    7.3600    1.7544   21.5901 H   0  0  0  0  0  0  0  0  0  0  0  0
    8.1051    1.9511   23.5511 C   0  0  0  0  0  0  0  0  0  0  0  0
    7.4638    1.7733   24.4233 H   0  0  0  0  0  0  0  0  0  0  0  0
    9.5779    2.1585   23.7706 C   0  0  0  0  0  0  0  0  0  0  0  0
    9.9693    2.0676   24.7818 H   0  0  0  0  0  0  0  0  0  0  0  0
   10.2203    1.7547   22.9890 H   0  0  0  0  0  0  0  0  0  0  0  0
    8.6965    3.3180   23.3964 C   0  0  0  0  0  0  0  0  0  0  0  0
    8.4790    4.0567   24.1664 H   0  0  0  0  0  0  0  0  0  0  0  0
    8.7879    3.7583   22.4016 H   0  0  0  0  0  0  0  0  0  0  0  0
    8.4577   -0.7865   23.1429 N   0  0  0  0  0  0  0  0  0  0  0  0
    8.6022   -2.1007   22.9651 C   0  0  0  0  0  0  0  0  0  0  0  0
    9.0820   -2.6286   23.7867 H   0  0  0  0  0  0  0  0  0  0  0  0
    8.1697   -2.7894   21.8358 C   0  0  0  0  0  0  0  0  0  0  0  0
    8.3279   -3.8557   21.7607 H   0  0  0  0  0  0  0  0  0  0  0  0
    7.5247   -2.0646   20.8369 C   0  0  0  0  0  0  0  0  0  0  0  0
    7.0817   -2.5423   19.9650 H   0  0  0  0  0  0  0  0  0  0  0  0
    5.4368    0.6758   20.1429 C   0  0  0  0  0  0  0  0  0  0  0  0
    5.0256    0.6378   21.1523 H   0  0  0  0  0  0  0  0  0  0  0  0
    4.7916    1.3223   19.0857 C   0  0  0  0  0  0  0  0  0  0  0  0
    3.8625    1.8508   19.2408 H   0  0  0  0  0  0  0  0  0  0  0  0
  1  2  1  0
  2  3  2  0
  3  4  1  0
  4  5  1  0
  4  6  2  0
  6  7  1  0
  7  8  1  0
  8  9  1  0
  9 10  1  0
  9 11  1  0
 11 12  1  0
 11 13  1  0
 13 14  1  0
 13 15  1  0
 13 16  1  0
 16 17  1  0
 16 18  1  0
  8 19  2  0
 19 20  1  0
 20 21  1  0
 20 22  2  0
 22 23  1  0
 22 24  1  0
 24 25  1  0
  6 26  1  0
 26 27  1  0
 26 28  2  0
 28 29  1  0
 28  2  1  0
 24  7  2  0
 16 11  1  0
M  END
>  <cnnaffinity>  (1) 
-4.57894

>  <filename>  (1) 
c1cncc(-c2cccnc2NC2CC2)c1

$$$$
