
     RDKit          3D

 37 40  0  0  0  0  0  0  0  0999 V2000
    4.9682    1.8506   16.9227 H   0  0  0  0  0  0  0  0  0  0  0  0
    5.3994    1.3290   17.7777 C   0  0  0  0  0  0  0  0  0  0  0  0
    6.5457    0.6704   17.5526 N   0  0  0  0  0  0  0  0  0  0  0  0
    7.0980    0.0314   18.5938 C   0  0  0  0  0  0  0  0  0  0  0  0
    8.0276   -0.4903   18.3760 H   0  0  0  0  0  0  0  0  0  0  0  0
    6.5634   -0.0004   19.9011 C   0  0  0  0  0  0  0  0  0  0  0  0
    7.2087   -0.7604   21.0046 C   0  0  0  0  0  0  0  0  0  0  0  0
    6.6796   -1.6969   21.8681 C   0  0  0  0  0  0  0  0  0  0  0  0
    5.6559   -2.0258   21.9490 H   0  0  0  0  0  0  0  0  0  0  0  0
    7.7761   -2.1694   22.6120 C   0  0  0  0  0  0  0  0  0  0  0  0
    7.7969   -2.9309   23.3808 H   0  0  0  0  0  0  0  0  0  0  0  0
    8.9026   -1.5787   22.2514 N   0  0  0  0  0  0  0  0  0  0  0  0
    8.5489   -0.6989   21.3014 N   0  0  0  0  0  0  0  0  0  0  0  0
    9.5984    0.1428   20.7306 C   0  0  0  0  0  0  0  0  0  0  0  0
    9.1472    0.8204   20.0051 H   0  0  0  0  0  0  0  0  0  0  0  0
   10.2632   -0.5533   20.2106 H   0  0  0  0  0  0  0  0  0  0  0  0
   10.4071    0.9156   21.7479 C   0  0  0  0  0  0  0  0  0  0  0  0
   11.7008    0.4993   21.9931 C   0  0  0  0  0  0  0  0  0  0  0  0
   12.1008   -0.3557   21.4484 H   0  0  0  0  0  0  0  0  0  0  0  0
   12.5143    1.1221   22.9743 C   0  0  0  0  0  0  0  0  0  0  0  0
   13.5282    0.7645   23.1460 H   0  0  0  0  0  0  0  0  0  0  0  0
   11.9986    2.1576   23.7105 C   0  0  0  0  0  0  0  0  0  0  0  0
   12.5593    2.5967   24.5201 H   0  0  0  0  0  0  0  0  0  0  0  0
   10.6817    2.6541   23.4734 C   0  0  0  0  0  0  0  0  0  0  0  0
   10.1591    3.7496   24.2291 C   0  0  0  0  0  0  0  0  0  0  0  0
   10.8374    4.2945   24.8877 H   0  0  0  0  0  0  0  0  0  0  0  0
    8.8386    4.1129   24.1207 C   0  0  0  0  0  0  0  0  0  0  0  0
    8.4377    4.9174   24.7347 H   0  0  0  0  0  0  0  0  0  0  0  0
    7.9794    3.4278   23.2137 C   0  0  0  0  0  0  0  0  0  0  0  0
    6.9200    3.6761   23.1861 H   0  0  0  0  0  0  0  0  0  0  0  0
    8.4762    2.4342   22.3970 C   0  0  0  0  0  0  0  0  0  0  0  0
    7.8162    1.9214   21.6983 H   0  0  0  0  0  0  0  0  0  0  0  0
    9.8450    2.0051   22.5020 C   0  0  0  0  0  0  0  0  0  0  0  0
    5.3563    0.6864   20.1034 C   0  0  0  0  0  0  0  0  0  0  0  0
    4.8913    0.7169   21.0902 H   0  0  0  0  0  0  0  0  0  0  0  0
    4.7713    1.3599   19.0263 C   0  0  0  0  0  0  0  0  0  0  0  0
    3.8452    1.9105   19.1348 H   0  0  0  0  0  0  0  0  0  0  0  0
  1  2  1  0
  2  3  2  0
  3  4  1  0
  4  5  1  0
  4  6  2  0
  6  7  1  0
  7  8  2  0
  8  9  1  0
  8 10  1  0
 10 11  1  0
 10 12  2  0
 12 13  1  0
 13 14  1  0
 14 15  1  0
 14 16  1  0
 14 17  1  0
 17 18  2  0
 18 19  1  0
 18 20  1  0
 20 21  1  0
 20 22  2  0
 22 23  1  0
 22 24  1  0
 24 25  2  0
 25 26  1  0
 25 27  1  0
 27 28  1  0
 27 29  2  0
 29 30  1  0
 29 31  1  0
 31 32  1  0
 31 33  2  0
  6 34  1  0
 34 35  1  0
 34 36  2  0
 36 37  1  0
 36  2  1  0
 13  7  1  0
 33 17  1  0
 33 24  1  0
M  END
>  <cnnaffinity>  (1) 
-5.49578

>  <filename>  (1) 
c1cncc(-c2ccnn2Cc2cccc3ccccc23)c1

$$$$
