
     RDKit          3D

 31 34  0  0  0  0  0  0  0  0999 V2000
    4.8080    1.2933   19.1034 C   0  0  0  0  0  0  0  0  0  0  0  0
    5.4087    1.2875   17.8431 C   0  0  0  0  0  0  0  0  0  0  0  0
    6.5750    0.6680   17.5993 N   0  0  0  0  0  0  0  0  0  0  0  0
    7.1745    0.0290   18.6052 C   0  0  0  0  0  0  0  0  0  0  0  0
    6.6495   -0.0173   19.9088 C   0  0  0  0  0  0  0  0  0  0  0  0
    7.3664   -0.7110   20.9240 N   0  0  0  0  0  0  0  0  0  0  0  0
    7.8161   -1.9606   20.7050 N   0  0  0  0  0  0  0  0  0  0  0  0
    8.2998   -2.3749   21.8682 C   0  0  0  0  0  0  0  0  0  0  0  0
    8.1877   -1.3920   22.8626 C   0  0  0  0  0  0  0  0  0  0  0  0
    7.6043   -0.3168   22.2229 C   0  0  0  0  0  0  0  0  0  0  0  0
    7.3374    0.9875   22.7783 C   0  0  0  0  0  0  0  0  0  0  0  0
    7.0742    1.2702   24.0888 C   0  0  0  0  0  0  0  0  0  0  0  0
    6.9432    2.6730   24.2100 C   0  0  0  0  0  0  0  0  0  0  0  0
    6.6889    3.5416   25.2871 C   0  0  0  0  0  0  0  0  0  0  0  0
    6.6428    4.8976   25.0113 C   0  0  0  0  0  0  0  0  0  0  0  0
    6.8263    5.4291   23.7805 N   0  0  0  0  0  0  0  0  0  0  0  0
    7.0685    4.6217   22.7485 C   0  0  0  0  0  0  0  0  0  0  0  0
    7.1419    3.2221   22.9196 C   0  0  0  0  0  0  0  0  0  0  0  0
    7.3910    2.1699   22.0651 N   0  0  0  0  0  0  0  0  0  0  0  0
    7.5547    2.2018   21.0746 H   0  0  0  0  0  0  0  0  0  0  0  0
    7.2077    5.0938   21.7773 H   0  0  0  0  0  0  0  0  0  0  0  0
    6.4505    5.6159   25.8050 H   0  0  0  0  0  0  0  0  0  0  0  0
    6.5430    3.1534   26.2841 H   0  0  0  0  0  0  0  0  0  0  0  0
    6.9840    0.5298   24.8728 H   0  0  0  0  0  0  0  0  0  0  0  0
    8.5197   -1.3987   23.8930 H   0  0  0  0  0  0  0  0  0  0  0  0
    8.7118   -3.3756   21.9475 H   0  0  0  0  0  0  0  0  0  0  0  0
    5.4296    0.6259   20.1625 C   0  0  0  0  0  0  0  0  0  0  0  0
    5.0010    0.6376   21.1671 H   0  0  0  0  0  0  0  0  0  0  0  0
    8.1212   -0.4510   18.3723 H   0  0  0  0  0  0  0  0  0  0  0  0
    4.9448    1.7884   16.9964 H   0  0  0  0  0  0  0  0  0  0  0  0
    3.8818    1.8322   19.2503 H   0  0  0  0  0  0  0  0  0  0  0  0
  1  2  2  0
  2  3  1  0
  3  4  2  0
  4  5  1  0
  5  6  1  0
  6  7  1  0
  7  8  2  0
  8  9  1  0
  9 10  2  0
 10 11  1  0
 11 12  2  0
 12 13  1  0
 13 14  2  0
 14 15  1  0
 15 16  2  0
 16 17  1  0
 17 18  2  0
 18 19  1  0
 19 20  1  0
 17 21  1  0
 15 22  1  0
 14 23  1  0
 12 24  1  0
  9 25  1  0
  8 26  1  0
  5 27  2  0
 27 28  1  0
  4 29  1  0
  2 30  1  0
  1 31  1  0
 27  1  1  0
 10  6  1  0
 19 11  1  0
 18 13  1  0
M  END
>  <cnnaffinity>  (1) 
-5.28923

>  <filename>  (1) 
c1cncc(-n2nccc2-c2cc3ccncc3[nH]2)c1

$$$$
