
     RDKit          3D

 38 40  0  0  0  0  0  0  0  0999 V2000
    4.8126    1.3069   19.1097 C   0  0  0  0  0  0  0  0  0  0  0  0
    5.4077    1.2913   17.8448 C   0  0  0  0  0  0  0  0  0  0  0  0
    6.5741    0.6686   17.6050 N   0  0  0  0  0  0  0  0  0  0  0  0
    7.1781    0.0415   18.6188 C   0  0  0  0  0  0  0  0  0  0  0  0
    6.6708    0.0232   19.9290 C   0  0  0  0  0  0  0  0  0  0  0  0
    7.4077   -0.6480   20.9443 N   0  0  0  0  0  0  0  0  0  0  0  0
    7.7747   -1.9366   20.7756 N   0  0  0  0  0  0  0  0  0  0  0  0
    8.3965   -2.2776   21.8943 C   0  0  0  0  0  0  0  0  0  0  0  0
    8.4573   -1.2002   22.8049 C   0  0  0  0  0  0  0  0  0  0  0  0
    7.8183   -0.1653   22.1567 C   0  0  0  0  0  0  0  0  0  0  0  0
    7.6444    1.2642   22.5572 C   0  0  0  0  0  0  0  0  0  0  0  0
    8.4868    2.1982   21.6792 N   0  0  0  0  0  4  0  0  0  0  0  0
    9.9699    1.7898   21.5967 C   0  0  0  0  0  0  0  0  0  0  0  0
   10.7074    1.8455   22.9419 C   0  0  0  0  0  0  0  0  0  0  0  0
   10.9839    3.2675   23.4558 C   0  0  0  0  0  0  0  0  0  0  0  0
   12.3180    3.7373   22.8687 C   0  0  0  0  0  0  0  0  0  0  0  0
   13.2993    2.5757   23.0233 C   0  0  0  0  0  0  0  0  0  0  0  0
   12.3467    1.0505   22.7350 S   0  0  0  0  0  0  0  0  0  0  0  0
   13.7325    2.5257   24.0214 H   0  0  0  0  0  0  0  0  0  0  0  0
   14.1425    2.6397   22.3400 H   0  0  0  0  0  0  0  0  0  0  0  0
   12.1995    3.9972   21.8076 H   0  0  0  0  0  0  0  0  0  0  0  0
   12.6933    4.6358   23.3688 H   0  0  0  0  0  0  0  0  0  0  0  0
   10.1648    3.9529   23.2012 H   0  0  0  0  0  0  0  0  0  0  0  0
   11.0374    3.2522   24.5486 H   0  0  0  0  0  0  0  0  0  0  0  0
   10.1603    1.2558   23.6828 H   0  0  0  0  0  0  0  0  0  0  0  0
   10.4979    2.4389   20.8951 H   0  0  0  0  0  0  0  0  0  0  0  0
   10.0458    0.7699   21.2190 H   0  0  0  0  0  0  0  0  0  0  0  0
    8.4649    3.1831   22.0430 H   0  0  0  0  0  0  0  0  0  0  0  0
    8.0296    2.1704   20.7334 H   0  0  0  0  0  0  0  0  0  0  0  0
    6.6018    1.5838   22.5188 H   0  0  0  0  0  0  0  0  0  0  0  0
    7.9717    1.3173   23.5958 H   0  0  0  0  0  0  0  0  0  0  0  0
    8.9596   -1.1460   23.7664 H   0  0  0  0  0  0  0  0  0  0  0  0
    8.7884   -3.2831   21.9993 H   0  0  0  0  0  0  0  0  0  0  0  0
    5.4430    0.6588   20.1769 C   0  0  0  0  0  0  0  0  0  0  0  0
    4.9869    0.6305   21.1697 H   0  0  0  0  0  0  0  0  0  0  0  0
    8.1183   -0.4451   18.3737 H   0  0  0  0  0  0  0  0  0  0  0  0
    4.9351    1.7824   16.9946 H   0  0  0  0  0  0  0  0  0  0  0  0
    3.8795    1.8345   19.2554 H   0  0  0  0  0  0  0  0  0  0  0  0
  1  2  2  0
  2  3  1  0
  3  4  2  0
  4  5  1  0
  5  6  1  0
  6  7  1  0
  7  8  2  0
  8  9  1  0
  9 10  2  0
 10 11  1  0
 11 12  1  0
 12 13  1  0
 13 14  1  0
 14 15  1  0
 15 16  1  0
 16 17  1  0
 17 18  1  0
 17 19  1  0
 17 20  1  0
 16 21  1  0
 16 22  1  0
 15 23  1  0
 15 24  1  0
 14 25  1  0
 13 26  1  0
 13 27  1  0
 12 28  1  0
 12 29  1  0
 11 30  1  0
 11 31  1  0
  9 32  1  0
  8 33  1  0
  5 34  2  0
 34 35  1  0
  4 36  1  0
  2 37  1  0
  1 38  1  0
 34  1  1  0
 10  6  1  0
 18 14  1  0
M  CHG  1  12   1
M  END
>  <cnnaffinity>  (1) 
-5.05927

>  <filename>  (1) 
c1cncc(-n2nccc2C[NH2+]CC2CCCS2)c1

$$$$
