
     RDKit          3D

 32 35  0  0  0  0  0  0  0  0999 V2000
    4.9178    1.7852   16.9948 H   0  0  0  0  0  0  0  0  0  0  0  0
    5.4014    1.2950   17.8368 C   0  0  0  0  0  0  0  0  0  0  0  0
    6.5666    0.6791   17.5721 N   0  0  0  0  0  0  0  0  0  0  0  0
    7.1687    0.0568   18.5915 C   0  0  0  0  0  0  0  0  0  0  0  0
    8.1185   -0.4211   18.3669 H   0  0  0  0  0  0  0  0  0  0  0  0
    6.6626    0.0020   19.9078 C   0  0  0  0  0  0  0  0  0  0  0  0
    7.3772   -0.6972   21.0006 C   0  0  0  0  0  0  0  0  0  0  0  0
    8.0371   -2.2605   20.7694 S   0  0  0  0  0  0  0  0  0  0  0  0
    8.5472   -2.4093   22.3867 C   0  0  0  0  0  0  0  0  0  0  0  0
    9.0565   -3.3017   22.7134 H   0  0  0  0  0  0  0  0  0  0  0  0
    8.2234   -1.3053   23.1013 C   0  0  0  0  0  0  0  0  0  0  0  0
    8.4614   -1.1477   24.1477 H   0  0  0  0  0  0  0  0  0  0  0  0
    7.5618   -0.3068   22.3128 C   0  0  0  0  0  0  0  0  0  0  0  0
    7.1864    1.0139   22.8466 C   0  0  0  0  0  0  0  0  0  0  0  0
    6.5480    1.0980   24.1206 C   0  0  0  0  0  0  0  0  0  0  0  0
    6.3400    0.1692   24.6523 H   0  0  0  0  0  0  0  0  0  0  0  0
    6.1851    2.3132   24.6773 C   0  0  0  0  0  0  0  0  0  0  0  0
    5.7041    2.3799   25.6531 H   0  0  0  0  0  0  0  0  0  0  0  0
    6.4812    3.4707   23.9298 C   0  0  0  0  0  0  0  0  0  0  0  0
    7.1209    3.4199   22.6676 C   0  0  0  0  0  0  0  0  0  0  0  0
    7.4784    2.1778   22.1327 C   0  0  0  0  0  0  0  0  0  0  0  0
    7.9602    2.1215   21.1604 H   0  0  0  0  0  0  0  0  0  0  0  0
    7.2524    4.7728   22.2075 C   0  0  0  0  0  0  0  0  0  0  0  0
    7.6984    5.0740   21.2709 H   0  0  0  0  0  0  0  0  0  0  0  0
    6.7159    5.5813   23.1662 C   0  0  0  0  0  0  0  0  0  0  0  0
    6.6240    6.6642   23.1926 H   0  0  0  0  0  0  0  0  0  0  0  0
    6.2519    4.7932   24.2052 N   0  0  0  0  0  0  0  0  0  0  0  0
    5.8091    5.1099   25.0458 H   0  0  0  0  0  0  0  0  0  0  0  0
    5.4329    0.6394   20.1525 C   0  0  0  0  0  0  0  0  0  0  0  0
    5.0187    0.6379   21.1649 H   0  0  0  0  0  0  0  0  0  0  0  0
    4.8007    1.3039   19.1003 C   0  0  0  0  0  0  0  0  0  0  0  0
    3.8722    1.8426   19.2551 H   0  0  0  0  0  0  0  0  0  0  0  0
  1  2  1  0
  2  3  2  0
  3  4  1  0
  4  5  1  0
  4  6  2  0
  6  7  1  0
  7  8  1  0
  8  9  1  0
  9 10  1  0
  9 11  2  0
 11 12  1  0
 11 13  1  0
 13 14  1  0
 14 15  2  0
 15 16  1  0
 15 17  1  0
 17 18  1  0
 17 19  2  0
 19 20  1  0
 20 21  2  0
 21 22  1  0
 20 23  1  0
 23 24  1  0
 23 25  2  0
 25 26  1  0
 25 27  1  0
 27 28  1  0
  6 29  1  0
 29 30  1  0
 29 31  2  0
 31 32  1  0
 31  2  1  0
 13  7  2  0
 21 14  1  0
 27 19  1  0
M  END
>  <cnnaffinity>  (1) 
-5.09577

>  <filename>  (1) 
c1cncc(-c2sccc2-c2ccc3[nH]ccc3c2)c1

$$$$
