
     RDKit          3D

 48 53  0  0  0  0  0  0  0  0999 V2000
    4.6223    1.4161   18.4603 C   0  0  0  0  0  0  0  0  0  0  0  0
    5.2145    1.3010   17.1987 C   0  0  0  0  0  0  0  0  0  0  0  0
    6.2289    0.4676   16.9258 N   0  0  0  0  0  0  0  0  0  0  0  0
    6.7421   -0.2248   17.9499 C   0  0  0  0  0  0  0  0  0  0  0  0
    6.3071   -0.0942   19.2808 C   0  0  0  0  0  0  0  0  0  0  0  0
    7.0802   -0.6378   20.4715 C   0  0  0  0  0  0  0  0  0  0  0  0
    7.8445    0.4365   21.2072 C   0  0  0  0  0  0  0  0  0  0  0  0
    9.0161    0.8354   20.7432 N   0  0  0  0  0  0  0  0  0  0  0  0
    9.4620    1.6631   21.7164 N   0  0  0  0  0  0  0  0  0  0  0  0
   10.8411    2.0335   21.8513 C   0  0  0  0  0  0  0  0  0  0  0  0
   11.1913    3.3327   22.2011 C   0  0  0  0  0  0  0  0  0  0  0  0
   12.4969    3.6285   22.6278 C   0  0  0  0  0  0  0  0  0  0  0  0
   13.4407    2.7190   22.7773 N   0  0  0  0  0  0  0  0  0  0  0  0
   13.1359    1.4414   22.3741 C   0  0  0  0  0  0  0  0  0  0  0  0
   14.1328    0.4401   22.4942 C   0  0  0  0  0  0  0  0  0  0  0  0
   13.8706   -0.8515   22.0780 C   0  0  0  0  0  0  0  0  0  0  0  0
   12.5891   -1.1619   21.5742 C   0  0  0  0  0  0  0  0  0  0  0  0
   11.6145   -0.2795   21.4627 N   0  0  0  0  0  0  0  0  0  0  0  0
   11.8599    1.0180   21.8406 C   0  0  0  0  0  0  0  0  0  0  0  0
   12.3408   -2.1746   21.2706 H   0  0  0  0  0  0  0  0  0  0  0  0
   14.6090   -1.6447   22.1394 H   0  0  0  0  0  0  0  0  0  0  0  0
   15.0676    0.7745   22.9164 H   0  0  0  0  0  0  0  0  0  0  0  0
   12.7662    4.6521   22.8928 H   0  0  0  0  0  0  0  0  0  0  0  0
   10.4692    4.1307   22.1779 H   0  0  0  0  0  0  0  0  0  0  0  0
    8.5067    1.7634   22.6949 C   0  0  0  0  0  0  0  0  0  0  0  0
    8.8563    2.4628   23.9746 C   0  0  0  0  0  0  0  0  0  0  0  0
   10.0226    1.8583   24.7532 C   0  0  0  0  0  0  0  0  0  0  0  0
    9.8394    0.8459   25.8464 C   0  0  0  0  0  0  0  0  0  0  0  0
   10.4437    0.4306   24.5446 C   0  0  0  0  0  0  0  0  0  0  0  0
   11.5113    0.2123   24.4797 H   0  0  0  0  0  0  0  0  0  0  0  0
    9.8204   -0.1721   23.8884 H   0  0  0  0  0  0  0  0  0  0  0  0
   10.5129    0.8848   26.6910 H   0  0  0  0  0  0  0  0  0  0  0  0
    8.8245    0.5152   26.0678 H   0  0  0  0  0  0  0  0  0  0  0  0
   10.8437    2.5657   24.8817 H   0  0  0  0  0  0  0  0  0  0  0  0
    7.7545    3.1838   24.7132 C   0  0  0  0  0  0  0  0  0  0  0  0
    8.8018    3.9780   24.0035 C   0  0  0  0  0  0  0  0  0  0  0  0
    8.5335    4.4926   23.0812 H   0  0  0  0  0  0  0  0  0  0  0  0
    9.5657    4.4736   24.6045 H   0  0  0  0  0  0  0  0  0  0  0  0
    6.7655    3.1579   24.2620 H   0  0  0  0  0  0  0  0  0  0  0  0
    7.7657    3.1754   25.8016 H   0  0  0  0  0  0  0  0  0  0  0  0
    7.4718    0.9980   22.3872 N   0  0  0  0  0  0  0  0  0  0  0  0
    6.4050   -1.1138   21.1902 H   0  0  0  0  0  0  0  0  0  0  0  0
    7.8170   -1.3832   20.1492 H   0  0  0  0  0  0  0  0  0  0  0  0
    5.1745    0.6962   19.5190 C   0  0  0  0  0  0  0  0  0  0  0  0
    4.7497    0.7434   20.5247 H   0  0  0  0  0  0  0  0  0  0  0  0
    7.5500   -0.9163   17.7035 H   0  0  0  0  0  0  0  0  0  0  0  0
    4.8710    1.9092   16.3671 H   0  0  0  0  0  0  0  0  0  0  0  0
    3.7742    2.0779   18.6026 H   0  0  0  0  0  0  0  0  0  0  0  0
  1  2  2  0
  2  3  1  0
  3  4  2  0
  4  5  1  0
  5  6  1  0
  6  7  1  0
  7  8  2  0
  8  9  1  0
  9 10  1  0
 10 11  2  0
 11 12  1  0
 12 13  2  0
 13 14  1  0
 14 15  2  0
 15 16  1  0
 16 17  2  0
 17 18  1  0
 18 19  2  0
 17 20  1  0
 16 21  1  0
 15 22  1  0
 12 23  1  0
 11 24  1  0
  9 25  1  0
 25 26  1  0
 26 27  1  0
 27 28  1  0
 28 29  1  0
 29 30  1  0
 29 31  1  0
 28 32  1  0
 28 33  1  0
 27 34  1  0
 26 35  1  0
 35 36  1  0
 36 37  1  0
 36 38  1  0
 35 39  1  0
 35 40  1  0
 25 41  2  0
  6 42  1  0
  6 43  1  0
  5 44  2  0
 44 45  1  0
  4 46  1  0
  2 47  1  0
  1 48  1  0
 44  1  1  0
 41  7  1  0
 19 10  1  0
 36 26  1  0
 19 14  1  0
 29 27  1  0
M  END
>  <cnnaffinity>  (1) 
-6.89511

>  <filename>  (1) 
c1cncc(Cc2nc(C3(C4CC4)CC3)n(-c3ccnc4cccnc34)n2)c1

$$$$
