
     RDKit          3D

 34 35  0  0  0  0  0  0  0  0999 V2000
    9.3070   -0.1905   20.4014 H   0  0  0  0  0  0  0  0  0  0  0  0
    8.6848   -0.7386   21.0946 C   0  0  0  0  0  0  0  0  0  0  0  0
    9.1858   -1.3020   21.8761 H   0  0  0  0  0  0  0  0  0  0  0  0
    7.3496   -0.7016   20.9954 C   0  0  0  0  0  0  0  0  0  0  0  0
    6.4769   -1.2334   21.9024 O   0  0  0  0  0  0  0  0  0  0  0  0
    6.9877   -2.0901   22.9172 C   0  0  0  0  0  0  0  0  0  0  0  0
    7.8041   -1.5872   23.4509 H   0  0  0  0  0  0  0  0  0  0  0  0
    6.1726   -2.2384   23.6266 H   0  0  0  0  0  0  0  0  0  0  0  0
    7.4303   -3.4476   22.3684 C   0  0  0  0  0  0  0  0  0  0  0  0
    8.1212   -3.3105   21.5149 H   0  0  0  0  0  0  0  0  0  0  0  0
    6.5424   -3.9394   21.9519 H   0  0  0  0  0  0  0  0  0  0  0  0
    7.9804   -4.2775   23.4228 N   0  0  0  0  0  0  0  0  0  0  0  0
    8.1801   -5.6698   23.0684 C   0  0  0  0  0  0  0  0  0  0  0  0
    7.2121   -6.1675   22.9250 H   0  0  0  0  0  0  0  0  0  0  0  0
    8.7366   -5.7969   22.1192 H   0  0  0  0  0  0  0  0  0  0  0  0
    8.9767   -6.2205   24.2500 C   0  0  0  0  0  0  0  0  0  0  0  0
    8.3078   -6.5803   25.0371 H   0  0  0  0  0  0  0  0  0  0  0  0
    9.6178   -7.0491   23.9490 H   0  0  0  0  0  0  0  0  0  0  0  0
    9.8090   -5.0261   24.7483 C   0  0  0  0  0  0  0  0  0  0  0  0
   10.8644   -5.1376   24.4818 H   0  0  0  0  0  0  0  0  0  0  0  0
    9.7530   -4.9429   25.8357 H   0  0  0  0  0  0  0  0  0  0  0  0
    9.1943   -3.7879   24.0754 C   0  0  0  0  0  0  0  0  0  0  0  0
    8.9414   -3.0154   24.8142 H   0  0  0  0  0  0  0  0  0  0  0  0
    9.9070   -3.3303   23.3610 H   0  0  0  0  0  0  0  0  0  0  0  0
    6.6338   -0.0145   19.9002 C   0  0  0  0  0  0  0  0  0  0  0  0
    7.1808    0.0179   18.6077 C   0  0  0  0  0  0  0  0  0  0  0  0
    8.0939   -0.5395   18.3867 H   0  0  0  0  0  0  0  0  0  0  0  0
    6.6219    0.6574   17.5734 N   0  0  0  0  0  0  0  0  0  0  0  0
    5.4689    1.3041   17.8055 C   0  0  0  0  0  0  0  0  0  0  0  0
    5.0336    1.8281   16.9587 H   0  0  0  0  0  0  0  0  0  0  0  0
    4.8160    1.3102   19.0466 C   0  0  0  0  0  0  0  0  0  0  0  0
    3.8741    1.8357   19.1695 H   0  0  0  0  0  0  0  0  0  0  0  0
    5.3995    0.6277   20.1081 C   0  0  0  0  0  0  0  0  0  0  0  0
    4.9397    0.5594   21.0940 H   0  0  0  0  0  0  0  0  0  0  0  0
  1  2  1  0
  2  3  1  0
  2  4  2  3
  4  5  1  0
  5  6  1  0
  6  7  1  0
  6  8  1  0
  6  9  1  0
  9 10  1  0
  9 11  1  0
  9 12  1  0
 12 13  1  0
 13 14  1  0
 13 15  1  0
 13 16  1  0
 16 17  1  0
 16 18  1  0
 16 19  1  0
 19 20  1  0
 19 21  1  0
 19 22  1  0
 22 23  1  0
 22 24  1  0
  4 25  1  0
 25 26  2  0
 26 27  1  0
 26 28  1  0
 28 29  2  0
 29 30  1  0
 29 31  1  0
 31 32  1  0
 31 33  2  0
 33 34  1  0
 22 12  1  0
 33 25  1  0
M  END
>  <cnnaffinity>  (1) 
-4.20588

>  <filename>  (1) 
C=C(OCCN1CCCC1)c1cccnc1

$$$$
