
     RDKit          3D

 31 31  0  0  0  0  0  0  0  0999 V2000
    7.7211   -5.6811   21.3975 H   0  0  0  0  0  0  0  0  0  0  0  0
    8.2075   -5.0916   20.8106 O   0  0  0  0  0  0  0  0  0  0  0  0
    8.1040   -3.7857   21.3614 C   0  0  0  0  0  0  0  0  0  0  0  0
    8.8184   -3.1649   20.8189 H   0  0  0  0  0  0  0  0  0  0  0  0
    8.4428   -3.7611   22.4192 H   0  0  0  0  0  0  0  0  0  0  0  0
    6.6656   -3.2165   21.3021 C   0  0  0  0  0  0  0  0  0  0  0  0
    5.7908   -4.0655   22.2477 C   0  0  0  0  0  0  0  0  0  0  0  0
    4.7876   -3.6399   22.3414 H   0  0  0  0  0  0  0  0  0  0  0  0
    6.2267   -4.1332   23.2522 H   0  0  0  0  0  0  0  0  0  0  0  0
    5.6633   -5.0922   21.8799 H   0  0  0  0  0  0  0  0  0  0  0  0
    6.0488   -3.2837   19.8903 C   0  0  0  0  0  0  0  0  0  0  0  0
    5.0114   -2.9439   19.9155 H   0  0  0  0  0  0  0  0  0  0  0  0
    6.5569   -2.6210   19.1828 H   0  0  0  0  0  0  0  0  0  0  0  0
    6.0650   -4.3132   19.5090 H   0  0  0  0  0  0  0  0  0  0  0  0
    6.6709   -1.7403   21.8078 C   0  0  0  0  0  0  0  0  0  0  0  0
    7.0794   -1.7141   22.8296 H   0  0  0  0  0  0  0  0  0  0  0  0
    5.6275   -1.4231   21.8606 H   0  0  0  0  0  0  0  0  0  0  0  0
    7.4177   -0.7205   20.9573 C   0  0  0  0  0  0  0  0  0  0  0  0
    8.7116   -0.4516   21.1330 C   0  0  0  0  0  0  0  0  0  0  0  0
    9.2969   -0.9642   21.8928 H   0  0  0  0  0  0  0  0  0  0  0  0
    9.2181    0.3032   20.5359 H   0  0  0  0  0  0  0  0  0  0  0  0
    6.6710   -0.0058   19.8809 C   0  0  0  0  0  0  0  0  0  0  0  0
    7.1976    0.0692   18.5789 C   0  0  0  0  0  0  0  0  0  0  0  0
    8.1435   -0.4335   18.3603 H   0  0  0  0  0  0  0  0  0  0  0  0
    6.6066    0.6973   17.5548 N   0  0  0  0  0  0  0  0  0  0  0  0
    5.4368    1.3082   17.8060 C   0  0  0  0  0  0  0  0  0  0  0  0
    4.9664    1.8144   16.9653 H   0  0  0  0  0  0  0  0  0  0  0  0
    4.8247    1.3005   19.0632 C   0  0  0  0  0  0  0  0  0  0  0  0
    3.8780    1.8100   19.2022 H   0  0  0  0  0  0  0  0  0  0  0  0
    5.4434    0.6341   20.1166 C   0  0  0  0  0  0  0  0  0  0  0  0
    5.0012    0.6160   21.1136 H   0  0  0  0  0  0  0  0  0  0  0  0
  1  2  1  0
  2  3  1  0
  3  4  1  0
  3  5  1  0
  3  6  1  0
  6  7  1  0
  7  8  1  0
  7  9  1  0
  7 10  1  0
  6 11  1  0
 11 12  1  0
 11 13  1  0
 11 14  1  0
  6 15  1  0
 15 16  1  0
 15 17  1  0
 15 18  1  0
 18 19  2  3
 19 20  1  0
 19 21  1  0
 18 22  1  0
 22 23  2  0
 23 24  1  0
 23 25  1  0
 25 26  2  0
 26 27  1  0
 26 28  1  0
 28 29  1  0
 28 30  2  0
 30 31  1  0
 30 22  1  0
M  END
>  <cnnaffinity>  (1) 
-4.56097

>  <filename>  (1) 
C=C(CC(C)(C)CO)c1cccnc1

$$$$
