
     RDKit          3D

 28 29  0  0  0  0  0  0  0  0999 V2000
   10.8509    0.0879   21.2043 H   0  0  0  0  0  0  0  0  0  0  0  0
    9.9105   -0.4213   21.0093 C   0  0  0  0  0  0  0  0  0  0  0  0
    9.9720   -1.3947   20.5224 H   0  0  0  0  0  0  0  0  0  0  0  0
    8.7323    0.1146   21.3504 C   0  0  0  0  0  0  0  0  0  0  0  0
    8.6187    1.4575   22.0267 C   0  0  0  0  0  0  0  0  0  0  0  0
    9.6681    2.2781   21.9345 N   0  0  0  0  0  0  0  0  0  0  0  0
    9.5794    3.3852   22.6442 C   0  0  0  0  0  0  0  0  0  0  0  0
   10.7009    4.1313   22.7018 N   0  0  0  0  0  0  0  0  0  0  0  0
   11.1662    3.9497   21.8288 H   0  0  0  0  0  0  0  0  0  0  0  0
   10.3619    5.0680   22.8200 H   0  0  0  0  0  0  0  0  0  0  0  0
    8.5393    3.8816   23.3001 N   0  0  0  0  0  0  0  0  0  0  0  0
    7.5098    3.0517   23.3835 C   0  0  0  0  0  0  0  0  0  0  0  0
    6.6650    3.3952   23.9888 H   0  0  0  0  0  0  0  0  0  0  0  0
    7.4883    1.7988   22.7838 C   0  0  0  0  0  0  0  0  0  0  0  0
    6.6612    1.1170   22.9175 H   0  0  0  0  0  0  0  0  0  0  0  0
    7.4445   -0.6453   21.0164 C   0  0  0  0  0  0  0  0  0  0  0  0
    7.7123   -1.6658   20.6979 H   0  0  0  0  0  0  0  0  0  0  0  0
    6.8172   -0.7865   21.9075 H   0  0  0  0  0  0  0  0  0  0  0  0
    6.6453    0.0293   19.9164 C   0  0  0  0  0  0  0  0  0  0  0  0
    7.1556    0.0748   18.6059 C   0  0  0  0  0  0  0  0  0  0  0  0
    8.1021   -0.4147   18.3766 H   0  0  0  0  0  0  0  0  0  0  0  0
    6.5527    0.6801   17.5776 N   0  0  0  0  0  0  0  0  0  0  0  0
    5.3899    1.3011   17.8271 C   0  0  0  0  0  0  0  0  0  0  0  0
    4.9258    1.8019   16.9811 H   0  0  0  0  0  0  0  0  0  0  0  0
    4.7832    1.3246   19.0849 C   0  0  0  0  0  0  0  0  0  0  0  0
    3.8485    1.8590   19.2253 H   0  0  0  0  0  0  0  0  0  0  0  0
    5.4211    0.6729   20.1454 C   0  0  0  0  0  0  0  0  0  0  0  0
    4.9742    0.6660   21.1429 H   0  0  0  0  0  0  0  0  0  0  0  0
  1  2  1  0
  2  3  1  0
  2  4  2  3
  4  5  1  0
  5  6  2  0
  6  7  1  0
  7  8  1  0
  8  9  1  0
  8 10  1  0
  7 11  2  0
 11 12  1  0
 12 13  1  0
 12 14  2  0
 14 15  1  0
  4 16  1  0
 16 17  1  0
 16 18  1  0
 16 19  1  0
 19 20  2  0
 20 21  1  0
 20 22  1  0
 22 23  2  0
 23 24  1  0
 23 25  1  0
 25 26  1  0
 25 27  2  0
 27 28  1  0
 14  5  1  0
 27 19  1  0
M  END
>  <cnnaffinity>  (1) 
-4.32293

>  <filename>  (1) 
C=C(Cc1cccnc1)c1ccnc(N)n1

$$$$
