
     RDKit          3D

 27 28  0  0  0  0  0  0  0  0999 V2000
    9.2688   -0.9760   21.9700 H   0  0  0  0  0  0  0  0  0  0  0  0
    8.7082   -0.4618   21.1930 C   0  0  0  0  0  0  0  0  0  0  0  0
    9.2730    0.2516   20.5951 H   0  0  0  0  0  0  0  0  0  0  0  0
    7.4059   -0.6897   20.9962 C   0  0  0  0  0  0  0  0  0  0  0  0
    6.6585    0.0183   19.9056 C   0  0  0  0  0  0  0  0  0  0  0  0
    7.1715    0.0735   18.5943 C   0  0  0  0  0  0  0  0  0  0  0  0
    8.1098   -0.4235   18.3480 H   0  0  0  0  0  0  0  0  0  0  0  0
    6.5639    0.6802   17.5662 N   0  0  0  0  0  0  0  0  0  0  0  0
    5.4026    1.3046   17.8143 C   0  0  0  0  0  0  0  0  0  0  0  0
    4.9400    1.8172   16.9733 H   0  0  0  0  0  0  0  0  0  0  0  0
    4.7929    1.3230   19.0723 C   0  0  0  0  0  0  0  0  0  0  0  0
    3.8519    1.8492   19.2099 H   0  0  0  0  0  0  0  0  0  0  0  0
    5.4273    0.6642   20.1271 C   0  0  0  0  0  0  0  0  0  0  0  0
    4.9873    0.6622   21.1254 H   0  0  0  0  0  0  0  0  0  0  0  0
    6.6376   -1.7134   21.8452 C   0  0  0  0  0  0  0  0  0  0  0  0
    6.9502   -1.6516   22.8977 H   0  0  0  0  0  0  0  0  0  0  0  0
    5.5885   -1.4222   21.8391 H   0  0  0  0  0  0  0  0  0  0  0  0
    6.7458   -3.1396   21.3385 C   0  0  0  0  0  0  0  0  0  0  0  0
    7.3196   -3.2888   20.4300 H   0  0  0  0  0  0  0  0  0  0  0  0
    6.1809   -4.2432   21.8610 C   0  0  0  0  0  0  0  0  0  0  0  0
    5.1595   -4.3873   23.2958 S   0  0  0  0  0  0  0  0  0  0  0  0
    5.0203   -6.1853   23.1111 C   0  0  0  0  0  0  0  0  0  0  0  0
    4.4337   -6.9482   23.8212 O   0  0  0  0  0  0  0  0  0  0  0  0
    5.7046   -6.5604   21.9971 N   0  0  0  0  0  0  0  0  0  0  0  0
    5.7109   -7.5199   21.6976 H   0  0  0  0  0  0  0  0  0  0  0  0
    6.3563   -5.6140   21.2626 C   0  0  0  0  0  0  0  0  0  0  0  0
    6.9689   -5.9073   20.2719 O   0  0  0  0  0  0  0  0  0  0  0  0
  1  2  1  0
  2  3  1  0
  2  4  2  3
  4  5  1  0
  5  6  2  0
  6  7  1  0
  6  8  1  0
  8  9  2  0
  9 10  1  0
  9 11  1  0
 11 12  1  0
 11 13  2  0
 13 14  1  0
  4 15  1  0
 15 16  1  0
 15 17  1  0
 15 18  1  0
 18 19  1  0
 18 20  2  3
 20 21  1  0
 21 22  1  0
 22 23  2  0
 22 24  1  0
 24 25  1  0
 24 26  1  0
 26 27  2  0
 13  5  1  0
 26 20  1  0
M  END
>  <cnnaffinity>  (1) 
-4.51754

>  <filename>  (1) 
C=C(CC=C1SC(=O)NC1=O)c1cccnc1

$$$$
