
     RDKit          3D

 42 45  0  0  0  0  0  0  0  0999 V2000
    4.8764   -1.7011   25.2766 C   0  0  0  0  0  0  0  0  0  0  0  0
    5.4316   -2.8255   24.8219 C   0  0  0  0  0  0  0  0  0  0  0  0
    4.7833   -4.1173   24.5148 C   0  0  0  0  0  0  0  0  0  0  0  0
    3.4380   -4.5340   24.5395 C   0  0  0  0  0  0  0  0  0  0  0  0
    3.1386   -5.8453   24.1787 C   0  0  0  0  0  0  0  0  0  0  0  0
    4.1571   -6.7409   23.7880 C   0  0  0  0  0  0  0  0  0  0  0  0
    5.4865   -6.3210   23.7439 C   0  0  0  0  0  0  0  0  0  0  0  0
    5.7849   -5.0103   24.1096 C   0  0  0  0  0  0  0  0  0  0  0  0
    7.0892   -4.3095   24.1405 C   0  0  0  0  0  0  0  0  0  0  0  0
    8.2020   -4.7174   23.8585 O   0  0  0  0  0  0  0  0  0  0  0  0
    6.8088   -3.0079   24.5642 N   0  0  0  0  0  0  0  0  0  0  0  0
    7.7471   -1.9149   24.3106 C   0  0  0  0  0  0  0  0  0  0  0  0
    7.7584   -1.4514   22.8792 C   0  0  0  0  0  0  0  0  0  0  0  0
    6.8406   -0.7124   22.2845 N   0  0  0  0  0  0  0  0  0  0  0  0
    7.2940   -0.6271   21.0100 C   0  0  0  0  0  0  0  0  0  0  0  0
    6.5829    0.0599   19.9453 C   0  0  0  0  0  0  0  0  0  0  0  0
    5.3603    0.7185   20.1397 C   0  0  0  0  0  0  0  0  0  0  0  0
    4.7853    1.3456   19.0387 C   0  0  0  0  0  0  0  0  0  0  0  0
    5.4433    1.2879   17.8037 C   0  0  0  0  0  0  0  0  0  0  0  0
    6.6064    0.6493   17.6098 N   0  0  0  0  0  0  0  0  0  0  0  0
    7.1607    0.0537   18.6671 C   0  0  0  0  0  0  0  0  0  0  0  0
    8.1091   -0.4536   18.4972 H   0  0  0  0  0  0  0  0  0  0  0  0
    5.0160    1.7744   16.9315 H   0  0  0  0  0  0  0  0  0  0  0  0
    3.8539    1.8924   19.1250 H   0  0  0  0  0  0  0  0  0  0  0  0
    4.8879    0.7427   21.1252 H   0  0  0  0  0  0  0  0  0  0  0  0
    8.4481   -1.2371   20.7983 N   0  0  0  0  0  0  0  0  0  0  0  0
    8.7177   -1.7967   21.9946 N   0  0  0  0  0  0  0  0  0  0  0  0
    9.9757   -2.4906   22.1347 C   0  0  0  0  0  0  0  0  0  0  0  0
   11.1060   -1.5227   22.3949 C   0  0  0  0  0  0  0  0  0  0  0  0
   12.2764   -2.2123   22.3750 F   0  0  0  0  0  0  0  0  0  0  0  0
   10.9596   -0.9657   23.6324 F   0  0  0  0  0  0  0  0  0  0  0  0
   11.1559   -0.7225   21.6533 H   0  0  0  0  0  0  0  0  0  0  0  0
    9.9324   -3.2586   22.9084 H   0  0  0  0  0  0  0  0  0  0  0  0
   10.1486   -2.9394   21.1625 H   0  0  0  0  0  0  0  0  0  0  0  0
    8.7463   -2.2236   24.6350 H   0  0  0  0  0  0  0  0  0  0  0  0
    7.4445   -1.0659   24.9261 H   0  0  0  0  0  0  0  0  0  0  0  0
    6.2560   -7.0006   23.3939 H   0  0  0  0  0  0  0  0  0  0  0  0
    3.8862   -7.7489   23.4896 H   0  0  0  0  0  0  0  0  0  0  0  0
    2.1088   -6.1904   24.2108 H   0  0  0  0  0  0  0  0  0  0  0  0
    2.6523   -3.8464   24.8333 H   0  0  0  0  0  0  0  0  0  0  0  0
    5.4310   -0.7915   25.4888 H   0  0  0  0  0  0  0  0  0  0  0  0
    3.8057   -1.6533   25.4384 H   0  0  0  0  0  0  0  0  0  0  0  0
  1  2  2  3
  2  3  1  0
  3  4  2  0
  4  5  1  0
  5  6  2  0
  6  7  1  0
  7  8  2  0
  8  9  1  0
  9 10  2  0
  9 11  1  0
 11 12  1  0
 12 13  1  0
 13 14  2  0
 14 15  1  0
 15 16  1  0
 16 17  2  0
 17 18  1  0
 18 19  2  0
 19 20  1  0
 20 21  2  0
 21 22  1  0
 19 23  1  0
 18 24  1  0
 17 25  1  0
 15 26  2  0
 26 27  1  0
 27 28  1  0
 28 29  1  0
 29 30  1  0
 29 31  1  0
 29 32  1  0
 28 33  1  0
 28 34  1  0
 12 35  1  0
 12 36  1  0
  7 37  1  0
  6 38  1  0
  5 39  1  0
  4 40  1  0
  1 41  1  0
  1 42  1  0
 11  2  1  0
 27 13  1  0
  8  3  1  0
 21 16  1  0
M  END
>  <cnnaffinity>  (1) 
-6.07799

>  <filename>  (1) 
C=C1c2ccccc2C(=O)N1Cc1nc(-c2cccnc2)nn1CC(F)F

$$$$
