
     RDKit          3D

 43 47  0  0  0  0  0  0  0  0999 V2000
    6.7060   -4.5858   23.6965 C   0  0  0  0  0  0  0  0  0  0  0  0
    5.9333   -3.6561   24.2664 C   0  0  0  0  0  0  0  0  0  0  0  0
    4.4807   -3.6667   24.5255 C   0  0  0  0  0  0  0  0  0  0  0  0
    3.4420   -4.5848   24.2602 C   0  0  0  0  0  0  0  0  0  0  0  0
    2.1324   -4.2157   24.5679 C   0  0  0  0  0  0  0  0  0  0  0  0
    1.8379   -2.9613   25.1499 C   0  0  0  0  0  0  0  0  0  0  0  0
    2.8667   -2.0734   25.4581 C   0  0  0  0  0  0  0  0  0  0  0  0
    4.1674   -2.4514   25.1505 C   0  0  0  0  0  0  0  0  0  0  0  0
    5.3997   -1.6654   25.3337 C   0  0  0  0  0  0  0  0  0  0  0  0
    5.5573   -0.5966   25.8923 O   0  0  0  0  0  0  0  0  0  0  0  0
    6.4145   -2.4193   24.7397 N   0  0  0  0  0  0  0  0  0  0  0  0
    7.6312   -1.7995   24.2464 C   0  0  0  0  0  0  0  0  0  0  0  0
    7.5912   -1.3745   22.7956 C   0  0  0  0  0  0  0  0  0  0  0  0
    6.6617   -0.6950   22.1507 N   0  0  0  0  0  0  0  0  0  0  0  0
    7.1582   -0.6202   20.8853 C   0  0  0  0  0  0  0  0  0  0  0  0
    6.4975    0.0851   19.7882 C   0  0  0  0  0  0  0  0  0  0  0  0
    5.2964    0.7829   19.9720 C   0  0  0  0  0  0  0  0  0  0  0  0
    4.7409    1.4369   18.8750 C   0  0  0  0  0  0  0  0  0  0  0  0
    5.4051    1.3756   17.6442 C   0  0  0  0  0  0  0  0  0  0  0  0
    6.5563    0.7115   17.4561 N   0  0  0  0  0  0  0  0  0  0  0  0
    7.0883    0.0885   18.5124 C   0  0  0  0  0  0  0  0  0  0  0  0
    8.0260   -0.4360   18.3333 H   0  0  0  0  0  0  0  0  0  0  0  0
    4.9965    1.8783   16.7703 H   0  0  0  0  0  0  0  0  0  0  0  0
    3.8161    1.9974   18.9617 H   0  0  0  0  0  0  0  0  0  0  0  0
    4.8230    0.8025   20.9551 H   0  0  0  0  0  0  0  0  0  0  0  0
    8.3186   -1.2261   20.7179 N   0  0  0  0  0  0  0  0  0  0  0  0
    8.6084   -1.6651   21.9607 N   0  0  0  0  0  0  0  0  0  0  0  0
    9.8026   -2.4128   22.2180 C   0  0  0  0  0  0  0  0  0  0  0  0
   11.1196   -1.7180   21.9910 C   0  0  0  0  0  0  0  0  0  0  0  0
   10.6838   -2.0769   23.3799 C   0  0  0  0  0  0  0  0  0  0  0  0
   11.1616   -2.9291   23.8591 H   0  0  0  0  0  0  0  0  0  0  0  0
   10.3856   -1.2660   24.0370 H   0  0  0  0  0  0  0  0  0  0  0  0
   11.0555   -0.6690   21.7063 H   0  0  0  0  0  0  0  0  0  0  0  0
   11.9459   -2.2381   21.5166 H   0  0  0  0  0  0  0  0  0  0  0  0
    9.6760   -3.4548   21.9582 H   0  0  0  0  0  0  0  0  0  0  0  0
    8.4397   -2.5128   24.4072 H   0  0  0  0  0  0  0  0  0  0  0  0
    7.8325   -0.9295   24.8745 H   0  0  0  0  0  0  0  0  0  0  0  0
    2.6805   -1.1102   25.9305 H   0  0  0  0  0  0  0  0  0  0  0  0
    0.8093   -2.6929   25.3729 H   0  0  0  0  0  0  0  0  0  0  0  0
    1.3152   -4.9056   24.3676 H   0  0  0  0  0  0  0  0  0  0  0  0
    3.6456   -5.5699   23.8489 H   0  0  0  0  0  0  0  0  0  0  0  0
    7.7762   -4.4372   23.5714 H   0  0  0  0  0  0  0  0  0  0  0  0
    6.2823   -5.5200   23.3545 H   0  0  0  0  0  0  0  0  0  0  0  0
  1  2  2  3
  2  3  1  0
  3  4  2  0
  4  5  1  0
  5  6  2  0
  6  7  1  0
  7  8  2  0
  8  9  1  0
  9 10  2  0
  9 11  1  0
 11 12  1  0
 12 13  1  0
 13 14  2  0
 14 15  1  0
 15 16  1  0
 16 17  2  0
 17 18  1  0
 18 19  2  0
 19 20  1  0
 20 21  2  0
 21 22  1  0
 19 23  1  0
 18 24  1  0
 17 25  1  0
 15 26  2  0
 26 27  1  0
 27 28  1  0
 28 29  1  0
 29 30  1  0
 30 31  1  0
 30 32  1  0
 29 33  1  0
 29 34  1  0
 28 35  1  0
 12 36  1  0
 12 37  1  0
  7 38  1  0
  6 39  1  0
  5 40  1  0
  4 41  1  0
  1 42  1  0
  1 43  1  0
 11  2  1  0
 27 13  1  0
 30 28  1  0
  8  3  1  0
 21 16  1  0
M  END
>  <cnnaffinity>  (1) 
-5.82976

>  <filename>  (1) 
C=C1c2ccccc2C(=O)N1Cc1nc(-c2cccnc2)nn1C1CC1

$$$$
