
     RDKit          3D

 48 51  0  0  0  0  0  0  0  0999 V2000
    8.0739    5.9833   23.3688 C   0  0  0  0  0  0  0  0  0  0  0  0
    8.0793    5.2064   24.4556 C   0  0  0  0  0  0  0  0  0  0  0  0
    7.3469    3.9066   24.5555 C   0  0  2  0  0  0  0  0  0  0  0  0
    6.7450    3.4890   25.9190 C   0  0  0  0  0  0  0  0  0  0  0  0
    7.4330    2.1118   25.8156 C   0  0  0  0  0  0  0  0  0  0  0  0
    8.2424    2.6149   24.5951 C   0  0  1  0  0  0  0  0  0  0  0  0
    8.2795    1.7907   23.3545 C   0  0  0  0  0  0  0  0  0  0  0  0
    7.3090    0.9895   22.9348 N   0  0  0  0  0  0  0  0  0  0  0  0
    7.8054    0.4748   21.7844 C   0  0  0  0  0  0  0  0  0  0  0  0
    7.1004   -0.5256   20.9227 C   0  0  0  0  0  0  0  0  0  0  0  0
    6.4882    0.0733   19.6619 C   0  0  0  0  0  0  0  0  0  0  0  0
    5.3878    0.9348   19.7638 C   0  0  0  0  0  0  0  0  0  0  0  0
    4.8295    1.4503   18.5927 C   0  0  0  0  0  0  0  0  0  0  0  0
    5.4156    1.1207   17.3673 C   0  0  0  0  0  0  0  0  0  0  0  0
    6.4944    0.3334   17.2499 N   0  0  0  0  0  0  0  0  0  0  0  0
    7.0128   -0.1649   18.3791 C   0  0  0  0  0  0  0  0  0  0  0  0
    7.9107   -0.7755   18.2651 H   0  0  0  0  0  0  0  0  0  0  0  0
    5.0152    1.5165   16.4378 H   0  0  0  0  0  0  0  0  0  0  0  0
    3.9699    2.1108   18.6172 H   0  0  0  0  0  0  0  0  0  0  0  0
    4.9951    1.2031   20.7478 H   0  0  0  0  0  0  0  0  0  0  0  0
    7.8369   -1.2962   20.6674 H   0  0  0  0  0  0  0  0  0  0  0  0
    6.3359   -0.9930   21.5505 H   0  0  0  0  0  0  0  0  0  0  0  0
    9.0118    0.8883   21.4644 N   0  0  0  0  0  0  0  0  0  0  0  0
    9.3063    1.7630   22.4551 N   0  0  0  0  0  0  0  0  0  0  0  0
   10.5997    2.3459   22.5333 C   0  0  0  0  0  0  0  0  0  0  0  0
   11.7040    1.4967   22.5164 C   0  0  0  0  0  0  0  0  0  0  0  0
   12.9820    1.9994   22.7866 C   0  0  0  0  0  0  0  0  0  0  0  0
   14.0953    0.9837   22.8060 C   0  0  0  0  0  0  0  0  0  0  0  0
   13.9455   -0.1952   23.0720 O   0  0  0  0  0  0  0  0  0  0  0  0
   15.3161    1.4318   22.4339 N   0  0  0  0  0  0  0  0  0  0  0  0
   15.3758    2.2874   21.9181 H   0  0  0  0  0  0  0  0  0  0  0  0
   15.9253    0.6739   22.1788 H   0  0  0  0  0  0  0  0  0  0  0  0
   13.1458    3.3903   22.9859 C   0  0  0  0  0  0  0  0  0  0  0  0
   12.0362    4.2398   22.9163 C   0  0  0  0  0  0  0  0  0  0  0  0
   10.7585    3.7241   22.6889 C   0  0  0  0  0  0  0  0  0  0  0  0
    9.8831    4.3612   22.6098 H   0  0  0  0  0  0  0  0  0  0  0  0
   12.1619    5.3106   23.0436 H   0  0  0  0  0  0  0  0  0  0  0  0
   14.1230    3.8241   23.2046 H   0  0  0  0  0  0  0  0  0  0  0  0
   11.5619    0.4421   22.2790 H   0  0  0  0  0  0  0  0  0  0  0  0
    9.2632    2.8824   24.8893 H   0  0  0  0  0  0  0  0  0  0  0  0
    8.0224    1.8011   26.6836 H   0  0  0  0  0  0  0  0  0  0  0  0
    6.7442    1.3017   25.5652 H   0  0  0  0  0  0  0  0  0  0  0  0
    5.6517    3.4735   25.9725 H   0  0  0  0  0  0  0  0  0  0  0  0
    7.1043    4.1091   26.7493 H   0  0  0  0  0  0  0  0  0  0  0  0
    6.6059    3.8577   23.7466 H   0  0  0  0  0  0  0  0  0  0  0  0
    8.6724    5.4925   25.3237 H   0  0  0  0  0  0  0  0  0  0  0  0
    8.6259    6.9187   23.3206 H   0  0  0  0  0  0  0  0  0  0  0  0
    7.5254    5.6981   22.4724 H   0  0  0  0  0  0  0  0  0  0  0  0
  1  2  2  3
  2  3  1  0
  3  4  1  0
  4  5  1  0
  5  6  1  0
  6  7  1  0
  7  8  2  0
  8  9  1  0
  9 10  1  0
 10 11  1  0
 11 12  2  0
 12 13  1  0
 13 14  2  0
 14 15  1  0
 15 16  2  0
 16 17  1  0
 14 18  1  0
 13 19  1  0
 12 20  1  0
 10 21  1  0
 10 22  1  0
  9 23  2  0
 23 24  1  0
 24 25  1  0
 25 26  2  0
 26 27  1  0
 27 28  1  0
 28 29  2  0
 28 30  1  0
 30 31  1  0
 30 32  1  0
 27 33  2  0
 33 34  1  0
 34 35  2  0
 35 36  1  0
 34 37  1  0
 33 38  1  0
 26 39  1  0
  6 40  1  1
  5 41  1  0
  5 42  1  0
  4 43  1  0
  4 44  1  0
  3 45  1  6
  2 46  1  0
  1 47  1  0
  1 48  1  0
  6  3  1  0
 24  7  1  0
 35 25  1  0
 16 11  1  0
M  END
>  <cnnaffinity>  (1) 
-6.48505

>  <filename>  (1) 
C=C[C@@H]1CC[C@H]1c1nc(Cc2cccnc2)nn1-c1cccc(C(N)=O)c1

$$$$
