
     RDKit          3D

 51 55  0  0  0  0  0  0  0  0999 V2000
   13.1987    4.3092   20.7513 C   0  0  0  0  0  0  0  0  0  0  0  0
   12.8055    3.9934   21.9799 C   0  0  0  0  0  0  0  0  0  0  0  0
   11.4880    3.3508   22.4040 C   0  0  2  0  0  0  0  0  0  0  0  0
   11.4950    3.1430   23.8121 O   0  0  0  0  0  0  0  0  0  0  0  0
   12.2999    2.0807   24.2869 C   0  0  0  0  0  0  0  0  0  0  0  0
   12.0094    0.7435   23.6116 C   0  0  0  0  0  0  0  0  0  0  0  0
   12.1388    0.9276   22.0948 C   0  0  0  0  0  0  0  0  0  0  0  0
   11.1423    2.0410   21.6577 C   0  0  1  0  0  0  0  0  0  0  0  0
    9.7288    1.5316   21.8468 C   0  0  0  0  0  0  0  0  0  0  0  0
    9.3345    0.5266   21.0767 N   0  0  0  0  0  0  0  0  0  0  0  0
    8.1267    0.1817   21.5765 C   0  0  0  0  0  0  0  0  0  0  0  0
    7.2405   -0.8277   20.9000 C   0  0  0  0  0  0  0  0  0  0  0  0
    6.4970   -0.1611   19.7472 C   0  0  0  0  0  0  0  0  0  0  0  0
    5.3479    0.5973   20.0017 C   0  0  0  0  0  0  0  0  0  0  0  0
    4.7817    1.3350   18.9596 C   0  0  0  0  0  0  0  0  0  0  0  0
    5.3912    1.3003   17.7031 C   0  0  0  0  0  0  0  0  0  0  0  0
    6.4954    0.5878   17.4374 N   0  0  0  0  0  0  0  0  0  0  0  0
    7.0269   -0.1159   18.4450 C   0  0  0  0  0  0  0  0  0  0  0  0
    7.9470   -0.6534   18.2117 H   0  0  0  0  0  0  0  0  0  0  0  0
    4.9838    1.8783   16.8755 H   0  0  0  0  0  0  0  0  0  0  0  0
    3.9036    1.9501   19.1093 H   0  0  0  0  0  0  0  0  0  0  0  0
    4.9298    0.6275   21.0106 H   0  0  0  0  0  0  0  0  0  0  0  0
    6.5442   -1.2220   21.6493 H   0  0  0  0  0  0  0  0  0  0  0  0
    7.8629   -1.6591   20.5518 H   0  0  0  0  0  0  0  0  0  0  0  0
    7.7399    0.8936   22.6117 N   0  0  0  0  0  0  0  0  0  0  0  0
    8.7474    1.7978   22.7639 N   0  0  0  0  0  0  0  0  0  0  0  0
    8.6064    2.7834   23.7881 C   0  0  0  0  0  0  0  0  0  0  0  0
    8.6895    2.4635   25.1433 C   0  0  0  0  0  0  0  0  0  0  0  0
    8.5584    3.4733   26.1243 C   0  0  0  0  0  0  0  0  0  0  0  0
    8.2966    4.8001   25.7804 C   0  0  0  0  0  0  0  0  0  0  0  0
    8.1784    5.1191   24.4137 C   0  0  0  0  0  0  0  0  0  0  0  0
    8.3079    4.1094   23.4468 C   0  0  0  0  0  0  0  0  0  0  0  0
    8.0619    4.7320   22.2443 N   0  0  0  0  0  0  0  0  0  0  0  0
    7.8335    6.0490   22.5247 C   0  0  0  0  0  0  0  0  0  0  0  0
    7.8993    6.3312   23.7936 N   0  0  0  0  0  0  0  0  0  0  0  0
    7.6311    6.7655   21.7373 H   0  0  0  0  0  0  0  0  0  0  0  0
    7.9444    4.2798   21.3562 H   0  0  0  0  0  0  0  0  0  0  0  0
    8.1630    5.5839   26.5187 H   0  0  0  0  0  0  0  0  0  0  0  0
    8.6498    3.1994   27.1706 H   0  0  0  0  0  0  0  0  0  0  0  0
    8.8464    1.4306   25.4468 H   0  0  0  0  0  0  0  0  0  0  0  0
   11.2052    2.2192   20.5762 H   0  0  0  0  0  0  0  0  0  0  0  0
   13.1664    1.2224   21.8469 H   0  0  0  0  0  0  0  0  0  0  0  0
   11.9304    0.0026   21.5473 H   0  0  0  0  0  0  0  0  0  0  0  0
   10.9935    0.4166   23.8686 H   0  0  0  0  0  0  0  0  0  0  0  0
   12.6918   -0.0236   23.9975 H   0  0  0  0  0  0  0  0  0  0  0  0
   13.3706    2.3048   24.1355 H   0  0  0  0  0  0  0  0  0  0  0  0
   12.0949    2.0432   25.3567 H   0  0  0  0  0  0  0  0  0  0  0  0
   10.7052    4.0939   22.2528 H   0  0  0  0  0  0  0  0  0  0  0  0
   13.4415    4.2482   22.8277 H   0  0  0  0  0  0  0  0  0  0  0  0
   14.1222    4.8628   20.5684 H   0  0  0  0  0  0  0  0  0  0  0  0
   12.6229    4.0194   19.8719 H   0  0  0  0  0  0  0  0  0  0  0  0
  1  2  2  3
  2  3  1  0
  3  4  1  0
  4  5  1  0
  5  6  1  0
  6  7  1  0
  7  8  1  0
  8  9  1  0
  9 10  2  0
 10 11  1  0
 11 12  1  0
 12 13  1  0
 13 14  2  0
 14 15  1  0
 15 16  2  0
 16 17  1  0
 17 18  2  0
 18 19  1  0
 16 20  1  0
 15 21  1  0
 14 22  1  0
 12 23  1  0
 12 24  1  0
 11 25  2  0
 25 26  1  0
 26 27  1  0
 27 28  2  0
 28 29  1  0
 29 30  2  0
 30 31  1  0
 31 32  2  0
 32 33  1  0
 33 34  1  0
 34 35  2  0
 34 36  1  0
 33 37  1  0
 30 38  1  0
 29 39  1  0
 28 40  1  0
  8 41  1  6
  7 42  1  0
  7 43  1  0
  6 44  1  0
  6 45  1  0
  5 46  1  0
  5 47  1  0
  3 48  1  1
  2 49  1  0
  1 50  1  0
  1 51  1  0
  8  3  1  0
 26  9  1  0
 32 27  1  0
 18 13  1  0
 35 31  1  0
M  END
>  <cnnaffinity>  (1) 
-6.21104

>  <filename>  (1) 
C=C[C@@H]1OCCC[C@H]1c1nc(Cc2cccnc2)nn1-c1cccc2nc[nH]c12

$$$$
