
     RDKit          3D

 45 48  0  0  0  0  0  0  0  0999 V2000
   12.9796    4.3212   20.6512 C   0  0  0  0  0  0  0  0  0  0  0  0
   12.5208    3.5635   21.6428 C   0  0  0  0  0  0  0  0  0  0  0  0
   11.5557    2.4322   21.3877 C   0  0  0  0  0  0  0  0  0  0  0  0
   11.3730    1.4259   22.5422 C   0  0  0  0  0  0  0  0  0  0  0  0
    9.9839    0.9844   22.6373 N   0  0  0  0  0  0  0  0  0  0  0  0
    9.5483    0.0269   21.7849 N   0  0  0  0  0  0  0  0  0  0  0  0
    8.2380    0.1166   21.8716 C   0  0  0  0  0  0  0  0  0  0  0  0
    7.3422   -0.7336   21.0056 C   0  0  0  0  0  0  0  0  0  0  0  0
    6.6344   -0.0196   19.8488 C   0  0  0  0  0  0  0  0  0  0  0  0
    5.4398    0.6745   20.0850 C   0  0  0  0  0  0  0  0  0  0  0  0
    4.8164    1.3443   19.0287 C   0  0  0  0  0  0  0  0  0  0  0  0
    5.4137    1.3067   17.7665 C   0  0  0  0  0  0  0  0  0  0  0  0
    6.5515    0.6423   17.5091 N   0  0  0  0  0  0  0  0  0  0  0  0
    7.1314   -0.0016   18.5303 C   0  0  0  0  0  0  0  0  0  0  0  0
    8.0510   -0.5364   18.2880 H   0  0  0  0  0  0  0  0  0  0  0  0
    4.9560    1.8192   16.9214 H   0  0  0  0  0  0  0  0  0  0  0  0
    3.8847    1.8833   19.1669 H   0  0  0  0  0  0  0  0  0  0  0  0
    5.0100    0.6834   21.0886 H   0  0  0  0  0  0  0  0  0  0  0  0
    7.9554   -1.5604   20.6327 H   0  0  0  0  0  0  0  0  0  0  0  0
    6.5869   -1.1683   21.6681 H   0  0  0  0  0  0  0  0  0  0  0  0
    7.7941    1.0497   22.7529 N   0  0  0  0  0  0  0  0  0  0  0  0
    8.9147    1.6134   23.1887 C   0  0  0  0  0  0  0  0  0  0  0  0
    9.0083    2.7601   24.1310 C   0  0  0  0  0  0  0  0  0  0  0  0
    9.6911    3.9633   23.7921 C   0  0  0  0  0  0  0  0  0  0  0  0
    9.6754    5.0788   24.6300 C   0  0  0  0  0  0  0  0  0  0  0  0
    9.0014    4.9737   25.8568 C   0  0  0  0  0  0  0  0  0  0  0  0
    8.8051    5.8756   26.9068 N   0  0  0  0  0  0  0  0  0  0  0  0
    8.1089    5.2118   27.7620 C   0  0  0  0  0  0  0  0  0  0  0  0
    7.6190    5.6442   29.1015 C   0  0  0  0  0  0  0  0  0  0  0  0
    8.4651    5.7993   29.7743 H   0  0  0  0  0  0  0  0  0  0  0  0
    6.9581    4.8870   29.5267 H   0  0  0  0  0  0  0  0  0  0  0  0
    7.0941    6.5983   29.0311 H   0  0  0  0  0  0  0  0  0  0  0  0
    7.8135    3.9227   27.4203 O   0  0  0  0  0  0  0  0  0  0  0  0
    8.3785    3.7692   26.1898 C   0  0  0  0  0  0  0  0  0  0  0  0
    8.3442    2.6597   25.3634 C   0  0  0  0  0  0  0  0  0  0  0  0
    7.8262    1.7507   25.6519 H   0  0  0  0  0  0  0  0  0  0  0  0
   10.1511    6.0110   24.3475 H   0  0  0  0  0  0  0  0  0  0  0  0
   10.2377    4.0410   22.8544 H   0  0  0  0  0  0  0  0  0  0  0  0
   11.6512    1.8711   23.4999 H   0  0  0  0  0  0  0  0  0  0  0  0
   11.9658    0.5236   22.4069 H   0  0  0  0  0  0  0  0  0  0  0  0
   11.8374    1.9166   20.4626 H   0  0  0  0  0  0  0  0  0  0  0  0
   10.5770    2.8639   21.1510 H   0  0  0  0  0  0  0  0  0  0  0  0
   12.8231    3.7850   22.6711 H   0  0  0  0  0  0  0  0  0  0  0  0
   12.6890    4.0851   19.6269 H   0  0  0  0  0  0  0  0  0  0  0  0
   13.6477    5.1707   20.7975 H   0  0  0  0  0  0  0  0  0  0  0  0
  1  2  2  3
  2  3  1  0
  3  4  1  0
  4  5  1  0
  5  6  1  0
  6  7  2  0
  7  8  1  0
  8  9  1  0
  9 10  2  0
 10 11  1  0
 11 12  2  0
 12 13  1  0
 13 14  2  0
 14 15  1  0
 12 16  1  0
 11 17  1  0
 10 18  1  0
  8 19  1  0
  8 20  1  0
  7 21  1  0
 21 22  2  0
 22 23  1  0
 23 24  2  0
 24 25  1  0
 25 26  2  0
 26 27  1  0
 27 28  2  0
 28 29  1  0
 29 30  1  0
 29 31  1  0
 29 32  1  0
 28 33  1  0
 33 34  1  0
 34 35  2  0
 35 36  1  0
 25 37  1  0
 24 38  1  0
  4 39  1  0
  4 40  1  0
  3 41  1  0
  3 42  1  0
  2 43  1  0
  1 44  1  0
  1 45  1  0
 22  5  1  0
 35 23  1  0
 14  9  1  0
 34 26  1  0
M  END
>  <cnnaffinity>  (1) 
-6.16903

>  <filename>  (1) 
C=CCCn1nc(Cc2cccnc2)nc1-c1ccc2nc(C)oc2c1

$$$$
