
     RDKit          3D

 33 34  0  0  0  0  0  0  0  0999 V2000
    6.8770    2.6124   27.3745 C   0  0  0  0  0  0  0  0  0  0  0  0
    7.0600    3.4111   26.3200 C   0  0  0  0  0  0  0  0  0  0  0  0
    6.0747    3.5405   25.1648 C   0  0  0  0  0  0  0  0  0  0  0  0
    6.5564    2.9703   23.9080 N   0  0  0  0  0  0  0  0  0  0  0  0
    6.7212    1.6202   23.7960 C   0  0  0  0  0  0  0  0  0  0  0  0
    6.3542    0.8347   24.6484 O   0  0  0  0  0  0  0  0  0  0  0  0
    7.3333    1.2576   22.6065 N   0  0  0  0  0  0  0  0  0  0  0  0
    7.6509   -0.0874   22.2527 C   0  0  0  0  0  0  0  0  0  0  0  0
    8.2789   -0.8848   23.2140 C   0  0  0  0  0  0  0  0  0  0  0  0
    8.6685   -2.1872   22.8848 C   0  0  0  0  0  0  0  0  0  0  0  0
    8.4020   -2.6586   21.5983 C   0  0  0  0  0  0  0  0  0  0  0  0
    7.8060   -1.9166   20.6603 N   0  0  0  0  0  0  0  0  0  0  0  0
    7.3987   -0.6837   20.9739 C   0  0  0  0  0  0  0  0  0  0  0  0
    6.6476    0.0133   19.9083 C   0  0  0  0  0  0  0  0  0  0  0  0
    5.4290    0.6542   20.1561 C   0  0  0  0  0  0  0  0  0  0  0  0
    4.7993    1.3045   19.0966 C   0  0  0  0  0  0  0  0  0  0  0  0
    5.4110    1.2858   17.8389 C   0  0  0  0  0  0  0  0  0  0  0  0
    6.5673    0.6557   17.5835 N   0  0  0  0  0  0  0  0  0  0  0  0
    7.1617    0.0229   18.5997 C   0  0  0  0  0  0  0  0  0  0  0  0
    8.1040   -0.4707   18.3626 H   0  0  0  0  0  0  0  0  0  0  0  0
    4.9539    1.7973   16.9960 H   0  0  0  0  0  0  0  0  0  0  0  0
    3.8696    1.8409   19.2380 H   0  0  0  0  0  0  0  0  0  0  0  0
    4.9969    0.6539   21.1591 H   0  0  0  0  0  0  0  0  0  0  0  0
    8.6689   -3.6700   21.3013 H   0  0  0  0  0  0  0  0  0  0  0  0
    9.1693   -2.8342   23.6004 H   0  0  0  0  0  0  0  0  0  0  0  0
    8.4355   -0.4550   24.2003 H   0  0  0  0  0  0  0  0  0  0  0  0
    7.3255    1.9641   21.8905 H   0  0  0  0  0  0  0  0  0  0  0  0
    6.9710    3.5533   23.2026 H   0  0  0  0  0  0  0  0  0  0  0  0
    5.1406    3.0304   25.4416 H   0  0  0  0  0  0  0  0  0  0  0  0
    5.8451    4.6000   24.9833 H   0  0  0  0  0  0  0  0  0  0  0  0
    7.9740    4.0040   26.2382 H   0  0  0  0  0  0  0  0  0  0  0  0
    5.9892    1.9848   27.4700 H   0  0  0  0  0  0  0  0  0  0  0  0
    7.6050    2.5067   28.1777 H   0  0  0  0  0  0  0  0  0  0  0  0
  1  2  2  3
  2  3  1  0
  3  4  1  0
  4  5  1  0
  5  6  2  0
  5  7  1  0
  7  8  1  0
  8  9  2  0
  9 10  1  0
 10 11  2  0
 11 12  1  0
 12 13  2  0
 13 14  1  0
 14 15  2  0
 15 16  1  0
 16 17  2  0
 17 18  1  0
 18 19  2  0
 19 20  1  0
 17 21  1  0
 16 22  1  0
 15 23  1  0
 11 24  1  0
 10 25  1  0
  9 26  1  0
  7 27  1  0
  4 28  1  0
  3 29  1  0
  3 30  1  0
  2 31  1  0
  1 32  1  0
  1 33  1  0
 13  8  1  0
 19 14  1  0
M  END
>  <cnnaffinity>  (1) 
-4.72571

>  <filename>  (1) 
C=CCNC(=O)Nc1cccnc1-c1cccnc1

$$$$
