
     RDKit          3D

 44 47  0  0  0  0  0  0  0  0999 V2000
    7.5534    2.4593   26.8325 C   0  0  0  0  0  0  0  0  0  0  0  0
    6.9895    2.2293   25.6466 C   0  0  0  0  0  0  0  0  0  0  0  0
    7.4252    2.9037   24.3568 C   0  0  0  0  0  0  0  0  0  0  0  0
    6.4284    3.9566   23.8697 C   0  0  0  0  0  0  0  0  0  0  0  0
    6.7737    4.3907   22.9267 H   0  0  0  0  0  0  0  0  0  0  0  0
    6.3454    4.7602   24.6080 H   0  0  0  0  0  0  0  0  0  0  0  0
    5.4375    3.5237   23.6999 H   0  0  0  0  0  0  0  0  0  0  0  0
    7.7266    1.9199   23.2955 N   0  0  0  0  0  0  0  0  0  0  0  0
    6.7658    1.1471   22.7258 N   0  0  0  0  0  0  0  0  0  0  0  0
    7.4490    0.4019   21.8761 C   0  0  0  0  0  0  0  0  0  0  0  0
    6.8050   -0.5863   20.9374 C   0  0  0  0  0  0  0  0  0  0  0  0
    6.2495    0.0058   19.6394 C   0  0  0  0  0  0  0  0  0  0  0  0
    5.1368    0.8583   19.6808 C   0  0  0  0  0  0  0  0  0  0  0  0
    4.6921    1.4447   18.4928 C   0  0  0  0  0  0  0  0  0  0  0  0
    5.3731    1.1635   17.3070 C   0  0  0  0  0  0  0  0  0  0  0  0
    6.4144    0.3209   17.2352 N   0  0  0  0  0  0  0  0  0  0  0  0
    6.8241   -0.2459   18.3780 C   0  0  0  0  0  0  0  0  0  0  0  0
    7.6666   -0.9338   18.2871 H   0  0  0  0  0  0  0  0  0  0  0  0
    5.0668    1.6327   16.3737 H   0  0  0  0  0  0  0  0  0  0  0  0
    3.8493    2.1283   18.4759 H   0  0  0  0  0  0  0  0  0  0  0  0
    4.6373    1.0550   20.6315 H   0  0  0  0  0  0  0  0  0  0  0  0
    7.5557   -1.3533   20.7184 H   0  0  0  0  0  0  0  0  0  0  0  0
    5.9925   -1.0678   21.4918 H   0  0  0  0  0  0  0  0  0  0  0  0
    8.7850    0.6117   21.8874 N   0  0  0  0  0  0  0  0  0  0  0  0
    8.9367    1.6020   22.7615 C   0  0  0  0  0  0  0  0  0  0  0  0
   10.1519    2.3588   23.0127 C   0  0  0  0  0  0  0  0  0  0  0  0
   11.4415    1.8042   23.0115 C   0  0  0  0  0  0  0  0  0  0  0  0
   11.9774    0.4794   23.0060 C   0  0  0  0  0  0  0  0  0  0  0  0
   13.3452    0.3000   22.9307 C   0  0  0  0  0  0  0  0  0  0  0  0
   14.2066    1.4346   22.8438 C   0  0  0  0  0  0  0  0  0  0  0  0
   13.7006    2.7012   22.9161 C   0  0  0  0  0  0  0  0  0  0  0  0
   12.3334    2.8788   23.0109 N   0  0  0  0  0  0  0  0  0  0  0  0
   11.6293    4.0639   23.0501 C   0  0  0  0  0  0  0  0  0  0  0  0
   10.2942    3.7742   23.0596 C   0  0  0  0  0  0  0  0  0  0  0  0
    9.4771    4.4926   23.0252 H   0  0  0  0  0  0  0  0  0  0  0  0
   12.1588    5.0041   23.0049 H   0  0  0  0  0  0  0  0  0  0  0  0
   14.2971    3.6100   22.8890 H   0  0  0  0  0  0  0  0  0  0  0  0
   15.2694    1.3062   22.6879 H   0  0  0  0  0  0  0  0  0  0  0  0
   13.7932   -0.6909   22.9084 H   0  0  0  0  0  0  0  0  0  0  0  0
   11.2789   -0.3475   23.0224 H   0  0  0  0  0  0  0  0  0  0  0  0
    8.3687    3.4096   24.5759 H   0  0  0  0  0  0  0  0  0  0  0  0
    6.1458    1.5409   25.5581 H   0  0  0  0  0  0  0  0  0  0  0  0
    7.2028    1.9728   27.7422 H   0  0  0  0  0  0  0  0  0  0  0  0
    8.4187    3.1168   26.9484 H   0  0  0  0  0  0  0  0  0  0  0  0
  1  2  2  3
  2  3  1  0
  3  4  1  0
  4  5  1  0
  4  6  1  0
  4  7  1  0
  3  8  1  0
  8  9  1  0
  9 10  2  0
 10 11  1  0
 11 12  1  0
 12 13  2  0
 13 14  1  0
 14 15  2  0
 15 16  1  0
 16 17  2  0
 17 18  1  0
 15 19  1  0
 14 20  1  0
 13 21  1  0
 11 22  1  0
 11 23  1  0
 10 24  1  0
 24 25  2  0
 25 26  1  0
 26 27  2  0
 27 28  1  0
 28 29  2  0
 29 30  1  0
 30 31  2  0
 31 32  1  0
 32 33  1  0
 33 34  2  0
 34 35  1  0
 33 36  1  0
 31 37  1  0
 30 38  1  0
 29 39  1  0
 28 40  1  0
  3 41  1  0
  2 42  1  0
  1 43  1  0
  1 44  1  0
 25  8  1  0
 34 26  1  0
 17 12  1  0
 32 27  1  0
M  END
>  <cnnaffinity>  (1) 
-6.15204

>  <filename>  (1) 
C=CC(C)n1nc(Cc2cccnc2)nc1-c1ccn2ccccc12

$$$$
