
     RDKit          3D

 39 42  0  0  0  0  0  0  0  0999 V2000
   10.8489   -0.5435   24.0512 C   0  0  0  0  0  0  0  0  0  0  0  0
   10.8074   -0.8628   22.7589 C   0  0  0  0  0  0  0  0  0  0  0  0
   10.0087   -2.0126   22.1759 C   0  0  0  0  0  0  0  0  0  0  0  0
    8.6470   -1.6480   21.7827 N   0  0  0  0  0  0  0  0  0  0  0  0
    8.3933   -1.2018   20.5307 N   0  0  0  0  0  0  0  0  0  0  0  0
    7.1501   -0.7624   20.6166 C   0  0  0  0  0  0  0  0  0  0  0  0
    6.4636   -0.0726   19.5239 C   0  0  0  0  0  0  0  0  0  0  0  0
    5.2800    0.6570   19.7263 C   0  0  0  0  0  0  0  0  0  0  0  0
    4.7876    1.4288   18.6757 C   0  0  0  0  0  0  0  0  0  0  0  0
    5.4718    1.4169   17.4546 C   0  0  0  0  0  0  0  0  0  0  0  0
    6.5762    0.6875   17.2382 N   0  0  0  0  0  0  0  0  0  0  0  0
    7.0591   -0.0351   18.2532 C   0  0  0  0  0  0  0  0  0  0  0  0
    7.9658   -0.6050   18.0510 H   0  0  0  0  0  0  0  0  0  0  0  0
    5.1192    2.0133   16.6146 H   0  0  0  0  0  0  0  0  0  0  0  0
    3.9065    2.0520   18.7869 H   0  0  0  0  0  0  0  0  0  0  0  0
    4.7783    0.6304   20.6947 H   0  0  0  0  0  0  0  0  0  0  0  0
    6.5945   -0.8929   21.8500 N   0  0  0  0  0  0  0  0  0  0  0  0
    7.5694   -1.4195   22.5709 C   0  0  0  0  0  0  0  0  0  0  0  0
    7.6285   -1.6999   24.0335 C   0  0  0  0  0  0  0  0  0  0  0  0
    7.7142   -3.0062   24.4921 C   0  0  0  0  0  0  0  0  0  0  0  0
    7.9264   -3.2993   25.8553 C   0  0  0  0  0  0  0  0  0  0  0  0
    8.0565   -2.2814   26.7752 C   0  0  0  0  0  0  0  0  0  0  0  0
    7.9846   -0.9279   26.3604 C   0  0  0  0  0  0  0  0  0  0  0  0
    8.1666    0.1631   27.2557 C   0  0  0  0  0  0  0  0  0  0  0  0
    8.1112    1.4526   26.7788 C   0  0  0  0  0  0  0  0  0  0  0  0
    7.8741    1.7714   25.4890 N   0  0  0  0  0  0  0  0  0  0  0  0
    7.6858    0.7719   24.6420 C   0  0  0  0  0  0  0  0  0  0  0  0
    7.7394   -0.6170   24.9828 C   0  0  0  0  0  0  0  0  0  0  0  0
    7.4613    1.0401   23.6094 H   0  0  0  0  0  0  0  0  0  0  0  0
    8.2495    2.3050   27.4418 H   0  0  0  0  0  0  0  0  0  0  0  0
    8.3450   -0.0210   28.3087 H   0  0  0  0  0  0  0  0  0  0  0  0
    8.2021   -2.4931   27.8271 H   0  0  0  0  0  0  0  0  0  0  0  0
    8.0072   -4.3334   26.1746 H   0  0  0  0  0  0  0  0  0  0  0  0
    7.6353   -3.8295   23.7907 H   0  0  0  0  0  0  0  0  0  0  0  0
    9.9277   -2.8131   22.9146 H   0  0  0  0  0  0  0  0  0  0  0  0
   10.4708   -2.4098   21.2718 H   0  0  0  0  0  0  0  0  0  0  0  0
   11.3034   -0.2200   22.0323 H   0  0  0  0  0  0  0  0  0  0  0  0
   10.3756   -1.1433   24.8378 H   0  0  0  0  0  0  0  0  0  0  0  0
   11.3529    0.3676   24.3763 H   0  0  0  0  0  0  0  0  0  0  0  0
  1  2  2  3
  2  3  1  0
  3  4  1  0
  4  5  1  0
  5  6  2  0
  6  7  1  0
  7  8  2  0
  8  9  1  0
  9 10  2  0
 10 11  1  0
 11 12  2  0
 12 13  1  0
 10 14  1  0
  9 15  1  0
  8 16  1  0
  6 17  1  0
 17 18  2  0
 18 19  1  0
 19 20  2  0
 20 21  1  0
 21 22  2  0
 22 23  1  0
 23 24  2  0
 24 25  1  0
 25 26  2  0
 26 27  1  0
 27 28  2  0
 27 29  1  0
 25 30  1  0
 24 31  1  0
 22 32  1  0
 21 33  1  0
 20 34  1  0
  3 35  1  0
  3 36  1  0
  2 37  1  0
  1 38  1  0
  1 39  1  0
 18  4  1  0
 28 19  1  0
 12  7  1  0
 28 23  1  0
M  END
>  <cnnaffinity>  (1) 
-5.72661

>  <filename>  (1) 
C=CCn1nc(-c2cccnc2)nc1-c1cccc2ccncc12

$$$$
