
     RDKit          3D

 25 25  0  0  0  0  0  0  0  0999 V2000
   11.1960    2.0365   23.4770 H   0  0  0  0  0  0  0  0  0  0  0  0
   10.9287    0.9832   23.4608 C   0  0  0  0  0  0  0  0  0  0  0  0
   11.7230    0.2590   23.2789 H   0  0  0  0  0  0  0  0  0  0  0  0
    9.6738    0.5822   23.6207 C   0  0  0  0  0  0  0  0  0  0  0  0
    8.8740    1.3068   23.8230 H   0  0  0  0  0  0  0  0  0  0  0  0
    9.3455   -0.8915   23.5728 C   0  0  0  0  0  0  0  0  0  0  0  0
    8.3291   -1.1226   23.8836 H   0  0  0  0  0  0  0  0  0  0  0  0
   10.0457   -1.4694   24.1912 H   0  0  0  0  0  0  0  0  0  0  0  0
    9.5589   -1.7760   22.0253 S   0  0  0  0  0  0  0  0  0  0  0  0
   10.9204   -1.6121   21.5513 O   0  0  0  0  0  0  0  0  0  0  0  0
    8.9260   -3.0607   22.1959 O   0  0  0  0  0  0  0  0  0  0  0  0
    8.7537   -0.9433   20.8710 N   0  0  0  0  0  0  0  0  0  0  0  0
    9.3798   -0.3216   20.3970 H   0  0  0  0  0  0  0  0  0  0  0  0
    7.4236   -0.6986   21.0882 C   0  0  0  0  0  0  0  0  0  0  0  0
    6.8938   -1.0322   22.1246 O   0  0  0  0  0  0  0  0  0  0  0  0
    6.7423   -0.0056   19.9837 C   0  0  0  0  0  0  0  0  0  0  0  0
    7.2702    0.0112   18.6882 C   0  0  0  0  0  0  0  0  0  0  0  0
    8.2057   -0.5128   18.4708 H   0  0  0  0  0  0  0  0  0  0  0  0
    6.6655    0.6157   17.6581 N   0  0  0  0  0  0  0  0  0  0  0  0
    5.5019    1.2419   17.8920 C   0  0  0  0  0  0  0  0  0  0  0  0
    5.0459    1.7408   17.0353 H   0  0  0  0  0  0  0  0  0  0  0  0
    4.8827    1.2590   19.1485 C   0  0  0  0  0  0  0  0  0  0  0  0
    3.9477    1.7885   19.2783 H   0  0  0  0  0  0  0  0  0  0  0  0
    5.5057    0.6151   20.2113 C   0  0  0  0  0  0  0  0  0  0  0  0
    5.0712    0.5885   21.2107 H   0  0  0  0  0  0  0  0  0  0  0  0
  1  2  1  0
  2  3  1  0
  2  4  2  3
  4  5  1  0
  4  6  1  0
  6  7  1  0
  6  8  1  0
  6  9  1  0
  9 10  2  0
  9 11  2  0
  9 12  1  0
 12 13  1  0
 12 14  1  0
 14 15  2  0
 14 16  1  0
 16 17  2  0
 17 18  1  0
 17 19  1  0
 19 20  2  0
 20 21  1  0
 20 22  1  0
 22 23  1  0
 22 24  2  0
 24 25  1  0
 24 16  1  0
M  END
>  <cnnaffinity>  (1) 
-4.78086

>  <filename>  (1) 
C=CCS(=O)(=O)NC(=O)c1cccnc1

$$$$
