
     RDKit          3D

 43 45  0  0  0  0  0  0  0  0999 V2000
   12.5154   -1.5717   22.0978 C   0  0  0  0  0  0  0  0  0  0  0  0
   11.2464   -1.2424   22.2998 C   0  0  0  0  0  0  0  0  0  0  0  0
   10.1107   -2.2473   22.1569 C   0  0  0  0  0  0  0  0  0  0  0  0
    8.7912   -1.6506   21.9956 N   0  0  0  0  0  0  0  0  0  0  0  0
    8.4398   -1.2365   20.7595 N   0  0  0  0  0  0  0  0  0  0  0  0
    7.2250   -0.7521   20.9373 C   0  0  0  0  0  0  0  0  0  0  0  0
    6.5231   -0.0478   19.8696 C   0  0  0  0  0  0  0  0  0  0  0  0
    5.3308    0.6563   20.0891 C   0  0  0  0  0  0  0  0  0  0  0  0
    4.7682    1.3381   19.0122 C   0  0  0  0  0  0  0  0  0  0  0  0
    5.4226    1.3118   17.7746 C   0  0  0  0  0  0  0  0  0  0  0  0
    6.5794    0.6649   17.5662 N   0  0  0  0  0  0  0  0  0  0  0  0
    7.1153    0.0110   18.5997 C   0  0  0  0  0  0  0  0  0  0  0  0
    8.0692   -0.4816   18.4203 H   0  0  0  0  0  0  0  0  0  0  0  0
    5.0058    1.8297   16.9122 H   0  0  0  0  0  0  0  0  0  0  0  0
    3.8507    1.9046   19.1195 H   0  0  0  0  0  0  0  0  0  0  0  0
    4.8888    0.6877   21.0873 H   0  0  0  0  0  0  0  0  0  0  0  0
    6.7527   -0.8835   22.2012 N   0  0  0  0  0  0  0  0  0  0  0  0
    7.7617   -1.4379   22.8503 C   0  0  0  0  0  0  0  0  0  0  0  0
    7.8228   -1.7301   24.3210 C   0  0  0  0  0  0  0  0  0  0  0  0
    8.6684   -0.7116   25.1470 C   0  0  0  0  0  0  0  0  0  0  0  0
    8.6682   -1.0908   26.6345 C   0  0  0  0  0  0  0  0  0  0  0  0
    9.0895   -2.0935   26.7740 H   0  0  0  0  0  0  0  0  0  0  0  0
    7.6535   -1.0917   27.0526 H   0  0  0  0  0  0  0  0  0  0  0  0
    9.2661   -0.3860   27.2240 H   0  0  0  0  0  0  0  0  0  0  0  0
    8.1774    0.7180   24.9093 C   0  0  0  0  0  0  0  0  0  0  0  0
    6.8604    1.0817   25.2392 C   0  0  0  0  0  0  0  0  0  0  0  0
    6.3749    2.3651   24.9669 C   0  0  0  0  0  0  0  0  0  0  0  0
    7.2008    3.3060   24.3438 C   0  0  0  0  0  0  0  0  0  0  0  0
    8.5136    2.9624   24.0057 C   0  0  0  0  0  0  0  0  0  0  0  0
    8.9956    1.6788   24.2884 C   0  0  0  0  0  0  0  0  0  0  0  0
   10.0144    1.4179   24.0039 H   0  0  0  0  0  0  0  0  0  0  0  0
    9.1561    3.6879   23.5113 H   0  0  0  0  0  0  0  0  0  0  0  0
    6.8230    4.3010   24.1213 H   0  0  0  0  0  0  0  0  0  0  0  0
    5.3503    2.6223   25.2258 H   0  0  0  0  0  0  0  0  0  0  0  0
    6.1924    0.3482   25.6880 H   0  0  0  0  0  0  0  0  0  0  0  0
    9.7075   -0.7754   24.7902 H   0  0  0  0  0  0  0  0  0  0  0  0
    8.2166   -2.7428   24.4731 H   0  0  0  0  0  0  0  0  0  0  0  0
    6.7953   -1.7326   24.7024 H   0  0  0  0  0  0  0  0  0  0  0  0
   10.2570   -2.8281   21.2442 H   0  0  0  0  0  0  0  0  0  0  0  0
   10.0890   -2.9436   23.0046 H   0  0  0  0  0  0  0  0  0  0  0  0
   10.9954   -0.2072   22.5578 H   0  0  0  0  0  0  0  0  0  0  0  0
   12.8132   -2.5967   21.9059 H   0  0  0  0  0  0  0  0  0  0  0  0
   13.3350   -0.8653   22.1892 H   0  0  0  0  0  0  0  0  0  0  0  0
  1  2  2  3
  2  3  1  0
  3  4  1  0
  4  5  1  0
  5  6  2  0
  6  7  1  0
  7  8  2  0
  8  9  1  0
  9 10  2  0
 10 11  1  0
 11 12  2  0
 12 13  1  0
 10 14  1  0
  9 15  1  0
  8 16  1  0
  6 17  1  0
 17 18  2  0
 18 19  1  0
 19 20  1  0
 20 21  1  0
 21 22  1  0
 21 23  1  0
 21 24  1  0
 20 25  1  0
 25 26  2  0
 26 27  1  0
 27 28  2  0
 28 29  1  0
 29 30  2  0
 30 31  1  0
 29 32  1  0
 28 33  1  0
 27 34  1  0
 26 35  1  0
 20 36  1  0
 19 37  1  0
 19 38  1  0
  3 39  1  0
  3 40  1  0
  2 41  1  0
  1 42  1  0
  1 43  1  0
 18  4  1  0
 30 25  1  0
 12  7  1  0
M  END
>  <cnnaffinity>  (1) 
-5.8962

>  <filename>  (1) 
C=CCn1nc(-c2cccnc2)nc1CC(C)c1ccccc1

$$$$
