
     RDKit          3D

 48 52  0  0  0  0  0  0  0  0999 V2000
   12.5747   -0.8880   22.3458 C   0  0  0  0  0  0  0  0  0  0  0  0
   12.0445   -0.0267   23.2069 C   0  0  0  0  0  0  0  0  0  0  0  0
   12.1083    1.4786   23.0804 C   0  0  0  0  0  0  0  0  0  0  0  0
   11.3321    2.0852   21.9013 C   0  0  0  0  0  0  0  0  0  0  0  0
    9.9085    1.6145   21.9074 C   0  0  0  0  0  0  0  0  0  0  0  0
    9.4395    0.7067   21.0753 N   0  0  0  0  0  0  0  0  0  0  0  0
    8.2609    0.3407   21.6441 C   0  0  0  0  0  0  0  0  0  0  0  0
    7.3701   -0.6663   20.9809 C   0  0  0  0  0  0  0  0  0  0  0  0
    6.5945   -0.0489   19.8280 C   0  0  0  0  0  0  0  0  0  0  0  0
    5.3991    0.6334   20.0768 C   0  0  0  0  0  0  0  0  0  0  0  0
    4.7810    1.3165   19.0285 C   0  0  0  0  0  0  0  0  0  0  0  0
    5.3884    1.3045   17.7694 C   0  0  0  0  0  0  0  0  0  0  0  0
    6.5272    0.6472   17.5022 N   0  0  0  0  0  0  0  0  0  0  0  0
    7.1054   -0.0058   18.5183 C   0  0  0  0  0  0  0  0  0  0  0  0
    8.0426   -0.5142   18.2890 H   0  0  0  0  0  0  0  0  0  0  0  0
    4.9434    1.8479   16.9382 H   0  0  0  0  0  0  0  0  0  0  0  0
    3.8594    1.8670   19.1798 H   0  0  0  0  0  0  0  0  0  0  0  0
    4.9709    0.6388   21.0820 H   0  0  0  0  0  0  0  0  0  0  0  0
    6.6868   -1.0684   21.7345 H   0  0  0  0  0  0  0  0  0  0  0  0
    8.0042   -1.4861   20.6297 H   0  0  0  0  0  0  0  0  0  0  0  0
    7.9680    0.9611   22.7649 N   0  0  0  0  0  0  0  0  0  0  0  0
    9.0083    1.8296   22.9165 N   0  0  0  0  0  0  0  0  0  0  0  0
    8.9829    2.7790   23.9918 C   0  0  0  0  0  0  0  0  0  0  0  0
    8.7979    2.3442   25.2984 C   0  0  0  0  0  0  0  0  0  0  0  0
    8.7951    3.2845   26.3515 C   0  0  0  0  0  0  0  0  0  0  0  0
    9.0100    4.5819   26.2036 N   0  0  0  0  0  0  0  0  0  0  0  0
    9.1720    5.0284   24.9175 C   0  0  0  0  0  0  0  0  0  0  0  0
    9.4123    6.4140   24.6900 C   0  0  0  0  0  0  0  0  0  0  0  0
    9.4705    6.8918   23.3977 C   0  0  0  0  0  0  0  0  0  0  0  0
    9.2871    5.9980   22.3136 C   0  0  0  0  0  0  0  0  0  0  0  0
    9.1181    4.6924   22.4631 N   0  0  0  0  0  0  0  0  0  0  0  0
    9.0988    4.1914   23.7375 C   0  0  0  0  0  0  0  0  0  0  0  0
    9.2817    6.3721   21.2950 H   0  0  0  0  0  0  0  0  0  0  0  0
    9.6307    7.9422   23.1919 H   0  0  0  0  0  0  0  0  0  0  0  0
    9.5182    7.0473   25.5690 H   0  0  0  0  0  0  0  0  0  0  0  0
    8.6000    2.9480   27.3676 H   0  0  0  0  0  0  0  0  0  0  0  0
    8.6614    1.2909   25.5165 H   0  0  0  0  0  0  0  0  0  0  0  0
   11.3517    3.1762   21.9189 H   0  0  0  0  0  0  0  0  0  0  0  0
   11.7675    1.7567   20.9542 H   0  0  0  0  0  0  0  0  0  0  0  0
   13.3701    2.1268   23.5694 C   0  0  0  0  0  0  0  0  0  0  0  0
   12.0987    2.2890   24.3467 C   0  0  0  0  0  0  0  0  0  0  0  0
   11.6043    3.2566   24.2873 H   0  0  0  0  0  0  0  0  0  0  0  0
   11.9657    1.7675   25.2903 H   0  0  0  0  0  0  0  0  0  0  0  0
   14.1180    1.4462   23.9614 H   0  0  0  0  0  0  0  0  0  0  0  0
   13.7807    2.9782   23.0340 H   0  0  0  0  0  0  0  0  0  0  0  0
   11.4973   -0.4078   24.0760 H   0  0  0  0  0  0  0  0  0  0  0  0
   13.1730   -0.5491   21.5085 H   0  0  0  0  0  0  0  0  0  0  0  0
   12.4649   -1.9657   22.4387 H   0  0  0  0  0  0  0  0  0  0  0  0
  1  2  2  3
  2  3  1  0
  3  4  1  0
  4  5  1  0
  5  6  2  0
  6  7  1  0
  7  8  1  0
  8  9  1  0
  9 10  2  0
 10 11  1  0
 11 12  2  0
 12 13  1  0
 13 14  2  0
 14 15  1  0
 12 16  1  0
 11 17  1  0
 10 18  1  0
  8 19  1  0
  8 20  1  0
  7 21  2  0
 21 22  1  0
 22 23  1  0
 23 24  2  0
 24 25  1  0
 25 26  2  0
 26 27  1  0
 27 28  2  0
 28 29  1  0
 29 30  2  0
 30 31  1  0
 31 32  2  0
 30 33  1  0
 29 34  1  0
 28 35  1  0
 25 36  1  0
 24 37  1  0
  4 38  1  0
  4 39  1  0
  3 40  1  0
 40 41  1  0
 41 42  1  0
 41 43  1  0
 40 44  1  0
 40 45  1  0
  2 46  1  0
  1 47  1  0
  1 48  1  0
 41  3  1  0
 22  5  1  0
 32 23  1  0
 14  9  1  0
 32 27  1  0
M  END
>  <cnnaffinity>  (1) 
-6.06409

>  <filename>  (1) 
C=CC1(Cc2nc(Cc3cccnc3)nn2-c2ccnc3cccnc23)CC1

$$$$
