
     RDKit          3D

 44 47  0  0  0  0  0  0  0  0999 V2000
   12.4491    3.7776   20.7713 C   0  0  0  0  0  0  0  0  0  0  0  0
   11.7563    2.6502   20.8779 C   0  0  0  0  0  0  0  0  0  0  0  0
   11.4449    1.9363   22.1734 C   0  0  0  0  0  0  0  0  0  0  0  0
   12.3758    0.7343   22.4099 C   0  0  0  0  0  0  0  0  0  0  0  0
   13.4219    1.0222   22.2705 H   0  0  0  0  0  0  0  0  0  0  0  0
   12.2481    0.3481   23.4260 H   0  0  0  0  0  0  0  0  0  0  0  0
   12.1413   -0.0645   21.6962 H   0  0  0  0  0  0  0  0  0  0  0  0
   10.0271    1.5159   22.1717 N   0  0  0  0  0  0  0  0  0  0  0  0
    9.6159    0.5997   21.2590 N   0  0  0  0  0  0  0  0  0  0  0  0
    8.3936    0.3027   21.6552 C   0  0  0  0  0  0  0  0  0  0  0  0
    7.5251   -0.6609   20.9019 C   0  0  0  0  0  0  0  0  0  0  0  0
    6.7190   -0.0225   19.7729 C   0  0  0  0  0  0  0  0  0  0  0  0
    5.5114    0.6353   20.0532 C   0  0  0  0  0  0  0  0  0  0  0  0
    4.8426    1.3112   19.0279 C   0  0  0  0  0  0  0  0  0  0  0  0
    5.4097    1.3001   17.7488 C   0  0  0  0  0  0  0  0  0  0  0  0
    6.5411    0.6444   17.4462 N   0  0  0  0  0  0  0  0  0  0  0  0
    7.1653    0.0013   18.4414 C   0  0  0  0  0  0  0  0  0  0  0  0
    8.0698   -0.5427   18.1674 H   0  0  0  0  0  0  0  0  0  0  0  0
    4.9310    1.8247   16.9231 H   0  0  0  0  0  0  0  0  0  0  0  0
    3.9126    1.8490   19.2012 H   0  0  0  0  0  0  0  0  0  0  0  0
    5.1032    0.6050   21.0660 H   0  0  0  0  0  0  0  0  0  0  0  0
    6.8362   -1.0929   21.6323 H   0  0  0  0  0  0  0  0  0  0  0  0
    8.1593   -1.4723   20.5304 H   0  0  0  0  0  0  0  0  0  0  0  0
    7.9860    0.9528   22.7673 N   0  0  0  0  0  0  0  0  0  0  0  0
    9.0006    1.7642   23.0298 C   0  0  0  0  0  0  0  0  0  0  0  0
    8.9761    2.8174   24.0809 C   0  0  0  0  0  0  0  0  0  0  0  0
    8.7630    2.4856   25.4016 C   0  0  0  0  0  0  0  0  0  0  0  0
    8.8253    3.4858   26.4070 C   0  0  0  0  0  0  0  0  0  0  0  0
    9.1282    4.7486   26.1906 N   0  0  0  0  0  0  0  0  0  0  0  0
    9.2875    5.1171   24.8869 C   0  0  0  0  0  0  0  0  0  0  0  0
    9.6122    6.4613   24.6186 C   0  0  0  0  0  0  0  0  0  0  0  0
    9.5514    6.9000   23.3229 C   0  0  0  0  0  0  0  0  0  0  0  0
    9.2141    6.1100   22.2806 N   0  0  0  0  0  0  0  0  0  0  0  0
    8.9962    4.8269   22.5136 C   0  0  0  0  0  0  0  0  0  0  0  0
    9.1077    4.2235   23.7922 C   0  0  0  0  0  0  0  0  0  0  0  0
    8.6967    4.2055   21.6691 H   0  0  0  0  0  0  0  0  0  0  0  0
    9.7523    7.9350   23.0610 H   0  0  0  0  0  0  0  0  0  0  0  0
    9.8438    7.0855   25.4670 H   0  0  0  0  0  0  0  0  0  0  0  0
    8.6198    3.1887   27.4325 H   0  0  0  0  0  0  0  0  0  0  0  0
    8.5611    1.4612   25.6865 H   0  0  0  0  0  0  0  0  0  0  0  0
   11.5421    2.6453   23.0026 H   0  0  0  0  0  0  0  0  0  0  0  0
   11.3685    2.1634   19.9857 H   0  0  0  0  0  0  0  0  0  0  0  0
   12.6426    4.2172   19.8005 H   0  0  0  0  0  0  0  0  0  0  0  0
   12.8054    4.3286   21.6396 H   0  0  0  0  0  0  0  0  0  0  0  0
  1  2  2  3
  2  3  1  0
  3  4  1  0
  4  5  1  0
  4  6  1  0
  4  7  1  0
  3  8  1  0
  8  9  1  0
  9 10  2  0
 10 11  1  0
 11 12  1  0
 12 13  2  0
 13 14  1  0
 14 15  2  0
 15 16  1  0
 16 17  2  0
 17 18  1  0
 15 19  1  0
 14 20  1  0
 13 21  1  0
 11 22  1  0
 11 23  1  0
 10 24  1  0
 24 25  2  0
 25 26  1  0
 26 27  2  0
 27 28  1  0
 28 29  2  0
 29 30  1  0
 30 31  2  0
 31 32  1  0
 32 33  2  0
 33 34  1  0
 34 35  2  0
 34 36  1  0
 32 37  1  0
 31 38  1  0
 28 39  1  0
 27 40  1  0
  3 41  1  0
  2 42  1  0
  1 43  1  0
  1 44  1  0
 25  8  1  0
 35 26  1  0
 17 12  1  0
 35 30  1  0
M  END
>  <cnnaffinity>  (1) 
-6.27583

>  <filename>  (1) 
C=CC(C)n1nc(Cc2cccnc2)nc1-c1ccnc2ccncc12

$$$$
