
     RDKit          3D

 39 42  0  0  0  0  0  0  0  0999 V2000
    6.8201   -3.7616   25.6128 C   0  0  0  0  0  0  0  0  0  0  0  0
    6.8347   -3.0700   24.4224 C   0  0  0  0  0  0  0  0  0  0  0  0
    7.4038   -1.6790   24.3210 C   0  0  0  0  0  0  0  0  0  0  0  0
    7.4248   -1.2162   22.9187 N   0  0  0  0  0  0  0  0  0  0  0  0
    6.4854   -0.4593   22.2907 N   0  0  0  0  0  0  0  0  0  0  0  0
    6.9205   -0.4121   21.0506 C   0  0  0  0  0  0  0  0  0  0  0  0
    6.3111    0.2329   19.8988 C   0  0  0  0  0  0  0  0  0  0  0  0
    5.1067    0.9475   19.9172 C   0  0  0  0  0  0  0  0  0  0  0  0
    4.6894    1.5192   18.7136 C   0  0  0  0  0  0  0  0  0  0  0  0
    5.4560    1.3595   17.5530 C   0  0  0  0  0  0  0  0  0  0  0  0
    6.6033    0.6617   17.5391 N   0  0  0  0  0  0  0  0  0  0  0  0
    7.0139    0.1236   18.6952 C   0  0  0  0  0  0  0  0  0  0  0  0
    7.9518   -0.4225   18.6873 H   0  0  0  0  0  0  0  0  0  0  0  0
    5.1112    1.8201   16.6322 H   0  0  0  0  0  0  0  0  0  0  0  0
    3.7807    2.1094   18.6623 H   0  0  0  0  0  0  0  0  0  0  0  0
    4.5221    1.0787   20.8284 H   0  0  0  0  0  0  0  0  0  0  0  0
    8.1163   -1.0743   20.8382 N   0  0  0  0  0  0  0  0  0  0  0  0
    8.4059   -1.5510   22.0048 C   0  0  0  0  0  0  0  0  0  0  0  0
    9.6259   -2.3786   22.2495 C   0  0  0  0  0  0  0  0  0  0  0  0
   10.5539   -1.7727   23.3138 C   0  0  0  0  0  0  0  0  0  0  0  0
   10.6360   -2.7029   24.4107 O   0  0  0  0  0  0  0  0  0  0  0  0
    9.8632   -3.7820   24.1087 C   0  0  0  0  0  0  0  0  0  0  0  0
    9.6262   -4.8959   24.9046 C   0  0  0  0  0  0  0  0  0  0  0  0
    8.7915   -5.9157   24.4233 C   0  0  0  0  0  0  0  0  0  0  0  0
    8.1876   -5.8095   23.1550 C   0  0  0  0  0  0  0  0  0  0  0  0
    7.0949   -7.2071   22.4310 Br  0  0  0  0  0  0  0  0  0  0  0  0
    8.3873   -4.6504   22.4001 C   0  0  0  0  0  0  0  0  0  0  0  0
    9.2455   -3.6597   22.8842 C   0  0  0  0  0  0  0  0  0  0  0  0
    7.8951   -4.5295   21.4396 H   0  0  0  0  0  0  0  0  0  0  0  0
    8.6170   -6.7729   25.0604 H   0  0  0  0  0  0  0  0  0  0  0  0
   10.0807   -4.9541   25.8885 H   0  0  0  0  0  0  0  0  0  0  0  0
   11.5497   -1.5979   22.8876 H   0  0  0  0  0  0  0  0  0  0  0  0
   10.1647   -0.8191   23.6869 H   0  0  0  0  0  0  0  0  0  0  0  0
   10.1542   -2.5448   21.3059 H   0  0  0  0  0  0  0  0  0  0  0  0
    6.8229   -0.9898   24.9401 H   0  0  0  0  0  0  0  0  0  0  0  0
    8.4208   -1.6851   24.7212 H   0  0  0  0  0  0  0  0  0  0  0  0
    6.4335   -3.5370   23.5287 H   0  0  0  0  0  0  0  0  0  0  0  0
    6.4210   -4.7693   25.6872 H   0  0  0  0  0  0  0  0  0  0  0  0
    7.2020   -3.3190   26.5267 H   0  0  0  0  0  0  0  0  0  0  0  0
  1  2  2  3
  2  3  1  0
  3  4  1  0
  4  5  1  0
  5  6  2  0
  6  7  1  0
  7  8  2  0
  8  9  1  0
  9 10  2  0
 10 11  1  0
 11 12  2  0
 12 13  1  0
 10 14  1  0
  9 15  1  0
  8 16  1  0
  6 17  1  0
 17 18  2  0
 18 19  1  0
 19 20  1  0
 20 21  1  0
 21 22  1  0
 22 23  2  0
 23 24  1  0
 24 25  2  0
 25 26  1  0
 25 27  1  0
 27 28  2  0
 27 29  1  0
 24 30  1  0
 23 31  1  0
 20 32  1  0
 20 33  1  0
 19 34  1  0
  3 35  1  0
  3 36  1  0
  2 37  1  0
  1 38  1  0
  1 39  1  0
 18  4  1  0
 28 19  1  0
 12  7  1  0
 28 22  1  0
M  END
>  <cnnaffinity>  (1) 
-6.25792

>  <filename>  (1) 
C=CCn1nc(-c2cccnc2)nc1C1COc2ccc(Br)cc21

$$$$
