
     RDKit          3D

 43 46  0  0  0  0  0  0  0  0999 V2000
    6.9386    2.2916   26.8098 C   0  0  0  0  0  0  0  0  0  0  0  0
    6.5434    2.1176   25.5517 C   0  0  0  0  0  0  0  0  0  0  0  0
    7.2106    2.7294   24.3368 C   0  0  0  0  0  0  0  0  0  0  0  0
    6.3865    3.8629   23.7245 C   0  0  0  0  0  0  0  0  0  0  0  0
    6.2259    4.6595   24.4569 H   0  0  0  0  0  0  0  0  0  0  0  0
    6.9107    4.2832   22.8597 H   0  0  0  0  0  0  0  0  0  0  0  0
    5.4137    3.4906   23.3879 H   0  0  0  0  0  0  0  0  0  0  0  0
    7.4851    1.6925   23.3295 N   0  0  0  0  0  0  0  0  0  0  0  0
    6.4604    1.0405   22.7154 N   0  0  0  0  0  0  0  0  0  0  0  0
    7.0843    0.1459   21.9693 C   0  0  0  0  0  0  0  0  0  0  0  0
    6.4348   -0.7179   20.9339 C   0  0  0  0  0  0  0  0  0  0  0  0
    6.1352    0.0334   19.6378 C   0  0  0  0  0  0  0  0  0  0  0  0
    5.1704    1.0514   19.6336 C   0  0  0  0  0  0  0  0  0  0  0  0
    4.8109    1.6172   18.4112 C   0  0  0  0  0  0  0  0  0  0  0  0
    5.4698    1.1960   17.2544 C   0  0  0  0  0  0  0  0  0  0  0  0
    6.4765    0.3093   17.2496 N   0  0  0  0  0  0  0  0  0  0  0  0
    6.8014   -0.2392   18.4274 C   0  0  0  0  0  0  0  0  0  0  0  0
    7.6415   -0.9366   18.4229 H   0  0  0  0  0  0  0  0  0  0  0  0
    5.1684    1.5921   16.2913 H   0  0  0  0  0  0  0  0  0  0  0  0
    4.0325    2.3695   18.3361 H   0  0  0  0  0  0  0  0  0  0  0  0
    4.7261    1.3952   20.5707 H   0  0  0  0  0  0  0  0  0  0  0  0
    5.5155   -1.1372   21.3573 H   0  0  0  0  0  0  0  0  0  0  0  0
    7.1216   -1.5489   20.7438 H   0  0  0  0  0  0  0  0  0  0  0  0
    8.4202    0.1323   22.1090 N   0  0  0  0  0  0  0  0  0  0  0  0
    8.6586    1.1442   22.9326 C   0  0  0  0  0  0  0  0  0  0  0  0
   10.0302    1.6003   23.2001 C   0  0  0  0  0  0  0  0  0  0  0  0
   10.4312    2.9722   23.1668 C   0  0  0  0  0  0  0  0  0  0  0  0
   11.7656    3.3267   23.1434 C   0  0  0  0  0  0  0  0  0  0  0  0
   12.7125    2.2747   23.1487 C   0  0  0  0  0  0  0  0  0  0  0  0
   14.0540    2.2631   22.9616 N   0  0  0  0  0  0  0  0  0  0  0  0
   14.5775    1.0170   22.9236 N   0  0  0  0  0  0  0  0  0  0  0  0
   13.5670    0.1976   23.1073 C   0  0  0  0  0  0  0  0  0  0  0  0
   12.3431    0.9172   23.2537 C   0  0  0  0  0  0  0  0  0  0  0  0
   10.9792    0.5857   23.2899 C   0  0  0  0  0  0  0  0  0  0  0  0
   10.6220   -0.4384   23.3045 H   0  0  0  0  0  0  0  0  0  0  0  0
   13.7233   -0.8708   23.0706 H   0  0  0  0  0  0  0  0  0  0  0  0
   14.6392    3.0582   22.7790 H   0  0  0  0  0  0  0  0  0  0  0  0
   12.0617    4.3685   23.1008 H   0  0  0  0  0  0  0  0  0  0  0  0
    9.6968    3.7731   23.0971 H   0  0  0  0  0  0  0  0  0  0  0  0
    8.1793    3.1238   24.6525 H   0  0  0  0  0  0  0  0  0  0  0  0
    5.6442    1.5407   25.3362 H   0  0  0  0  0  0  0  0  0  0  0  0
    7.8123    2.8893   27.0619 H   0  0  0  0  0  0  0  0  0  0  0  0
    6.4302    1.8152   27.6457 H   0  0  0  0  0  0  0  0  0  0  0  0
  1  2  2  3
  2  3  1  0
  3  4  1  0
  4  5  1  0
  4  6  1  0
  4  7  1  0
  3  8  1  0
  8  9  1  0
  9 10  2  0
 10 11  1  0
 11 12  1  0
 12 13  2  0
 13 14  1  0
 14 15  2  0
 15 16  1  0
 16 17  2  0
 17 18  1  0
 15 19  1  0
 14 20  1  0
 13 21  1  0
 11 22  1  0
 11 23  1  0
 10 24  1  0
 24 25  2  0
 25 26  1  0
 26 27  2  0
 27 28  1  0
 28 29  2  0
 29 30  1  0
 30 31  1  0
 31 32  2  0
 32 33  1  0
 33 34  2  0
 34 35  1  0
 32 36  1  0
 30 37  1  0
 28 38  1  0
 27 39  1  0
  3 40  1  0
  2 41  1  0
  1 42  1  0
  1 43  1  0
 25  8  1  0
 34 26  1  0
 17 12  1  0
 33 29  1  0
M  END
>  <cnnaffinity>  (1) 
-6.45957

>  <filename>  (1) 
C=CC(C)n1nc(Cc2cccnc2)nc1-c1ccc2[nH]ncc2c1

$$$$
