
     RDKit          3D

 45 48  0  0  0  0  0  0  0  0999 V2000
   13.6786   -1.5593   21.8960 C   0  0  0  0  0  0  0  0  0  0  0  0
   12.4613   -1.9887   22.1984 C   0  0  0  0  0  0  0  0  0  0  0  0
   11.1700   -1.2571   21.9723 C   0  0  0  0  0  0  0  0  0  0  0  0
   10.0018   -2.2282   22.1122 C   0  0  0  0  0  0  0  0  0  0  0  0
    8.7258   -1.5575   22.0151 N   0  0  0  0  0  0  0  0  0  0  0  0
    8.3979   -1.0830   20.7976 N   0  0  0  0  0  0  0  0  0  0  0  0
    7.1947   -0.5725   20.9874 C   0  0  0  0  0  0  0  0  0  0  0  0
    6.4919    0.0913   19.8905 C   0  0  0  0  0  0  0  0  0  0  0  0
    5.2689    0.7622   20.0444 C   0  0  0  0  0  0  0  0  0  0  0  0
    4.7290    1.3965   18.9252 C   0  0  0  0  0  0  0  0  0  0  0  0
    5.4152    1.3271   17.7081 C   0  0  0  0  0  0  0  0  0  0  0  0
    6.5686    0.6635   17.5443 N   0  0  0  0  0  0  0  0  0  0  0  0
    7.0913    0.0646   18.6185 C   0  0  0  0  0  0  0  0  0  0  0  0
    8.0276   -0.4650   18.4475 H   0  0  0  0  0  0  0  0  0  0  0  0
    5.0164    1.8215   16.8239 H   0  0  0  0  0  0  0  0  0  0  0  0
    3.7961    1.9457   18.9830 H   0  0  0  0  0  0  0  0  0  0  0  0
    4.7606    0.7811   21.0117 H   0  0  0  0  0  0  0  0  0  0  0  0
    6.7285   -0.7110   22.2525 N   0  0  0  0  0  0  0  0  0  0  0  0
    7.7164   -1.3318   22.8824 C   0  0  0  0  0  0  0  0  0  0  0  0
    7.7865   -1.7049   24.3531 C   0  0  0  0  0  0  0  0  0  0  0  0
    8.8622   -0.9173   25.1489 C   0  0  0  0  0  0  0  0  0  0  0  0
    8.9116   -1.4299   26.5882 C   0  0  0  0  0  0  0  0  0  0  0  0
    9.3227   -2.7962   26.6321 O   0  0  0  0  0  0  0  0  0  0  0  0
    8.6614   -3.6477   25.7913 C   0  0  0  0  0  0  0  0  0  0  0  0
    8.7624   -5.0068   26.0990 C   0  0  0  0  0  0  0  0  0  0  0  0
    8.1377   -5.9508   25.2946 C   0  0  0  0  0  0  0  0  0  0  0  0
    7.4288   -5.5504   24.1530 C   0  0  0  0  0  0  0  0  0  0  0  0
    7.3324   -4.1877   23.8459 C   0  0  0  0  0  0  0  0  0  0  0  0
    7.9455   -3.2127   24.6494 C   0  0  0  0  0  0  0  0  0  0  0  0
    6.7569   -3.8648   22.9784 H   0  0  0  0  0  0  0  0  0  0  0  0
    6.9562   -6.2873   23.5118 H   0  0  0  0  0  0  0  0  0  0  0  0
    8.2230   -6.9857   25.6017 H   0  0  0  0  0  0  0  0  0  0  0  0
    9.3309   -5.2945   26.9769 H   0  0  0  0  0  0  0  0  0  0  0  0
    9.6397   -0.8830   27.1903 H   0  0  0  0  0  0  0  0  0  0  0  0
    7.9323   -1.3393   27.0795 H   0  0  0  0  0  0  0  0  0  0  0  0
    8.6612    0.1597   25.1239 H   0  0  0  0  0  0  0  0  0  0  0  0
    9.8543   -1.0925   24.7158 H   0  0  0  0  0  0  0  0  0  0  0  0
    6.7980   -1.4089   24.7286 H   0  0  0  0  0  0  0  0  0  0  0  0
   10.0560   -2.7984   23.0403 H   0  0  0  0  0  0  0  0  0  0  0  0
   10.0205   -2.9266   21.2779 H   0  0  0  0  0  0  0  0  0  0  0  0
   11.0701   -0.4441   22.7090 H   0  0  0  0  0  0  0  0  0  0  0  0
   11.1282   -0.7775   20.9864 H   0  0  0  0  0  0  0  0  0  0  0  0
   12.3694   -2.9471   22.7213 H   0  0  0  0  0  0  0  0  0  0  0  0
   13.8657   -0.6510   21.3321 H   0  0  0  0  0  0  0  0  0  0  0  0
   14.5539   -2.1163   22.2132 H   0  0  0  0  0  0  0  0  0  0  0  0
  1  2  2  3
  2  3  1  0
  3  4  1  0
  4  5  1  0
  5  6  1  0
  6  7  2  0
  7  8  1  0
  8  9  2  0
  9 10  1  0
 10 11  2  0
 11 12  1  0
 12 13  2  0
 13 14  1  0
 11 15  1  0
 10 16  1  0
  9 17  1  0
  7 18  1  0
 18 19  2  0
 19 20  1  0
 20 21  1  0
 21 22  1  0
 22 23  1  0
 23 24  1  0
 24 25  2  0
 25 26  1  0
 26 27  2  0
 27 28  1  0
 28 29  2  0
 28 30  1  0
 27 31  1  0
 26 32  1  0
 25 33  1  0
 22 34  1  0
 22 35  1  0
 21 36  1  0
 21 37  1  0
 20 38  1  0
  4 39  1  0
  4 40  1  0
  3 41  1  0
  3 42  1  0
  2 43  1  0
  1 44  1  0
  1 45  1  0
 19  5  1  0
 29 20  1  0
 13  8  1  0
 29 24  1  0
M  END
>  <cnnaffinity>  (1) 
-6.34843

>  <filename>  (1) 
C=CCCn1nc(-c2cccnc2)nc1C1CCOc2ccccc21

$$$$
