
     RDKit          3D

 42 45  0  0  0  0  0  0  0  0999 V2000
    8.3453    5.4331   24.5031 C   0  0  0  0  0  0  0  0  0  0  0  0
    7.7200    4.4364   23.8798 C   0  0  0  0  0  0  0  0  0  0  0  0
    7.9023    2.9756   24.2468 C   0  0  0  0  0  0  0  0  0  0  0  0
    8.3177    2.1122   23.1415 N   0  0  0  0  0  0  0  0  0  0  0  0
    7.4519    1.1821   22.6472 N   0  0  0  0  0  0  0  0  0  0  0  0
    8.1170    0.6720   21.6304 C   0  0  0  0  0  0  0  0  0  0  0  0
    7.6052   -0.4175   20.7334 C   0  0  0  0  0  0  0  0  0  0  0  0
    6.8076    0.1275   19.5572 C   0  0  0  0  0  0  0  0  0  0  0  0
    5.6009    0.7910   19.8151 C   0  0  0  0  0  0  0  0  0  0  0  0
    4.8904    1.3346   18.7468 C   0  0  0  0  0  0  0  0  0  0  0  0
    5.4156    1.2109   17.4588 C   0  0  0  0  0  0  0  0  0  0  0  0
    6.5692    0.5837   17.1905 N   0  0  0  0  0  0  0  0  0  0  0  0
    7.2421    0.0595   18.2232 C   0  0  0  0  0  0  0  0  0  0  0  0
    8.1826   -0.4384   17.9764 H   0  0  0  0  0  0  0  0  0  0  0  0
    4.8951    1.6368   16.6044 H   0  0  0  0  0  0  0  0  0  0  0  0
    3.9561    1.8582   18.9037 H   0  0  0  0  0  0  0  0  0  0  0  0
    5.2488    0.8863   20.8440 H   0  0  0  0  0  0  0  0  0  0  0  0
    6.9883   -1.0916   21.3390 H   0  0  0  0  0  0  0  0  0  0  0  0
    8.4882   -0.9751   20.4115 H   0  0  0  0  0  0  0  0  0  0  0  0
    9.3276    1.2459   21.4031 N   0  0  0  0  0  0  0  0  0  0  0  0
    9.4757    2.0479   22.4378 C   0  0  0  0  0  0  0  0  0  0  0  0
   10.8862    2.5244   22.9849 C   0  0  0  0  0  0  0  0  0  0  0  0
   11.4475    3.8409   22.5057 C   0  0  0  0  0  0  0  0  0  0  0  0
   12.6788    4.2344   22.4085 C   0  0  0  0  0  0  0  0  0  0  0  0
   13.6988    3.1750   22.6299 C   0  0  0  0  0  0  0  0  0  0  0  0
   13.3453    1.8474   22.7994 C   0  0  0  0  0  0  0  0  0  0  0  0
   12.0005    1.4679   22.8560 C   0  0  0  0  0  0  0  0  0  0  0  0
   11.7288    0.0380   22.9476 C   0  0  0  0  0  0  0  0  0  0  0  0
   10.6710   -0.5305   23.1435 O   0  0  0  0  0  0  0  0  0  0  0  0
   12.8270   -0.7992   22.7727 N   0  0  0  0  0  0  0  0  0  0  0  0
   14.1029   -0.3381   22.7939 C   0  0  0  0  0  0  0  0  0  0  0  0
   14.4075    0.9040   22.8201 N   0  0  0  0  0  0  0  0  0  0  0  0
   14.8744   -1.1069   22.7857 H   0  0  0  0  0  0  0  0  0  0  0  0
   12.5532   -1.7562   22.9358 H   0  0  0  0  0  0  0  0  0  0  0  0
   14.7452    3.4186   22.5468 H   0  0  0  0  0  0  0  0  0  0  0  0
   13.0946    5.2553   22.1753 H   0  0  0  0  0  0  0  0  0  0  0  0
   10.7781    2.8897   24.0636 H   0  0  0  0  0  0  0  0  0  0  0  0
    6.9618    2.5552   24.6087 H   0  0  0  0  0  0  0  0  0  0  0  0
    8.6348    2.8851   25.0605 H   0  0  0  0  0  0  0  0  0  0  0  0
    7.0222    4.6560   23.0685 H   0  0  0  0  0  0  0  0  0  0  0  0
    8.1806    6.4697   24.2218 H   0  0  0  0  0  0  0  0  0  0  0  0
    9.0542    5.2606   25.3144 H   0  0  0  0  0  0  0  0  0  0  0  0
  1  2  2  3
  2  3  1  0
  3  4  1  0
  4  5  1  0
  5  6  2  0
  6  7  1  0
  7  8  1  0
  8  9  2  0
  9 10  1  0
 10 11  2  0
 11 12  1  0
 12 13  2  0
 13 14  1  0
 11 15  1  0
 10 16  1  0
  9 17  1  0
  7 18  1  0
  7 19  1  0
  6 20  1  0
 20 21  2  0
 21 22  1  0
 22 23  2  0
 23 24  1  0
 24 25  2  0
 25 26  1  0
 26 27  2  0
 27 28  1  0
 28 29  2  0
 28 30  1  0
 30 31  1  0
 31 32  2  0
 31 33  1  0
 30 34  1  0
 25 35  1  0
 24 36  1  0
 23 37  1  0
  3 38  1  0
  3 39  1  0
  2 40  1  0
  1 41  1  0
  1 42  1  0
 21  4  1  0
 27 22  1  0
 13  8  1  0
 32 26  1  0
M  END
>  <cnnaffinity>  (1) 
-6.15825

>  <filename>  (1) 
C=CCn1nc(Cc2cccnc2)nc1-c1cccc2nc[nH]c(=O)c12

$$$$
