
     RDKit          3D

 40 43  0  0  0  0  0  0  0  0999 V2000
    9.6238    1.0351   26.1197 C   0  0  0  0  0  0  0  0  0  0  0  0
    9.6172    2.0598   25.1992 C   0  0  0  0  0  0  0  0  0  0  0  0
    8.3712    2.4920   24.4650 C   0  0  0  0  0  0  0  0  0  0  0  0
    8.3100    1.7988   23.1701 N   0  0  0  0  0  0  0  0  0  0  0  0
    7.2758    1.0253   22.7510 N   0  0  0  0  0  0  0  0  0  0  0  0
    7.7970    0.3740   21.7379 C   0  0  0  0  0  0  0  0  0  0  0  0
    7.0634   -0.6436   20.9095 C   0  0  0  0  0  0  0  0  0  0  0  0
    6.4240    0.0159   19.7072 C   0  0  0  0  0  0  0  0  0  0  0  0
    5.2635    0.7712   19.8620 C   0  0  0  0  0  0  0  0  0  0  0  0
    4.7322    1.3853   18.7299 C   0  0  0  0  0  0  0  0  0  0  0  0
    5.3685    1.2376   17.4919 C   0  0  0  0  0  0  0  0  0  0  0  0
    6.4955    0.5200   17.3387 N   0  0  0  0  0  0  0  0  0  0  0  0
    7.0114   -0.0716   18.4308 C   0  0  0  0  0  0  0  0  0  0  0  0
    7.9347   -0.6348   18.3317 H   0  0  0  0  0  0  0  0  0  0  0  0
    4.9424    1.7273   16.6234 H   0  0  0  0  0  0  0  0  0  0  0  0
    3.8379    1.9917   18.8009 H   0  0  0  0  0  0  0  0  0  0  0  0
    4.8031    0.8858   20.8423 H   0  0  0  0  0  0  0  0  0  0  0  0
    7.7813   -1.3971   20.5764 H   0  0  0  0  0  0  0  0  0  0  0  0
    6.3065   -1.1458   21.5210 H   0  0  0  0  0  0  0  0  0  0  0  0
    9.1204    0.6721   21.4698 N   0  0  0  0  0  0  0  0  0  0  0  0
    9.4084    1.5744   22.3623 C   0  0  0  0  0  0  0  0  0  0  0  0
   10.7621    2.0657   22.5609 C   0  0  0  0  0  0  0  0  0  0  0  0
   11.7863    1.1399   22.5734 C   0  0  0  0  0  0  0  0  0  0  0  0
   13.1764    1.5601   22.6848 C   0  0  0  0  0  0  0  0  0  0  0  0
   14.5245    0.2264   22.5386 Br  0  0  0  0  0  0  0  0  0  0  0  0
   13.4776    2.9031   22.8091 C   0  0  0  0  0  0  0  0  0  0  0  0
   12.4342    3.8312   22.8870 N   0  0  0  0  0  0  0  0  0  0  0  0
   12.4908    5.1823   23.1342 C   0  0  0  0  0  0  0  0  0  0  0  0
   11.1834    5.5987   23.1352 C   0  0  0  0  0  0  0  0  0  0  0  0
   10.3187    4.5290   22.9126 N   0  0  0  0  0  0  0  0  0  0  0  0
   11.0959    3.4791   22.7719 C   0  0  0  0  0  0  0  0  0  0  0  0
   10.8574    6.6233   23.2953 H   0  0  0  0  0  0  0  0  0  0  0  0
   13.3843    5.7753   23.2929 H   0  0  0  0  0  0  0  0  0  0  0  0
   14.5059    3.2398   22.8106 H   0  0  0  0  0  0  0  0  0  0  0  0
   11.5651    0.0821   22.4504 H   0  0  0  0  0  0  0  0  0  0  0  0
    8.3692    3.5788   24.3282 H   0  0  0  0  0  0  0  0  0  0  0  0
    7.4872    2.2256   25.0502 H   0  0  0  0  0  0  0  0  0  0  0  0
   10.5540    2.5510   24.9525 H   0  0  0  0  0  0  0  0  0  0  0  0
    8.7274    0.4884   26.3979 H   0  0  0  0  0  0  0  0  0  0  0  0
   10.5455    0.7355   26.6085 H   0  0  0  0  0  0  0  0  0  0  0  0
  1  2  2  3
  2  3  1  0
  3  4  1  0
  4  5  1  0
  5  6  2  0
  6  7  1  0
  7  8  1  0
  8  9  2  0
  9 10  1  0
 10 11  2  0
 11 12  1  0
 12 13  2  0
 13 14  1  0
 11 15  1  0
 10 16  1  0
  9 17  1  0
  7 18  1  0
  7 19  1  0
  6 20  1  0
 20 21  2  0
 21 22  1  0
 22 23  2  0
 23 24  1  0
 24 25  1  0
 24 26  2  0
 26 27  1  0
 27 28  1  0
 28 29  2  0
 29 30  1  0
 30 31  2  0
 29 32  1  0
 28 33  1  0
 26 34  1  0
 23 35  1  0
  3 36  1  0
  3 37  1  0
  2 38  1  0
  1 39  1  0
  1 40  1  0
 21  4  1  0
 31 22  1  0
 13  8  1  0
 31 27  1  0
M  END
>  <cnnaffinity>  (1) 
-6.2252

>  <filename>  (1) 
C=CCn1nc(Cc2cccnc2)nc1-c1cc(Br)cn2ccnc12

$$$$
