
     RDKit          3D

 20 20  0  0  0  0  0  0  0  0999 V2000
   12.4505   -1.9311   21.8578 H   0  0  0  0  0  0  0  0  0  0  0  0
   11.8959   -1.1635   21.3179 C   0  0  0  0  0  0  0  0  0  0  0  0
   12.1634   -1.0403   20.2804 H   0  0  0  0  0  0  0  0  0  0  0  0
   10.9443   -0.4482   21.9054 C   0  0  0  0  0  0  0  0  0  0  0  0
   10.7783   -0.6137   22.9690 H   0  0  0  0  0  0  0  0  0  0  0  0
   10.0402    0.5646   21.2404 C   0  0  0  0  0  0  0  0  0  0  0  0
    9.8411    0.3436   20.1885 H   0  0  0  0  0  0  0  0  0  0  0  0
   10.4847    1.5681   21.2693 H   0  0  0  0  0  0  0  0  0  0  0  0
    8.4303    0.7399   22.0828 S   0  0  0  0  0  0  0  0  0  0  0  0
    7.3115   -0.7931   21.2655 S   0  0  0  0  0  0  0  0  0  0  0  0
    6.5002   -0.0038   19.8909 C   0  0  0  0  0  0  0  0  0  0  0  0
    7.0687   -0.0059   18.6044 C   0  0  0  0  0  0  0  0  0  0  0  0
    7.9956   -0.5522   18.4207 H   0  0  0  0  0  0  0  0  0  0  0  0
    6.5382    0.6323   17.5529 N   0  0  0  0  0  0  0  0  0  0  0  0
    5.3918    1.3031   17.7529 C   0  0  0  0  0  0  0  0  0  0  0  0
    4.9730    1.8100   16.8860 H   0  0  0  0  0  0  0  0  0  0  0  0
    4.7327    1.3483   18.9886 C   0  0  0  0  0  0  0  0  0  0  0  0
    3.8029    1.8948   19.0863 H   0  0  0  0  0  0  0  0  0  0  0  0
    5.2960    0.6821   20.0814 C   0  0  0  0  0  0  0  0  0  0  0  0
    4.8324    0.6935   21.0675 H   0  0  0  0  0  0  0  0  0  0  0  0
  1  2  1  0
  2  3  1  0
  2  4  2  3
  4  5  1  0
  4  6  1  0
  6  7  1  0
  6  8  1  0
  6  9  1  0
  9 10  1  0
 10 11  1  0
 11 12  2  0
 12 13  1  0
 12 14  1  0
 14 15  2  0
 15 16  1  0
 15 17  1  0
 17 18  1  0
 17 19  2  0
 19 20  1  0
 19 11  1  0
M  END
>  <cnnaffinity>  (1) 
-4.24906

>  <filename>  (1) 
C=CCSSc1cccnc1

$$$$
