
     RDKit          3D

 42 45  0  0  0  0  0  0  0  0999 V2000
    7.3273    4.8025   21.8353 C   0  0  0  0  0  0  0  0  0  0  0  0
    7.8671    4.8547   23.0514 C   0  0  0  0  0  0  0  0  0  0  0  0
    7.6118    3.8243   24.1228 C   0  0  0  0  0  0  0  0  0  0  0  0
    8.6914    2.7443   24.2864 C   0  0  0  0  0  0  0  0  0  0  0  0
    8.8069    1.8471   23.1348 N   0  0  0  0  0  0  0  0  0  0  0  0
    7.7458    1.0693   22.8148 N   0  0  0  0  0  0  0  0  0  0  0  0
    8.1632    0.4029   21.7566 C   0  0  0  0  0  0  0  0  0  0  0  0
    7.3225   -0.5946   21.0083 C   0  0  0  0  0  0  0  0  0  0  0  0
    6.5572   -0.0023   19.8322 C   0  0  0  0  0  0  0  0  0  0  0  0
    5.3396    0.6606   20.0388 C   0  0  0  0  0  0  0  0  0  0  0  0
    4.7449    1.3385   18.9719 C   0  0  0  0  0  0  0  0  0  0  0  0
    5.3862    1.3143   17.7304 C   0  0  0  0  0  0  0  0  0  0  0  0
    6.5166    0.6299   17.4921 N   0  0  0  0  0  0  0  0  0  0  0  0
    7.0724   -0.0154   18.5247 C   0  0  0  0  0  0  0  0  0  0  0  0
    7.9835   -0.5778   18.3062 H   0  0  0  0  0  0  0  0  0  0  0  0
    4.9733    1.8541   16.8804 H   0  0  0  0  0  0  0  0  0  0  0  0
    3.8206    1.8970   19.0902 H   0  0  0  0  0  0  0  0  0  0  0  0
    4.8787    0.6491   21.0284 H   0  0  0  0  0  0  0  0  0  0  0  0
    6.6292   -1.0300   21.7323 H   0  0  0  0  0  0  0  0  0  0  0  0
    7.9904   -1.3921   20.6624 H   0  0  0  0  0  0  0  0  0  0  0  0
    9.4354    0.6804   21.3822 N   0  0  0  0  0  0  0  0  0  0  0  0
    9.8299    1.5747   22.2772 C   0  0  0  0  0  0  0  0  0  0  0  0
   11.1540    2.2301   22.4297 C   0  0  0  0  0  0  0  0  0  0  0  0
   11.3194    3.6342   22.5015 C   0  0  0  0  0  0  0  0  0  0  0  0
   12.5879    4.1990   22.7096 C   0  0  0  0  0  0  0  0  0  0  0  0
   13.7320    3.5053   22.8205 N   0  0  0  0  0  0  0  0  0  0  0  0
   13.5492    2.1917   22.7409 C   0  0  0  0  0  0  0  0  0  0  0  0
   12.3393    1.4797   22.5586 C   0  0  0  0  0  0  0  0  0  0  0  0
   12.5838    0.1159   22.5500 N   0  0  0  0  0  0  0  0  0  0  0  0
   13.8750    0.0203   22.6896 C   0  0  0  0  0  0  0  0  0  0  0  0
   14.5101    1.2237   22.8244 N   0  0  0  0  0  0  0  0  0  0  0  0
   15.4897    1.4320   22.8713 H   0  0  0  0  0  0  0  0  0  0  0  0
   14.4247   -0.9124   22.6416 H   0  0  0  0  0  0  0  0  0  0  0  0
   12.6726    5.2767   22.7998 H   0  0  0  0  0  0  0  0  0  0  0  0
   10.4644    4.2931   22.3866 H   0  0  0  0  0  0  0  0  0  0  0  0
    8.4458    2.1377   25.1646 H   0  0  0  0  0  0  0  0  0  0  0  0
    9.6672    3.1923   24.4712 H   0  0  0  0  0  0  0  0  0  0  0  0
    6.6718    3.2990   23.9244 H   0  0  0  0  0  0  0  0  0  0  0  0
    7.4944    4.3191   25.0953 H   0  0  0  0  0  0  0  0  0  0  0  0
    8.4980    5.7118   23.3119 H   0  0  0  0  0  0  0  0  0  0  0  0
    7.4578    5.5965   21.1041 H   0  0  0  0  0  0  0  0  0  0  0  0
    6.6897    3.9654   21.5422 H   0  0  0  0  0  0  0  0  0  0  0  0
  1  2  2  3
  2  3  1  0
  3  4  1  0
  4  5  1  0
  5  6  1  0
  6  7  2  0
  7  8  1  0
  8  9  1  0
  9 10  2  0
 10 11  1  0
 11 12  2  0
 12 13  1  0
 13 14  2  0
 14 15  1  0
 12 16  1  0
 11 17  1  0
 10 18  1  0
  8 19  1  0
  8 20  1  0
  7 21  1  0
 21 22  2  0
 22 23  1  0
 23 24  2  0
 24 25  1  0
 25 26  2  0
 26 27  1  0
 27 28  2  0
 28 29  1  0
 29 30  2  0
 30 31  1  0
 31 32  1  0
 30 33  1  0
 25 34  1  0
 24 35  1  0
  4 36  1  0
  4 37  1  0
  3 38  1  0
  3 39  1  0
  2 40  1  0
  1 41  1  0
  1 42  1  0
 22  5  1  0
 28 23  1  0
 14  9  1  0
 31 27  1  0
M  END
>  <cnnaffinity>  (1) 
-6.46696

>  <filename>  (1) 
C=CCCn1nc(Cc2cccnc2)nc1-c1ccnc2[nH]cnc12

$$$$
