
     RDKit          3D

 49 52  0  0  0  0  0  0  0  0999 V2000
   12.5305    0.2877   22.3971 C   0  0  0  0  0  0  0  0  0  0  0  0
   11.6268   -0.5966   21.9787 C   0  0  0  0  0  0  0  0  0  0  0  0
   11.1392   -1.7591   22.8123 C   0  0  0  0  0  0  0  0  0  0  0  0
   10.0083   -2.5569   22.1688 C   0  0  0  0  0  0  0  0  0  0  0  0
    8.7735   -1.8401   21.9470 N   0  0  0  0  0  0  0  0  0  0  0  0
    8.4915   -1.3449   20.7231 N   0  0  0  0  0  0  0  0  0  0  0  0
    7.3731   -0.6820   20.9301 C   0  0  0  0  0  0  0  0  0  0  0  0
    6.6562    0.0174   19.8880 C   0  0  0  0  0  0  0  0  0  0  0  0
    5.4369    0.6575   20.1538 C   0  0  0  0  0  0  0  0  0  0  0  0
    4.8079    1.3056   19.0986 C   0  0  0  0  0  0  0  0  0  0  0  0
    5.4137    1.2837   17.8366 C   0  0  0  0  0  0  0  0  0  0  0  0
    6.5760    0.6640   17.5753 N   0  0  0  0  0  0  0  0  0  0  0  0
    7.1849    0.0492   18.5918 C   0  0  0  0  0  0  0  0  0  0  0  0
    8.1348   -0.4372   18.3682 H   0  0  0  0  0  0  0  0  0  0  0  0
    4.9501    1.7878   16.9949 H   0  0  0  0  0  0  0  0  0  0  0  0
    3.8744    1.8378   19.2416 H   0  0  0  0  0  0  0  0  0  0  0  0
    5.0119    0.6406   21.1586 H   0  0  0  0  0  0  0  0  0  0  0  0
    6.9256   -0.7097   22.2086 N   0  0  0  0  0  0  0  0  0  0  0  0
    7.8219   -1.4577   22.8231 C   0  0  0  0  0  0  0  0  0  0  0  0
    7.8218   -1.8432   24.2835 C   0  0  0  0  0  0  0  0  0  0  0  0
    7.8760   -0.5753   25.1600 C   0  0  0  0  0  0  0  0  0  0  0  0
    7.5720   -0.9322   26.6174 C   0  0  0  0  0  0  0  0  0  0  0  0
    6.2480   -1.5361   26.7350 N   0  0  0  0  0  0  0  0  0  0  0  0
    5.3377   -1.0836   27.7660 C   0  0  0  0  0  0  0  0  0  0  0  0
    5.1559   -1.8513   28.5327 H   0  0  0  0  0  0  0  0  0  0  0  0
    4.3656   -0.7824   27.3466 H   0  0  0  0  0  0  0  0  0  0  0  0
    5.7753   -0.2101   28.2588 H   0  0  0  0  0  0  0  0  0  0  0  0
    5.8863   -2.5432   25.8426 C   0  0  0  0  0  0  0  0  0  0  0  0
    4.7701   -3.3717   26.0925 C   0  0  0  0  0  0  0  0  0  0  0  0
    4.4181   -4.4007   25.2164 C   0  0  0  0  0  0  0  0  0  0  0  0
    5.1774   -4.6205   24.0642 C   0  0  0  0  0  0  0  0  0  0  0  0
    6.2710   -3.7994   23.7932 C   0  0  0  0  0  0  0  0  0  0  0  0
    6.6334   -2.7486   24.6495 C   0  0  0  0  0  0  0  0  0  0  0  0
    6.8520   -3.9474   22.8839 H   0  0  0  0  0  0  0  0  0  0  0  0
    4.9178   -5.4115   23.3681 H   0  0  0  0  0  0  0  0  0  0  0  0
    3.5554   -5.0280   25.4366 H   0  0  0  0  0  0  0  0  0  0  0  0
    4.1918   -3.1892   26.9888 H   0  0  0  0  0  0  0  0  0  0  0  0
    7.5980   -0.0322   27.2442 H   0  0  0  0  0  0  0  0  0  0  0  0
    8.3511   -1.6138   27.0080 H   0  0  0  0  0  0  0  0  0  0  0  0
    8.8614   -0.0998   25.0730 H   0  0  0  0  0  0  0  0  0  0  0  0
    7.1327    0.1350   24.7804 H   0  0  0  0  0  0  0  0  0  0  0  0
    8.7360   -2.4307   24.4780 H   0  0  0  0  0  0  0  0  0  0  0  0
    9.8049   -3.4531   22.7691 H   0  0  0  0  0  0  0  0  0  0  0  0
   10.3131   -2.8495   21.1651 H   0  0  0  0  0  0  0  0  0  0  0  0
   11.9441   -2.4980   22.9286 H   0  0  0  0  0  0  0  0  0  0  0  0
   10.8880   -1.4170   23.8311 H   0  0  0  0  0  0  0  0  0  0  0  0
   11.2204   -0.5196   20.9624 H   0  0  0  0  0  0  0  0  0  0  0  0
   12.8959    1.1001   21.7753 H   0  0  0  0  0  0  0  0  0  0  0  0
   12.9711    0.2282   23.3919 H   0  0  0  0  0  0  0  0  0  0  0  0
  1  2  2  3
  2  3  1  0
  3  4  1  0
  4  5  1  0
  5  6  1  0
  6  7  2  0
  7  8  1  0
  8  9  2  0
  9 10  1  0
 10 11  2  0
 11 12  1  0
 12 13  2  0
 13 14  1  0
 11 15  1  0
 10 16  1  0
  9 17  1  0
  7 18  1  0
 18 19  2  0
 19 20  1  0
 20 21  1  0
 21 22  1  0
 22 23  1  0
 23 24  1  0
 24 25  1  0
 24 26  1  0
 24 27  1  0
 23 28  1  0
 28 29  2  0
 29 30  1  0
 30 31  2  0
 31 32  1  0
 32 33  2  0
 32 34  1  0
 31 35  1  0
 30 36  1  0
 29 37  1  0
 22 38  1  0
 22 39  1  0
 21 40  1  0
 21 41  1  0
 20 42  1  0
  4 43  1  0
  4 44  1  0
  3 45  1  0
  3 46  1  0
  2 47  1  0
  1 48  1  0
  1 49  1  0
 19  5  1  0
 33 20  1  0
 13  8  1  0
 33 28  1  0
M  END
>  <cnnaffinity>  (1) 
-6.36059

>  <filename>  (1) 
C=CCCn1nc(-c2cccnc2)nc1C1CCN(C)c2ccccc21

$$$$
