
     RDKit          3D

 43 46  0  0  0  0  0  0  0  0999 V2000
   12.5603    3.8213   20.8598 C   0  0  0  0  0  0  0  0  0  0  0  0
   11.7899    2.7416   20.9480 C   0  0  0  0  0  0  0  0  0  0  0  0
   11.4745    1.9610   22.2006 C   0  0  0  0  0  0  0  0  0  0  0  0
   12.3295    0.6934   22.3570 C   0  0  0  0  0  0  0  0  0  0  0  0
   13.3782    0.9042   22.1454 H   0  0  0  0  0  0  0  0  0  0  0  0
   11.9833   -0.0832   21.6695 H   0  0  0  0  0  0  0  0  0  0  0  0
   12.2589    0.3027   23.3748 H   0  0  0  0  0  0  0  0  0  0  0  0
   10.0338    1.6103   22.1963 N   0  0  0  0  0  0  0  0  0  0  0  0
    9.5827    0.7394   21.2582 N   0  0  0  0  0  0  0  0  0  0  0  0
    8.3668    0.4396   21.6825 C   0  0  0  0  0  0  0  0  0  0  0  0
    7.5028   -0.5545   20.9667 C   0  0  0  0  0  0  0  0  0  0  0  0
    6.6961    0.0232   19.8111 C   0  0  0  0  0  0  0  0  0  0  0  0
    5.4758    0.6608   20.0671 C   0  0  0  0  0  0  0  0  0  0  0  0
    4.8170    1.3145   19.0255 C   0  0  0  0  0  0  0  0  0  0  0  0
    5.4027    1.2933   17.7556 C   0  0  0  0  0  0  0  0  0  0  0  0
    6.5417    0.6432   17.4706 N   0  0  0  0  0  0  0  0  0  0  0  0
    7.1571    0.0184   18.4829 C   0  0  0  0  0  0  0  0  0  0  0  0
    8.0730   -0.5201   18.2343 H   0  0  0  0  0  0  0  0  0  0  0  0
    4.9390    1.8156   16.9231 H   0  0  0  0  0  0  0  0  0  0  0  0
    3.8829    1.8428   19.1878 H   0  0  0  0  0  0  0  0  0  0  0  0
    5.0695    0.6400   21.0803 H   0  0  0  0  0  0  0  0  0  0  0  0
    6.8209   -0.9709   21.7168 H   0  0  0  0  0  0  0  0  0  0  0  0
    8.1720   -1.3529   20.6308 H   0  0  0  0  0  0  0  0  0  0  0  0
    7.9999    1.0582   22.8223 N   0  0  0  0  0  0  0  0  0  0  0  0
    9.0394    1.8326   23.1011 C   0  0  0  0  0  0  0  0  0  0  0  0
    9.0711    2.7694   24.2249 C   0  0  0  0  0  0  0  0  0  0  0  0
    8.6624    2.4962   25.5149 C   0  0  0  0  0  0  0  0  0  0  0  0
    8.7340    3.5207   26.4981 C   0  0  0  0  0  0  0  0  0  0  0  0
    9.1971    4.7864   26.1909 C   0  0  0  0  0  0  0  0  0  0  0  0
    9.5598    5.0852   24.8469 C   0  0  0  0  0  0  0  0  0  0  0  0
    9.9572    6.2052   24.1110 C   0  0  0  0  0  0  0  0  0  0  0  0
   10.0459    5.7510   22.7940 C   0  0  0  0  0  0  0  0  0  0  0  0
    9.7548    4.4613   22.6767 N   0  0  0  0  0  0  0  0  0  0  0  0
    9.4743    4.0550   23.9214 N   0  0  0  0  0  0  0  0  0  0  0  0
   10.3079    6.3034   21.9036 H   0  0  0  0  0  0  0  0  0  0  0  0
   10.1272    7.1990   24.4825 H   0  0  0  0  0  0  0  0  0  0  0  0
    9.2800    5.5816   26.9128 H   0  0  0  0  0  0  0  0  0  0  0  0
    8.4016    3.2891   27.5057 H   0  0  0  0  0  0  0  0  0  0  0  0
    8.2936    1.5088   25.7754 H   0  0  0  0  0  0  0  0  0  0  0  0
   11.6527    2.6230   23.0465 H   0  0  0  0  0  0  0  0  0  0  0  0
   11.3179    2.3576   20.0502 H   0  0  0  0  0  0  0  0  0  0  0  0
   13.0785    4.2713   21.7060 H   0  0  0  0  0  0  0  0  0  0  0  0
   12.6796    4.3279   19.9098 H   0  0  0  0  0  0  0  0  0  0  0  0
  1  2  2  3
  2  3  1  0
  3  4  1  0
  4  5  1  0
  4  6  1  0
  4  7  1  0
  3  8  1  0
  8  9  1  0
  9 10  2  0
 10 11  1  0
 11 12  1  0
 12 13  2  0
 13 14  1  0
 14 15  2  0
 15 16  1  0
 16 17  2  0
 17 18  1  0
 15 19  1  0
 14 20  1  0
 13 21  1  0
 11 22  1  0
 11 23  1  0
 10 24  1  0
 24 25  2  0
 25 26  1  0
 26 27  2  0
 27 28  1  0
 28 29  2  0
 29 30  1  0
 30 31  2  0
 31 32  1  0
 32 33  2  0
 33 34  1  0
 32 35  1  0
 31 36  1  0
 29 37  1  0
 28 38  1  0
 27 39  1  0
  3 40  1  0
  2 41  1  0
  1 42  1  0
  1 43  1  0
 25  8  1  0
 34 26  1  0
 17 12  1  0
 34 30  1  0
M  END
>  <cnnaffinity>  (1) 
-6.07189

>  <filename>  (1) 
C=CC(C)n1nc(Cc2cccnc2)nc1-c1cccc2ccnn12

$$$$
