
     RDKit          3D

 39 42  0  0  0  0  0  0  0  0999 V2000
    8.2438    5.0999   24.5705 C   0  0  0  0  0  0  0  0  0  0  0  0
    8.2913    4.0554   23.7513 C   0  0  0  0  0  0  0  0  0  0  0  0
    8.8309    2.6950   24.1696 C   0  0  0  0  0  0  0  0  0  0  0  0
    8.8992    1.7317   23.0728 N   0  0  0  0  0  0  0  0  0  0  0  0
    7.8078    0.9928   22.7707 N   0  0  0  0  0  0  0  0  0  0  0  0
    8.1888    0.3106   21.7104 C   0  0  0  0  0  0  0  0  0  0  0  0
    7.3017   -0.6638   20.9867 C   0  0  0  0  0  0  0  0  0  0  0  0
    6.5449   -0.0407   19.8201 C   0  0  0  0  0  0  0  0  0  0  0  0
    5.3389    0.6369   20.0361 C   0  0  0  0  0  0  0  0  0  0  0  0
    4.7506    1.3338   18.9784 C   0  0  0  0  0  0  0  0  0  0  0  0
    5.3874    1.3138   17.7340 C   0  0  0  0  0  0  0  0  0  0  0  0
    6.5218    0.6385   17.4906 N   0  0  0  0  0  0  0  0  0  0  0  0
    7.0748   -0.0184   18.5172 C   0  0  0  0  0  0  0  0  0  0  0  0
    7.9987   -0.5575   18.2986 H   0  0  0  0  0  0  0  0  0  0  0  0
    4.9734    1.8637   16.8916 H   0  0  0  0  0  0  0  0  0  0  0  0
    3.8347    1.9026   19.1091 H   0  0  0  0  0  0  0  0  0  0  0  0
    4.8831    0.6188   21.0280 H   0  0  0  0  0  0  0  0  0  0  0  0
    7.9499   -1.4701   20.6266 H   0  0  0  0  0  0  0  0  0  0  0  0
    6.6049   -1.0822   21.7229 H   0  0  0  0  0  0  0  0  0  0  0  0
    9.4608    0.5563   21.3088 N   0  0  0  0  0  0  0  0  0  0  0  0
    9.8959    1.4385   22.1984 C   0  0  0  0  0  0  0  0  0  0  0  0
   11.2506    2.0326   22.3427 C   0  0  0  0  0  0  0  0  0  0  0  0
   11.4875    3.4265   22.4697 C   0  0  0  0  0  0  0  0  0  0  0  0
   12.7760    3.9218   22.7272 C   0  0  0  0  0  0  0  0  0  0  0  0
   13.8808    3.1677   22.8383 N   0  0  0  0  0  0  0  0  0  0  0  0
   13.6385    1.8696   22.6808 C   0  0  0  0  0  0  0  0  0  0  0  0
   12.4057    1.2170   22.4354 C   0  0  0  0  0  0  0  0  0  0  0  0
   12.6014   -0.1583   22.3720 N   0  0  0  0  0  0  0  0  0  0  0  0
   13.8844   -0.3132   22.5287 C   0  0  0  0  0  0  0  0  0  0  0  0
   14.5592    0.8582   22.7377 N   0  0  0  0  0  0  0  0  0  0  0  0
   15.5433    1.0122   22.8150 H   0  0  0  0  0  0  0  0  0  0  0  0
   14.3899   -1.2766   22.5596 H   0  0  0  0  0  0  0  0  0  0  0  0
   12.9204    4.9901   22.8681 H   0  0  0  0  0  0  0  0  0  0  0  0
   10.6786    4.1438   22.3744 H   0  0  0  0  0  0  0  0  0  0  0  0
    8.2039    2.2495   24.9504 H   0  0  0  0  0  0  0  0  0  0  0  0
    9.8323    2.8079   24.5971 H   0  0  0  0  0  0  0  0  0  0  0  0
    7.9033    4.1409   22.7316 H   0  0  0  0  0  0  0  0  0  0  0  0
    7.8193    6.0571   24.2708 H   0  0  0  0  0  0  0  0  0  0  0  0
    8.6198    5.0520   25.5923 H   0  0  0  0  0  0  0  0  0  0  0  0
  1  2  2  3
  2  3  1  0
  3  4  1  0
  4  5  1  0
  5  6  2  0
  6  7  1  0
  7  8  1  0
  8  9  2  0
  9 10  1  0
 10 11  2  0
 11 12  1  0
 12 13  2  0
 13 14  1  0
 11 15  1  0
 10 16  1  0
  9 17  1  0
  7 18  1  0
  7 19  1  0
  6 20  1  0
 20 21  2  0
 21 22  1  0
 22 23  2  0
 23 24  1  0
 24 25  2  0
 25 26  1  0
 26 27  2  0
 27 28  1  0
 28 29  2  0
 29 30  1  0
 30 31  1  0
 29 32  1  0
 24 33  1  0
 23 34  1  0
  3 35  1  0
  3 36  1  0
  2 37  1  0
  1 38  1  0
  1 39  1  0
 21  4  1  0
 27 22  1  0
 13  8  1  0
 30 26  1  0
M  END
>  <cnnaffinity>  (1) 
-6.4957

>  <filename>  (1) 
C=CCn1nc(Cc2cccnc2)nc1-c1ccnc2[nH]cnc12

$$$$
