
     RDKit          3D

 44 47  0  0  0  0  0  0  0  0999 V2000
   12.8852   -0.9381   22.4008 C   0  0  0  0  0  0  0  0  0  0  0  0
   12.1117   -0.1387   23.1307 C   0  0  0  0  0  0  0  0  0  0  0  0
   12.2305    1.3719   23.0915 C   0  0  0  0  0  0  0  0  0  0  0  0
   11.4601    1.9816   21.8973 C   0  0  0  0  0  0  0  0  0  0  0  0
   10.0329    1.6295   21.8953 N   0  0  0  0  0  0  0  0  0  0  0  0
    9.5855    0.6723   21.0295 N   0  0  0  0  0  0  0  0  0  0  0  0
    8.4348    0.3000   21.5511 C   0  0  0  0  0  0  0  0  0  0  0  0
    7.5032   -0.6798   20.8849 C   0  0  0  0  0  0  0  0  0  0  0  0
    6.6817   -0.0488   19.7663 C   0  0  0  0  0  0  0  0  0  0  0  0
    5.4779    0.6119   20.0465 C   0  0  0  0  0  0  0  0  0  0  0  0
    4.8270    1.3007   19.0202 C   0  0  0  0  0  0  0  0  0  0  0  0
    5.4035    1.2993   17.7464 C   0  0  0  0  0  0  0  0  0  0  0  0
    6.5307    0.6375   17.4435 N   0  0  0  0  0  0  0  0  0  0  0  0
    7.1399   -0.0197   18.4378 C   0  0  0  0  0  0  0  0  0  0  0  0
    8.0475   -0.5631   18.1689 H   0  0  0  0  0  0  0  0  0  0  0  0
    4.9419    1.8491   16.9293 H   0  0  0  0  0  0  0  0  0  0  0  0
    3.9058    1.8468   19.1953 H   0  0  0  0  0  0  0  0  0  0  0  0
    5.0566    0.5802   21.0537 H   0  0  0  0  0  0  0  0  0  0  0  0
    8.0886   -1.5266   20.5091 H   0  0  0  0  0  0  0  0  0  0  0  0
    6.8368   -1.0613   21.6655 H   0  0  0  0  0  0  0  0  0  0  0  0
    8.1286    0.9013   22.7227 N   0  0  0  0  0  0  0  0  0  0  0  0
    9.1152    1.7767   22.8885 C   0  0  0  0  0  0  0  0  0  0  0  0
    9.1845    2.7639   23.9724 C   0  0  0  0  0  0  0  0  0  0  0  0
    9.6219    4.0871   23.8090 C   0  0  0  0  0  0  0  0  0  0  0  0
    9.5076    5.0260   24.8534 C   0  0  0  0  0  0  0  0  0  0  0  0
    8.9766    4.6845   26.0949 C   0  0  0  0  0  0  0  0  0  0  0  0
    8.5864    3.3498   26.3194 C   0  0  0  0  0  0  0  0  0  0  0  0
    8.6944    2.4095   25.2564 C   0  0  0  0  0  0  0  0  0  0  0  0
    8.2617    1.2014   25.7337 N   0  0  0  0  0  0  0  0  0  0  0  0
    7.8915    1.3355   27.0488 C   0  0  0  0  0  0  0  0  0  0  0  0
    8.0655    2.6240   27.4519 C   0  0  0  0  0  0  0  0  0  0  0  0
    7.8922    2.9678   28.4640 H   0  0  0  0  0  0  0  0  0  0  0  0
    7.5123    0.4938   27.6104 H   0  0  0  0  0  0  0  0  0  0  0  0
    8.2086    0.3798   25.1528 H   0  0  0  0  0  0  0  0  0  0  0  0
    8.8493    5.4488   26.8602 H   0  0  0  0  0  0  0  0  0  0  0  0
    9.8445    6.0435   24.6820 H   0  0  0  0  0  0  0  0  0  0  0  0
   10.0376    4.4340   22.8580 H   0  0  0  0  0  0  0  0  0  0  0  0
   11.8630    1.6004   20.9563 H   0  0  0  0  0  0  0  0  0  0  0  0
   11.5731    3.0703   21.8803 H   0  0  0  0  0  0  0  0  0  0  0  0
   11.8616    1.8266   24.0165 H   0  0  0  0  0  0  0  0  0  0  0  0
   13.2876    1.6530   23.0047 H   0  0  0  0  0  0  0  0  0  0  0  0
   11.2909   -0.5701   23.7168 H   0  0  0  0  0  0  0  0  0  0  0  0
   13.7030   -0.5438   21.7985 H   0  0  0  0  0  0  0  0  0  0  0  0
   12.7515   -2.0177   22.3780 H   0  0  0  0  0  0  0  0  0  0  0  0
  1  2  2  3
  2  3  1  0
  3  4  1  0
  4  5  1  0
  5  6  1  0
  6  7  2  0
  7  8  1  0
  8  9  1  0
  9 10  2  0
 10 11  1  0
 11 12  2  0
 12 13  1  0
 13 14  2  0
 14 15  1  0
 12 16  1  0
 11 17  1  0
 10 18  1  0
  8 19  1  0
  8 20  1  0
  7 21  1  0
 21 22  2  0
 22 23  1  0
 23 24  2  0
 24 25  1  0
 25 26  2  0
 26 27  1  0
 27 28  2  0
 28 29  1  0
 29 30  1  0
 30 31  2  0
 31 32  1  0
 30 33  1  0
 29 34  1  0
 26 35  1  0
 25 36  1  0
 24 37  1  0
  4 38  1  0
  4 39  1  0
  3 40  1  0
  3 41  1  0
  2 42  1  0
  1 43  1  0
  1 44  1  0
 22  5  1  0
 28 23  1  0
 14  9  1  0
 31 27  1  0
M  END
>  <cnnaffinity>  (1) 
-5.95352

>  <filename>  (1) 
C=CCCn1nc(Cc2cccnc2)nc1-c1cccc2cc[nH]c12

$$$$
