
     RDKit          3D

 30 31  0  0  0  0  0  0  0  0999 V2000
    4.2520    4.1642   25.4462 H   0  0  0  0  0  0  0  0  0  0  0  0
    3.8397    3.1587   25.5020 C   0  0  0  0  0  0  0  0  0  0  0  0
    2.9259    3.0279   26.0735 H   0  0  0  0  0  0  0  0  0  0  0  0
    4.4487    2.1433   24.8876 C   0  0  0  0  0  0  0  0  0  0  0  0
    4.0410    1.1369   24.9286 H   0  0  0  0  0  0  0  0  0  0  0  0
    5.7047    2.3185   24.0981 C   0  0  0  0  0  0  0  0  0  0  0  0
    6.3081    3.3746   24.0056 O   0  0  0  0  0  0  0  0  0  0  0  0
    6.1104    1.1889   23.4539 N   0  0  0  0  0  0  0  0  0  0  0  0
    5.7190    0.3116   23.7561 H   0  0  0  0  0  0  0  0  0  0  0  0
    7.3810    1.1693   22.7517 C   0  0  0  0  0  0  0  0  0  0  0  0
    8.1970    1.4753   23.4186 H   0  0  0  0  0  0  0  0  0  0  0  0
    7.3457    1.9115   21.9486 H   0  0  0  0  0  0  0  0  0  0  0  0
    7.6694   -0.1486   22.2536 N   0  0  0  0  0  0  0  0  0  0  0  0
    8.3559   -1.1036   22.9706 C   0  0  0  0  0  0  0  0  0  0  0  0
    8.7756   -0.8763   23.9453 H   0  0  0  0  0  0  0  0  0  0  0  0
    8.3500   -2.2735   22.2600 C   0  0  0  0  0  0  0  0  0  0  0  0
    8.8499   -3.1962   22.5280 H   0  0  0  0  0  0  0  0  0  0  0  0
    7.6131   -2.0324   21.0725 C   0  0  0  0  0  0  0  0  0  0  0  0
    7.2971   -2.7549   20.3317 H   0  0  0  0  0  0  0  0  0  0  0  0
    7.2325   -0.7103   21.0633 C   0  0  0  0  0  0  0  0  0  0  0  0
    6.5780    0.0572   19.9788 C   0  0  0  0  0  0  0  0  0  0  0  0
    7.1242    0.0709   18.6772 C   0  0  0  0  0  0  0  0  0  0  0  0
    8.0738   -0.4251   18.4799 H   0  0  0  0  0  0  0  0  0  0  0  0
    6.5673    0.6851   17.6228 N   0  0  0  0  0  0  0  0  0  0  0  0
    5.4033    1.3235   17.8195 C   0  0  0  0  0  0  0  0  0  0  0  0
    4.9557    1.7961   16.9442 H   0  0  0  0  0  0  0  0  0  0  0  0
    4.7747    1.3851   19.0651 C   0  0  0  0  0  0  0  0  0  0  0  0
    3.8306    1.9055   19.1616 H   0  0  0  0  0  0  0  0  0  0  0  0
    5.3830    0.7714   20.1635 C   0  0  0  0  0  0  0  0  0  0  0  0
    4.9614    0.8482   21.1641 H   0  0  0  0  0  0  0  0  0  0  0  0
  1  2  1  0
  2  3  1  0
  2  4  2  3
  4  5  1  0
  4  6  1  0
  6  7  2  0
  6  8  1  0
  8  9  1  0
  8 10  1  0
 10 11  1  0
 10 12  1  0
 10 13  1  0
 13 14  1  0
 14 15  1  0
 14 16  2  0
 16 17  1  0
 16 18  1  0
 18 19  1  0
 18 20  2  0
 20 21  1  0
 21 22  2  0
 22 23  1  0
 22 24  1  0
 24 25  2  0
 25 26  1  0
 25 27  1  0
 27 28  1  0
 27 29  2  0
 29 30  1  0
 20 13  1  0
 29 21  1  0
M  END
>  <cnnaffinity>  (1) 
-4.92858

>  <filename>  (1) 
C=CC(=O)NCn1cccc1-c1cccnc1

$$$$
