
     RDKit          3D

 40 43  0  0  0  0  0  0  0  0999 V2000
    7.6915    4.6276   23.1431 C   0  0  0  0  0  0  0  0  0  0  0  0
    7.8213    3.7234   24.1691 C   0  0  0  0  0  0  0  0  0  0  0  0
    8.9494    2.7292   24.2073 C   0  0  0  0  0  0  0  0  0  0  0  0
    8.8860    1.7728   23.0858 N   0  0  0  0  0  0  0  0  0  0  0  0
    7.8133    1.0227   22.7247 N   0  0  0  0  0  0  0  0  0  0  0  0
    8.2722    0.2976   21.7299 C   0  0  0  0  0  0  0  0  0  0  0  0
    7.4249   -0.6793   20.9384 C   0  0  0  0  0  0  0  0  0  0  0  0
    6.6747   -0.0098   19.7961 C   0  0  0  0  0  0  0  0  0  0  0  0
    5.4692    0.6407   20.0578 C   0  0  0  0  0  0  0  0  0  0  0  0
    4.8344    1.2979   19.0058 C   0  0  0  0  0  0  0  0  0  0  0  0
    5.4078    1.2787   17.7290 C   0  0  0  0  0  0  0  0  0  0  0  0
    6.5485    0.6175   17.4562 N   0  0  0  0  0  0  0  0  0  0  0  0
    7.1669   -0.0136   18.4726 C   0  0  0  0  0  0  0  0  0  0  0  0
    8.0926   -0.5450   18.2658 H   0  0  0  0  0  0  0  0  0  0  0  0
    4.9097    1.8149   16.9285 H   0  0  0  0  0  0  0  0  0  0  0  0
    3.9113    1.8414   19.1735 H   0  0  0  0  0  0  0  0  0  0  0  0
    5.0508    0.6406   21.0637 H   0  0  0  0  0  0  0  0  0  0  0  0
    6.7044   -1.1496   21.6147 H   0  0  0  0  0  0  0  0  0  0  0  0
    8.0738   -1.4655   20.5433 H   0  0  0  0  0  0  0  0  0  0  0  0
    9.6152    0.5109   21.4465 N   0  0  0  0  0  0  0  0  0  0  0  0
    9.9676    1.4396   22.2925 C   0  0  0  0  0  0  0  0  0  0  0  0
   11.2921    2.0449   22.4076 C   0  0  0  0  0  0  0  0  0  0  0  0
   12.4009    1.2120   22.4686 C   0  0  0  0  0  0  0  0  0  0  0  0
   12.4315   -0.1726   22.3650 N   0  0  0  0  0  0  0  0  0  0  0  0
   13.7003   -0.4987   22.4497 C   0  0  0  0  0  0  0  0  0  0  0  0
   14.4809    0.6235   22.6475 N   0  0  0  0  0  0  0  0  0  0  0  0
   13.6707    1.7314   22.6421 C   0  0  0  0  0  0  0  0  0  0  0  0
   13.8720    3.1123   22.6786 C   0  0  0  0  0  0  0  0  0  0  0  0
   12.7814    3.9696   22.6062 C   0  0  0  0  0  0  0  0  0  0  0  0
   13.0872    5.8507   22.6885 Br  0  0  0  0  0  0  0  0  0  0  0  0
   11.4909    3.4419   22.4840 C   0  0  0  0  0  0  0  0  0  0  0  0
   10.6622    4.1365   22.3939 H   0  0  0  0  0  0  0  0  0  0  0  0
   14.8639    3.5451   22.7074 H   0  0  0  0  0  0  0  0  0  0  0  0
   15.4898    0.6260   22.7471 H   0  0  0  0  0  0  0  0  0  0  0  0
   14.0866   -1.5103   22.3674 H   0  0  0  0  0  0  0  0  0  0  0  0
    8.9393    2.1885   25.1567 H   0  0  0  0  0  0  0  0  0  0  0  0
    9.8938    3.2800   24.1626 H   0  0  0  0  0  0  0  0  0  0  0  0
    7.0968    3.7272   24.9791 H   0  0  0  0  0  0  0  0  0  0  0  0
    6.8764    5.3457   23.1299 H   0  0  0  0  0  0  0  0  0  0  0  0
    8.3937    4.6433   22.3142 H   0  0  0  0  0  0  0  0  0  0  0  0
  1  2  2  3
  2  3  1  0
  3  4  1  0
  4  5  1  0
  5  6  2  0
  6  7  1  0
  7  8  1  0
  8  9  2  0
  9 10  1  0
 10 11  2  0
 11 12  1  0
 12 13  2  0
 13 14  1  0
 11 15  1  0
 10 16  1  0
  9 17  1  0
  7 18  1  0
  7 19  1  0
  6 20  1  0
 20 21  2  0
 21 22  1  0
 22 23  2  0
 23 24  1  0
 24 25  2  0
 25 26  1  0
 26 27  1  0
 27 28  2  0
 28 29  1  0
 29 30  1  0
 29 31  2  0
 31 32  1  0
 28 33  1  0
 26 34  1  0
 25 35  1  0
  3 36  1  0
  3 37  1  0
  2 38  1  0
  1 39  1  0
  1 40  1  0
 21  4  1  0
 31 22  1  0
 13  8  1  0
 27 23  1  0
M  END
>  <cnnaffinity>  (1) 
-6.68401

>  <filename>  (1) 
C=CCn1nc(Cc2cccnc2)nc1-c1cc(Br)cc2[nH]cnc12

$$$$
