
     RDKit          3D

 40 43  0  0  0  0  0  0  0  0999 V2000
   10.7725    0.8775   21.9927 C   0  0  0  0  0  0  0  0  0  0  0  0
   11.4406   -0.2733   21.9973 C   0  0  0  0  0  0  0  0  0  0  0  0
   11.1045   -1.5188   22.7805 C   0  0  0  0  0  0  0  0  0  0  0  0
   10.0569   -2.4434   22.1463 C   0  0  0  0  0  0  0  0  0  0  0  0
    8.7192   -1.9009   21.9359 N   0  0  0  0  0  0  0  0  0  0  0  0
    8.3817   -1.4669   20.6946 N   0  0  0  0  0  0  0  0  0  0  0  0
    7.3179   -0.7223   20.9140 C   0  0  0  0  0  0  0  0  0  0  0  0
    6.6216   -0.0074   19.8595 C   0  0  0  0  0  0  0  0  0  0  0  0
    5.4175    0.6597   20.1124 C   0  0  0  0  0  0  0  0  0  0  0  0
    4.8007    1.3193   19.0571 C   0  0  0  0  0  0  0  0  0  0  0  0
    5.4201    1.3006   17.8016 C   0  0  0  0  0  0  0  0  0  0  0  0
    6.5829    0.6748   17.5552 N   0  0  0  0  0  0  0  0  0  0  0  0
    7.1732    0.0392   18.5724 C   0  0  0  0  0  0  0  0  0  0  0  0
    8.1279   -0.4449   18.3578 H   0  0  0  0  0  0  0  0  0  0  0  0
    4.9560    1.8120   16.9619 H   0  0  0  0  0  0  0  0  0  0  0  0
    3.8687    1.8511   19.2050 H   0  0  0  0  0  0  0  0  0  0  0  0
    5.0091    0.6566   21.1242 H   0  0  0  0  0  0  0  0  0  0  0  0
    6.9510   -0.6294   22.2142 N   0  0  0  0  0  0  0  0  0  0  0  0
    7.8323   -1.3932   22.8254 C   0  0  0  0  0  0  0  0  0  0  0  0
    7.8543   -1.7195   24.2433 C   0  0  0  0  0  0  0  0  0  0  0  0
    7.8809   -0.7114   25.2013 C   0  0  0  0  0  0  0  0  0  0  0  0
    7.9801   -1.0052   26.5752 C   0  0  0  0  0  0  0  0  0  0  0  0
    8.0288   -2.3107   27.0160 C   0  0  0  0  0  0  0  0  0  0  0  0
    7.9178   -3.3656   26.0750 C   0  0  0  0  0  0  0  0  0  0  0  0
    7.8562   -3.0583   24.7008 C   0  0  0  0  0  0  0  0  0  0  0  0
    7.7737   -4.2524   24.0592 N   0  0  0  0  0  0  0  0  0  0  0  0
    7.7450   -5.3123   24.9010 N   0  0  0  0  0  0  0  0  0  0  0  0
    7.8304   -4.7937   26.1106 C   0  0  0  0  0  0  0  0  0  0  0  0
    7.7898   -5.4328   26.9788 H   0  0  0  0  0  0  0  0  0  0  0  0
    7.6664   -4.3975   23.0675 H   0  0  0  0  0  0  0  0  0  0  0  0
    8.1834   -2.5157   28.0555 H   0  0  0  0  0  0  0  0  0  0  0  0
    8.0134   -0.1784   27.2810 H   0  0  0  0  0  0  0  0  0  0  0  0
    7.8592    0.3218   24.8700 H   0  0  0  0  0  0  0  0  0  0  0  0
    9.9761   -3.3423   22.7561 H   0  0  0  0  0  0  0  0  0  0  0  0
   10.3719   -2.7403   21.1520 H   0  0  0  0  0  0  0  0  0  0  0  0
   12.0055   -2.1401   22.8204 H   0  0  0  0  0  0  0  0  0  0  0  0
   10.8095   -1.2844   23.8121 H   0  0  0  0  0  0  0  0  0  0  0  0
   12.3318   -0.3434   21.3758 H   0  0  0  0  0  0  0  0  0  0  0  0
   11.0905    1.7196   21.3796 H   0  0  0  0  0  0  0  0  0  0  0  0
    9.9060    1.0444   22.6322 H   0  0  0  0  0  0  0  0  0  0  0  0
  1  2  2  3
  2  3  1  0
  3  4  1  0
  4  5  1  0
  5  6  1  0
  6  7  2  0
  7  8  1  0
  8  9  2  0
  9 10  1  0
 10 11  2  0
 11 12  1  0
 12 13  2  0
 13 14  1  0
 11 15  1  0
 10 16  1  0
  9 17  1  0
  7 18  1  0
 18 19  2  0
 19 20  1  0
 20 21  2  0
 21 22  1  0
 22 23  2  0
 23 24  1  0
 24 25  2  0
 25 26  1  0
 26 27  1  0
 27 28  2  0
 28 29  1  0
 26 30  1  0
 23 31  1  0
 22 32  1  0
 21 33  1  0
  4 34  1  0
  4 35  1  0
  3 36  1  0
  3 37  1  0
  2 38  1  0
  1 39  1  0
  1 40  1  0
 19  5  1  0
 25 20  1  0
 13  8  1  0
 28 24  1  0
M  END
>  <cnnaffinity>  (1) 
-6.07269

>  <filename>  (1) 
C=CCCn1nc(-c2cccnc2)nc1-c1cccc2cn[nH]c12

$$$$
