
     RDKit          3D

 45 48  0  0  0  0  0  0  0  0999 V2000
    7.3987    6.4304   24.7582 C   0  0  0  0  0  0  0  0  0  0  0  0
    7.9813    5.2437   24.8797 C   0  0  0  0  0  0  0  0  0  0  0  0
    7.8074    4.1298   23.8713 C   0  0  0  0  0  0  0  0  0  0  0  0
    8.4038    2.7727   24.2809 C   0  0  0  0  0  0  0  0  0  0  0  0
    8.5406    1.8683   23.1433 N   0  0  0  0  0  0  0  0  0  0  0  0
    7.5413    1.0061   22.8190 N   0  0  0  0  0  0  0  0  0  0  0  0
    7.9720    0.4613   21.7025 C   0  0  0  0  0  0  0  0  0  0  0  0
    7.2548   -0.6079   20.9420 C   0  0  0  0  0  0  0  0  0  0  0  0
    6.5100   -0.0391   19.7471 C   0  0  0  0  0  0  0  0  0  0  0  0
    5.3224    0.6727   19.9542 C   0  0  0  0  0  0  0  0  0  0  0  0
    4.7470    1.3476   18.8775 C   0  0  0  0  0  0  0  0  0  0  0  0
    5.3789    1.2823   17.6312 C   0  0  0  0  0  0  0  0  0  0  0  0
    6.4975    0.5784   17.3994 N   0  0  0  0  0  0  0  0  0  0  0  0
    7.0367   -0.0633   18.4440 C   0  0  0  0  0  0  0  0  0  0  0  0
    7.9541   -0.6187   18.2441 H   0  0  0  0  0  0  0  0  0  0  0  0
    4.9702    1.8195   16.7791 H   0  0  0  0  0  0  0  0  0  0  0  0
    3.8452    1.9385   18.9976 H   0  0  0  0  0  0  0  0  0  0  0  0
    4.8774    0.7101   20.9518 H   0  0  0  0  0  0  0  0  0  0  0  0
    8.0081   -1.3330   20.6225 H   0  0  0  0  0  0  0  0  0  0  0  0
    6.5796   -1.1081   21.6415 H   0  0  0  0  0  0  0  0  0  0  0  0
    9.1543    0.9406   21.2507 N   0  0  0  0  0  0  0  0  0  0  0  0
    9.5139    1.7880   22.2015 C   0  0  0  0  0  0  0  0  0  0  0  0
   10.8799    2.3176   22.3457 C   0  0  0  0  0  0  0  0  0  0  0  0
   11.1036    3.6392   22.4387 C   0  0  0  0  0  0  0  0  0  0  0  0
   12.3369    4.1772   22.5651 O   0  0  0  0  0  0  0  0  0  0  0  0
   13.4887    3.3925   22.6111 C   0  0  0  0  0  0  0  0  0  0  0  0
   14.5293    3.9885   22.6747 O   0  0  0  0  0  0  0  0  0  0  0  0
   13.2938    1.9146   22.5669 C   0  0  0  0  0  0  0  0  0  0  0  0
   14.3996    1.0486   22.6538 C   0  0  0  0  0  0  0  0  0  0  0  0
   14.2190   -0.3268   22.5948 C   0  0  0  0  0  0  0  0  0  0  0  0
   12.9378   -0.8621   22.3803 C   0  0  0  0  0  0  0  0  0  0  0  0
   11.8513   -0.0233   22.2461 C   0  0  0  0  0  0  0  0  0  0  0  0
   12.0025    1.3819   22.3695 C   0  0  0  0  0  0  0  0  0  0  0  0
   10.8650   -0.4080   22.0219 H   0  0  0  0  0  0  0  0  0  0  0  0
   12.7929   -1.9393   22.3205 H   0  0  0  0  0  0  0  0  0  0  0  0
   15.0510   -1.0097   22.6992 H   0  0  0  0  0  0  0  0  0  0  0  0
   15.3932    1.4849   22.6943 H   0  0  0  0  0  0  0  0  0  0  0  0
   10.3277    4.4059   22.4288 H   0  0  0  0  0  0  0  0  0  0  0  0
    9.3871    2.8776   24.7482 H   0  0  0  0  0  0  0  0  0  0  0  0
    7.7530    2.2816   25.0093 H   0  0  0  0  0  0  0  0  0  0  0  0
    6.7411    3.9850   23.6568 H   0  0  0  0  0  0  0  0  0  0  0  0
    8.2199    4.4622   22.9100 H   0  0  0  0  0  0  0  0  0  0  0  0
    8.6484    5.0745   25.7304 H   0  0  0  0  0  0  0  0  0  0  0  0
    7.5663    7.2386   25.4683 H   0  0  0  0  0  0  0  0  0  0  0  0
    6.7310    6.6574   23.9249 H   0  0  0  0  0  0  0  0  0  0  0  0
  1  2  2  3
  2  3  1  0
  3  4  1  0
  4  5  1  0
  5  6  1  0
  6  7  2  0
  7  8  1  0
  8  9  1  0
  9 10  2  0
 10 11  1  0
 11 12  2  0
 12 13  1  0
 13 14  2  0
 14 15  1  0
 12 16  1  0
 11 17  1  0
 10 18  1  0
  8 19  1  0
  8 20  1  0
  7 21  1  0
 21 22  2  0
 22 23  1  0
 23 24  2  0
 24 25  1  0
 25 26  1  0
 26 27  2  0
 26 28  1  0
 28 29  2  0
 29 30  1  0
 30 31  2  0
 31 32  1  0
 32 33  2  0
 32 34  1  0
 31 35  1  0
 30 36  1  0
 29 37  1  0
 24 38  1  0
  4 39  1  0
  4 40  1  0
  3 41  1  0
  3 42  1  0
  2 43  1  0
  1 44  1  0
  1 45  1  0
 22  5  1  0
 33 23  1  0
 14  9  1  0
 33 28  1  0
M  END
>  <cnnaffinity>  (1) 
-6.55306

>  <filename>  (1) 
C=CCCn1nc(Cc2cccnc2)nc1-c1coc(=O)c2ccccc12

$$$$
