
     RDKit          3D

 41 44  0  0  0  0  0  0  0  0999 V2000
   10.4158    1.0395   26.0139 C   0  0  0  0  0  0  0  0  0  0  0  0
    9.1566    1.4093   25.7909 C   0  0  0  0  0  0  0  0  0  0  0  0
    8.7960    2.2869   24.6060 C   0  0  0  0  0  0  0  0  0  0  0  0
    8.8726    1.5592   23.3295 N   0  0  0  0  0  0  0  0  0  0  0  0
    7.7684    0.9711   22.8111 N   0  0  0  0  0  0  0  0  0  0  0  0
    8.2548    0.2141   21.8468 C   0  0  0  0  0  0  0  0  0  0  0  0
    7.3828   -0.6492   20.9678 C   0  0  0  0  0  0  0  0  0  0  0  0
    6.6401    0.0189   19.8013 C   0  0  0  0  0  0  0  0  0  0  0  0
    5.4313    0.7005   20.0117 C   0  0  0  0  0  0  0  0  0  0  0  0
    4.8161    1.3539   18.9395 C   0  0  0  0  0  0  0  0  0  0  0  0
    5.4177    1.2930   17.6815 C   0  0  0  0  0  0  0  0  0  0  0  0
    6.5404    0.5995   17.4377 N   0  0  0  0  0  0  0  0  0  0  0  0
    7.1162   -0.0230   18.4742 C   0  0  0  0  0  0  0  0  0  0  0  0
    8.0187   -0.5901   18.2397 H   0  0  0  0  0  0  0  0  0  0  0  0
    4.9848    1.8205   16.8318 H   0  0  0  0  0  0  0  0  0  0  0  0
    3.8923    1.9089   19.0638 H   0  0  0  0  0  0  0  0  0  0  0  0
    4.9727    0.7171   21.0018 H   0  0  0  0  0  0  0  0  0  0  0  0
    6.6522   -1.1075   21.6429 H   0  0  0  0  0  0  0  0  0  0  0  0
    8.0324   -1.4498   20.5998 H   0  0  0  0  0  0  0  0  0  0  0  0
    9.6089    0.2355   21.7446 N   0  0  0  0  0  0  0  0  0  0  0  0
    9.9723    1.1279   22.6583 C   0  0  0  0  0  0  0  0  0  0  0  0
   11.3076    1.7390   22.8018 C   0  0  0  0  0  0  0  0  0  0  0  0
   12.5106    1.0874   22.8028 C   0  0  0  0  0  0  0  0  0  0  0  0
   13.5395    1.9957   22.7437 N   0  0  0  0  0  0  0  0  0  0  0  0
   13.0209    3.2627   22.6365 C   0  0  0  0  0  0  0  0  0  0  0  0
   11.6178    3.1652   22.7187 C   0  0  0  0  0  0  0  0  0  0  0  0
   10.8898    4.3663   22.5818 C   0  0  0  0  0  0  0  0  0  0  0  0
    9.5368    4.3568   22.6167 F   0  0  0  0  0  0  0  0  0  0  0  0
   11.5207    5.5819   22.3865 C   0  0  0  0  0  0  0  0  0  0  0  0
   12.9325    5.6247   22.2928 C   0  0  0  0  0  0  0  0  0  0  0  0
   13.6965    4.4727   22.4055 C   0  0  0  0  0  0  0  0  0  0  0  0
   14.7737    4.4808   22.2916 H   0  0  0  0  0  0  0  0  0  0  0  0
   13.4485    6.5538   22.0811 H   0  0  0  0  0  0  0  0  0  0  0  0
   10.8876    6.4578   22.2985 H   0  0  0  0  0  0  0  0  0  0  0  0
   14.4733    1.7642   22.4409 H   0  0  0  0  0  0  0  0  0  0  0  0
   12.7205    0.0225   22.8709 H   0  0  0  0  0  0  0  0  0  0  0  0
    7.7815    2.6893   24.6650 H   0  0  0  0  0  0  0  0  0  0  0  0
    9.5024    3.1220   24.5582 H   0  0  0  0  0  0  0  0  0  0  0  0
    8.3443    1.0600   26.4288 H   0  0  0  0  0  0  0  0  0  0  0  0
   10.7112    0.3705   26.8191 H   0  0  0  0  0  0  0  0  0  0  0  0
   11.2160    1.4034   25.3665 H   0  0  0  0  0  0  0  0  0  0  0  0
  1  2  2  3
  2  3  1  0
  3  4  1  0
  4  5  1  0
  5  6  2  0
  6  7  1  0
  7  8  1  0
  8  9  2  0
  9 10  1  0
 10 11  2  0
 11 12  1  0
 12 13  2  0
 13 14  1  0
 11 15  1  0
 10 16  1  0
  9 17  1  0
  7 18  1  0
  7 19  1  0
  6 20  1  0
 20 21  2  0
 21 22  1  0
 22 23  2  0
 23 24  1  0
 24 25  1  0
 25 26  2  0
 26 27  1  0
 27 28  1  0
 27 29  2  0
 29 30  1  0
 30 31  2  0
 31 32  1  0
 30 33  1  0
 29 34  1  0
 24 35  1  0
 23 36  1  0
  3 37  1  0
  3 38  1  0
  2 39  1  0
  1 40  1  0
  1 41  1  0
 21  4  1  0
 26 22  1  0
 13  8  1  0
 31 25  1  0
M  END
>  <cnnaffinity>  (1) 
-6.0593

>  <filename>  (1) 
C=CCn1nc(Cc2cccnc2)nc1-c1c[nH]c2cccc(F)c12

$$$$
