
     RDKit          3D

 38 41  0  0  0  0  0  0  0  0999 V2000
   11.4218   -0.7667   21.5510 C   0  0  0  0  0  0  0  0  0  0  0  0
   10.9414   -1.8742   22.1121 C   0  0  0  0  0  0  0  0  0  0  0  0
    9.5886   -2.5139   21.8101 C   0  0  0  0  0  0  0  0  0  0  0  0
    8.4534   -1.6083   21.5883 N   0  0  0  0  0  0  0  0  0  0  0  0
    8.2710   -1.0624   20.3632 N   0  0  0  0  0  0  0  0  0  0  0  0
    7.0985   -0.4597   20.4723 C   0  0  0  0  0  0  0  0  0  0  0  0
    6.4775    0.2779   19.3777 C   0  0  0  0  0  0  0  0  0  0  0  0
    5.2613    0.9709   19.5057 C   0  0  0  0  0  0  0  0  0  0  0  0
    4.7643    1.6267   18.3825 C   0  0  0  0  0  0  0  0  0  0  0  0
    5.4899    1.5693   17.1883 C   0  0  0  0  0  0  0  0  0  0  0  0
    6.6496    0.9105   17.0603 N   0  0  0  0  0  0  0  0  0  0  0  0
    7.1307    0.2896   18.1402 C   0  0  0  0  0  0  0  0  0  0  0  0
    8.0859   -0.2189   18.0160 H   0  0  0  0  0  0  0  0  0  0  0  0
    5.1179    2.0695   16.2965 H   0  0  0  0  0  0  0  0  0  0  0  0
    3.8370    2.1890   18.4161 H   0  0  0  0  0  0  0  0  0  0  0  0
    4.7319    1.0017   20.4613 H   0  0  0  0  0  0  0  0  0  0  0  0
    6.5014   -0.6044   21.6746 N   0  0  0  0  0  0  0  0  0  0  0  0
    7.3679   -1.3244   22.3631 C   0  0  0  0  0  0  0  0  0  0  0  0
    7.2622   -1.7663   23.7473 C   0  0  0  0  0  0  0  0  0  0  0  0
    6.3726   -2.6406   24.3152 C   0  0  0  0  0  0  0  0  0  0  0  0
    6.7136   -2.8593   25.6239 N   0  0  0  0  0  0  0  0  0  0  0  0
    7.8288   -2.1177   25.9308 C   0  0  0  0  0  0  0  0  0  0  0  0
    8.5520   -2.0041   27.1259 C   0  0  0  0  0  0  0  0  0  0  0  0
    9.6357   -1.1355   27.1645 C   0  0  0  0  0  0  0  0  0  0  0  0
   10.0225   -0.4493   25.9933 C   0  0  0  0  0  0  0  0  0  0  0  0
   11.1231    0.3229   26.0546 F   0  0  0  0  0  0  0  0  0  0  0  0
    9.3205   -0.5424   24.8068 C   0  0  0  0  0  0  0  0  0  0  0  0
    8.1979   -1.3991   24.7803 C   0  0  0  0  0  0  0  0  0  0  0  0
    9.6297    0.0230   23.9354 H   0  0  0  0  0  0  0  0  0  0  0  0
   10.2083   -0.9776   28.0705 H   0  0  0  0  0  0  0  0  0  0  0  0
    8.2622   -2.5971   27.9814 H   0  0  0  0  0  0  0  0  0  0  0  0
    6.2126   -3.4285   26.2851 H   0  0  0  0  0  0  0  0  0  0  0  0
    5.5438   -3.1720   23.8659 H   0  0  0  0  0  0  0  0  0  0  0  0
    9.6792   -3.0865   20.8818 H   0  0  0  0  0  0  0  0  0  0  0  0
    9.3221   -3.2186   22.6071 H   0  0  0  0  0  0  0  0  0  0  0  0
   11.5950   -2.4541   22.7659 H   0  0  0  0  0  0  0  0  0  0  0  0
   12.4541   -0.4539   21.7146 H   0  0  0  0  0  0  0  0  0  0  0  0
   10.8181   -0.1632   20.8791 H   0  0  0  0  0  0  0  0  0  0  0  0
  1  2  2  3
  2  3  1  0
  3  4  1  0
  4  5  1  0
  5  6  2  0
  6  7  1  0
  7  8  2  0
  8  9  1  0
  9 10  2  0
 10 11  1  0
 11 12  2  0
 12 13  1  0
 10 14  1  0
  9 15  1  0
  8 16  1  0
  6 17  1  0
 17 18  2  0
 18 19  1  0
 19 20  2  0
 20 21  1  0
 21 22  1  0
 22 23  2  0
 23 24  1  0
 24 25  2  0
 25 26  1  0
 25 27  1  0
 27 28  2  0
 27 29  1  0
 24 30  1  0
 23 31  1  0
 21 32  1  0
 20 33  1  0
  3 34  1  0
  3 35  1  0
  2 36  1  0
  1 37  1  0
  1 38  1  0
 18  4  1  0
 28 19  1  0
 12  7  1  0
 28 22  1  0
M  END
>  <cnnaffinity>  (1) 
-5.92317

>  <filename>  (1) 
C=CCn1nc(-c2cccnc2)nc1-c1c[nH]c2ccc(F)cc12

$$$$
