
     RDKit          3D

 38 41  0  0  0  0  0  0  0  0999 V2000
    8.5753   -0.7015   26.3436 C   0  0  0  0  0  0  0  0  0  0  0  0
    8.2130   -0.4371   25.0925 C   0  0  0  0  0  0  0  0  0  0  0  0
    7.5010   -1.4543   24.2198 C   0  0  0  0  0  0  0  0  0  0  0  0
    7.6005   -1.1928   22.7857 N   0  0  0  0  0  0  0  0  0  0  0  0
    6.6357   -0.4578   22.1695 N   0  0  0  0  0  0  0  0  0  0  0  0
    7.0167   -0.4624   20.9066 C   0  0  0  0  0  0  0  0  0  0  0  0
    6.3137    0.2034   19.8043 C   0  0  0  0  0  0  0  0  0  0  0  0
    5.1011    0.9016   19.9300 C   0  0  0  0  0  0  0  0  0  0  0  0
    4.5973    1.5377   18.7935 C   0  0  0  0  0  0  0  0  0  0  0  0
    5.3100    1.4481   17.5906 C   0  0  0  0  0  0  0  0  0  0  0  0
    6.4511    0.7581   17.4549 N   0  0  0  0  0  0  0  0  0  0  0  0
    6.9300    0.1523   18.5450 C   0  0  0  0  0  0  0  0  0  0  0  0
    7.8538   -0.4065   18.4217 H   0  0  0  0  0  0  0  0  0  0  0  0
    4.9480    1.9457   16.6932 H   0  0  0  0  0  0  0  0  0  0  0  0
    3.6731    2.1046   18.8248 H   0  0  0  0  0  0  0  0  0  0  0  0
    4.5767    0.9429   20.8880 H   0  0  0  0  0  0  0  0  0  0  0  0
    8.1630   -1.1517   20.6747 N   0  0  0  0  0  0  0  0  0  0  0  0
    8.5014   -1.6043   21.8637 C   0  0  0  0  0  0  0  0  0  0  0  0
    9.6272   -2.5612   22.0840 C   0  0  0  0  0  0  0  0  0  0  0  0
   10.7911   -2.3672   23.1356 C   0  0  0  0  0  0  0  0  0  0  0  0
   10.3277   -3.6751   23.7626 C   0  0  0  0  0  0  0  0  0  0  0  0
   10.4657   -4.5298   24.8500 C   0  0  0  0  0  0  0  0  0  0  0  0
    9.3703   -5.3668   25.1294 C   0  0  0  0  0  0  0  0  0  0  0  0
    8.2444   -5.3591   24.3025 C   0  0  0  0  0  0  0  0  0  0  0  0
    7.1480   -6.0227   24.7018 F   0  0  0  0  0  0  0  0  0  0  0  0
    8.1734   -4.6323   23.1070 C   0  0  0  0  0  0  0  0  0  0  0  0
    9.2630   -3.8071   22.8740 C   0  0  0  0  0  0  0  0  0  0  0  0
    7.2926   -4.6926   22.4838 H   0  0  0  0  0  0  0  0  0  0  0  0
    9.3521   -5.9869   26.0174 H   0  0  0  0  0  0  0  0  0  0  0  0
   11.3425   -4.5786   25.4902 H   0  0  0  0  0  0  0  0  0  0  0  0
   10.6925   -1.4964   23.7920 H   0  0  0  0  0  0  0  0  0  0  0  0
   11.7899   -2.3842   22.6960 H   0  0  0  0  0  0  0  0  0  0  0  0
   10.0302   -2.7508   21.0882 H   0  0  0  0  0  0  0  0  0  0  0  0
    7.9025   -2.4434   24.4488 H   0  0  0  0  0  0  0  0  0  0  0  0
    6.4289   -1.4793   24.4419 H   0  0  0  0  0  0  0  0  0  0  0  0
    8.4068    0.5455   24.6611 H   0  0  0  0  0  0  0  0  0  0  0  0
    8.4062   -1.6821   26.7892 H   0  0  0  0  0  0  0  0  0  0  0  0
    9.0232    0.0424   26.9984 H   0  0  0  0  0  0  0  0  0  0  0  0
  1  2  2  3
  2  3  1  0
  3  4  1  0
  4  5  1  0
  5  6  2  0
  6  7  1  0
  7  8  2  0
  8  9  1  0
  9 10  2  0
 10 11  1  0
 11 12  2  0
 12 13  1  0
 10 14  1  0
  9 15  1  0
  8 16  1  0
  6 17  1  0
 17 18  2  0
 18 19  1  0
 19 20  1  0
 20 21  1  0
 21 22  2  0
 22 23  1  0
 23 24  2  0
 24 25  1  0
 24 26  1  0
 26 27  2  0
 26 28  1  0
 23 29  1  0
 22 30  1  0
 20 31  1  0
 20 32  1  0
 19 33  1  0
  3 34  1  0
  3 35  1  0
  2 36  1  0
  1 37  1  0
  1 38  1  0
 18  4  1  0
 27 19  1  0
 12  7  1  0
 27 21  1  0
M  END
>  <cnnaffinity>  (1) 
-6.03301

>  <filename>  (1) 
C=CCn1nc(-c2cccnc2)nc1C1Cc2ccc(F)cc21

$$$$
