
     RDKit          3D

 41 43  0  0  0  0  0  0  0  0999 V2000
   12.4807    3.8677   21.0271 C   0  0  0  0  0  0  0  0  0  0  0  0
   11.7677    2.7451   21.0001 C   0  0  0  0  0  0  0  0  0  0  0  0
   11.4975    1.7600   22.1115 C   0  0  0  0  0  0  0  0  0  0  0  0
   10.0844    1.3772   22.1490 N   0  0  0  0  0  0  0  0  0  0  0  0
    9.6380    0.4118   21.3092 N   0  0  0  0  0  0  0  0  0  0  0  0
    8.3788    0.2487   21.6740 C   0  0  0  0  0  0  0  0  0  0  0  0
    7.4481   -0.6905   20.9512 C   0  0  0  0  0  0  0  0  0  0  0  0
    6.6714   -0.0340   19.8133 C   0  0  0  0  0  0  0  0  0  0  0  0
    5.4652    0.6284   20.0790 C   0  0  0  0  0  0  0  0  0  0  0  0
    4.8199    1.3089   19.0455 C   0  0  0  0  0  0  0  0  0  0  0  0
    5.4041    1.3040   17.7767 C   0  0  0  0  0  0  0  0  0  0  0  0
    6.5439    0.6556   17.4921 N   0  0  0  0  0  0  0  0  0  0  0  0
    7.1488    0.0041   18.4927 C   0  0  0  0  0  0  0  0  0  0  0  0
    8.0695   -0.5204   18.2313 H   0  0  0  0  0  0  0  0  0  0  0  0
    4.9378    1.8394   16.9515 H   0  0  0  0  0  0  0  0  0  0  0  0
    3.8898    1.8418   19.2111 H   0  0  0  0  0  0  0  0  0  0  0  0
    5.0457    0.6112   21.0868 H   0  0  0  0  0  0  0  0  0  0  0  0
    8.0362   -1.5373   20.5814 H   0  0  0  0  0  0  0  0  0  0  0  0
    6.7341   -1.0848   21.6821 H   0  0  0  0  0  0  0  0  0  0  0  0
    7.9896    1.0356   22.7038 N   0  0  0  0  0  0  0  0  0  0  0  0
    9.0709    1.7649   22.9581 C   0  0  0  0  0  0  0  0  0  0  0  0
    9.1648    2.8411   23.9713 C   0  0  0  0  0  0  0  0  0  0  0  0
    8.5667    2.6359   25.2212 C   0  0  0  0  0  0  0  0  0  0  0  0
    8.5551    3.6299   26.2105 C   0  0  0  0  0  0  0  0  0  0  0  0
    7.8203    3.3132   27.4569 C   0  0  0  0  0  0  0  0  0  0  0  0
    7.2970    4.1634   28.3395 C   0  0  0  0  0  0  0  0  0  0  0  0
    6.7706    3.7893   29.2100 H   0  0  0  0  0  0  0  0  0  0  0  0
    7.3547    5.2407   28.2174 H   0  0  0  0  0  0  0  0  0  0  0  0
    7.6850    2.2450   27.6330 H   0  0  0  0  0  0  0  0  0  0  0  0
    9.2239    4.8410   25.9651 C   0  0  0  0  0  0  0  0  0  0  0  0
    9.8158    5.0410   24.7166 C   0  0  0  0  0  0  0  0  0  0  0  0
   10.4296    6.2109   24.4677 F   0  0  0  0  0  0  0  0  0  0  0  0
    9.7802    4.0820   23.7099 C   0  0  0  0  0  0  0  0  0  0  0  0
   10.2179    4.3092   22.7424 H   0  0  0  0  0  0  0  0  0  0  0  0
    9.3042    5.6283   26.7076 H   0  0  0  0  0  0  0  0  0  0  0  0
    8.0855    1.6832   25.4277 H   0  0  0  0  0  0  0  0  0  0  0  0
   11.8022    2.1585   23.0836 H   0  0  0  0  0  0  0  0  0  0  0  0
   12.0710    0.8438   21.9349 H   0  0  0  0  0  0  0  0  0  0  0  0
   11.3345    2.4429   20.0526 H   0  0  0  0  0  0  0  0  0  0  0  0
   13.0373    4.2427   21.8837 H   0  0  0  0  0  0  0  0  0  0  0  0
   12.5505    4.4882   20.1319 H   0  0  0  0  0  0  0  0  0  0  0  0
  1  2  2  3
  2  3  1  0
  3  4  1  0
  4  5  1  0
  5  6  2  0
  6  7  1  0
  7  8  1  0
  8  9  2  0
  9 10  1  0
 10 11  2  0
 11 12  1  0
 12 13  2  0
 13 14  1  0
 11 15  1  0
 10 16  1  0
  9 17  1  0
  7 18  1  0
  7 19  1  0
  6 20  1  0
 20 21  2  0
 21 22  1  0
 22 23  2  0
 23 24  1  0
 24 25  1  0
 25 26  2  3
 26 27  1  0
 26 28  1  0
 25 29  1  0
 24 30  2  0
 30 31  1  0
 31 32  1  0
 31 33  2  0
 33 34  1  0
 30 35  1  0
 23 36  1  0
  3 37  1  0
  3 38  1  0
  2 39  1  0
  1 40  1  0
  1 41  1  0
 21  4  1  0
 33 22  1  0
 13  8  1  0
M  END
>  <cnnaffinity>  (1) 
-5.95464

>  <filename>  (1) 
C=CCn1nc(Cc2cccnc2)nc1-c1cc(F)cc(C=C)c1

$$$$
