
     RDKit          3D

 44 47  0  0  0  0  0  0  0  0999 V2000
   11.7262   -0.6741   22.1822 C   0  0  0  0  0  0  0  0  0  0  0  0
   10.9190   -1.5061   22.8348 C   0  0  0  0  0  0  0  0  0  0  0  0
    9.9771   -2.4554   22.1251 C   0  0  0  0  0  0  0  0  0  0  0  0
    8.6383   -1.8924   21.9296 N   0  0  0  0  0  0  0  0  0  0  0  0
    8.3125   -1.4107   20.7049 N   0  0  0  0  0  0  0  0  0  0  0  0
    7.2309   -0.6888   20.9380 C   0  0  0  0  0  0  0  0  0  0  0  0
    6.5342    0.0481   19.8822 C   0  0  0  0  0  0  0  0  0  0  0  0
    5.3270    0.7414   20.0829 C   0  0  0  0  0  0  0  0  0  0  0  0
    4.7568    1.3862   18.9866 C   0  0  0  0  0  0  0  0  0  0  0  0
    5.4131    1.3335   17.7517 C   0  0  0  0  0  0  0  0  0  0  0  0
    6.5688    0.6842   17.5542 N   0  0  0  0  0  0  0  0  0  0  0  0
    7.1118    0.0601   18.6022 C   0  0  0  0  0  0  0  0  0  0  0  0
    8.0515   -0.4581   18.4138 H   0  0  0  0  0  0  0  0  0  0  0  0
    4.9899    1.8280   16.8810 H   0  0  0  0  0  0  0  0  0  0  0  0
    3.8246    1.9342   19.0709 H   0  0  0  0  0  0  0  0  0  0  0  0
    4.8527    0.7803   21.0675 H   0  0  0  0  0  0  0  0  0  0  0  0
    6.8533   -0.6645   22.2388 N   0  0  0  0  0  0  0  0  0  0  0  0
    7.7520   -1.4212   22.8359 C   0  0  0  0  0  0  0  0  0  0  0  0
    7.7025   -1.8617   24.2581 C   0  0  0  0  0  0  0  0  0  0  0  0
    7.0554   -3.2462   24.4369 C   0  0  0  0  0  0  0  0  0  0  0  0
    7.0079   -3.6603   25.8276 N   0  0  0  0  0  0  0  0  0  0  0  0
    7.8395   -4.5781   26.4394 C   0  0  0  0  0  0  0  0  0  0  0  0
    7.3935   -4.8636   27.6969 C   0  0  0  0  0  0  0  0  0  0  0  0
    6.2258   -4.0540   27.9137 C   0  0  0  0  0  0  0  0  0  0  0  0
    5.3526   -3.8486   29.0044 C   0  0  0  0  0  0  0  0  0  0  0  0
    4.3806   -2.8598   28.9281 C   0  0  0  0  0  0  0  0  0  0  0  0
    4.2276   -2.0802   27.7582 C   0  0  0  0  0  0  0  0  0  0  0  0
    5.0266   -2.3071   26.6410 C   0  0  0  0  0  0  0  0  0  0  0  0
    6.0282   -3.2940   26.7326 C   0  0  0  0  0  0  0  0  0  0  0  0
    4.8772   -1.7579   25.7127 H   0  0  0  0  0  0  0  0  0  0  0  0
    3.4878   -1.2799   27.7474 H   0  0  0  0  0  0  0  0  0  0  0  0
    3.7370   -2.6761   29.7866 H   0  0  0  0  0  0  0  0  0  0  0  0
    5.4551   -4.4489   29.9032 H   0  0  0  0  0  0  0  0  0  0  0  0
    7.8462   -5.5348   28.4199 H   0  0  0  0  0  0  0  0  0  0  0  0
    8.7258   -4.9227   25.9213 H   0  0  0  0  0  0  0  0  0  0  0  0
    6.0303   -3.2419   24.0525 H   0  0  0  0  0  0  0  0  0  0  0  0
    7.6023   -4.0055   23.8640 H   0  0  0  0  0  0  0  0  0  0  0  0
    8.7007   -1.8994   24.7011 H   0  0  0  0  0  0  0  0  0  0  0  0
    7.1324   -1.1193   24.8215 H   0  0  0  0  0  0  0  0  0  0  0  0
    9.8953   -3.4081   22.6611 H   0  0  0  0  0  0  0  0  0  0  0  0
   10.3087   -2.6498   21.1035 H   0  0  0  0  0  0  0  0  0  0  0  0
   10.8636   -1.4957   23.9285 H   0  0  0  0  0  0  0  0  0  0  0  0
   12.3343    0.0746   22.6841 H   0  0  0  0  0  0  0  0  0  0  0  0
   11.8058   -0.7194   21.0948 H   0  0  0  0  0  0  0  0  0  0  0  0
  1  2  2  3
  2  3  1  0
  3  4  1  0
  4  5  1  0
  5  6  2  0
  6  7  1  0
  7  8  2  0
  8  9  1  0
  9 10  2  0
 10 11  1  0
 11 12  2  0
 12 13  1  0
 10 14  1  0
  9 15  1  0
  8 16  1  0
  6 17  1  0
 17 18  2  0
 18 19  1  0
 19 20  1  0
 20 21  1  0
 21 22  1  0
 22 23  2  0
 23 24  1  0
 24 25  2  0
 25 26  1  0
 26 27  2  0
 27 28  1  0
 28 29  2  0
 28 30  1  0
 27 31  1  0
 26 32  1  0
 25 33  1  0
 23 34  1  0
 22 35  1  0
 20 36  1  0
 20 37  1  0
 19 38  1  0
 19 39  1  0
  3 40  1  0
  3 41  1  0
  2 42  1  0
  1 43  1  0
  1 44  1  0
 18  4  1  0
 29 21  1  0
 12  7  1  0
 29 24  1  0
M  END
>  <cnnaffinity>  (1) 
-6.05378

>  <filename>  (1) 
C=CCn1nc(-c2cccnc2)nc1CCn1ccc2ccccc21

$$$$
