
     RDKit          3D

 42 45  0  0  0  0  0  0  0  0999 V2000
   10.5852   -0.7933   24.8038 C   0  0  0  0  0  0  0  0  0  0  0  0
   10.9855   -0.3109   23.6310 C   0  0  0  0  0  0  0  0  0  0  0  0
   11.1693   -1.1361   22.3726 C   0  0  0  0  0  0  0  0  0  0  0  0
   10.0999   -2.2179   22.1143 C   0  0  0  0  0  0  0  0  0  0  0  0
    8.7435   -1.7114   21.9020 N   0  0  0  0  0  0  0  0  0  0  0  0
    8.4371   -1.2449   20.6674 N   0  0  0  0  0  0  0  0  0  0  0  0
    7.2810   -0.6342   20.8539 C   0  0  0  0  0  0  0  0  0  0  0  0
    6.5681    0.0553   19.7883 C   0  0  0  0  0  0  0  0  0  0  0  0
    5.3526    0.7235   20.0082 C   0  0  0  0  0  0  0  0  0  0  0  0
    4.7655    1.3772   18.9296 C   0  0  0  0  0  0  0  0  0  0  0  0
    5.4137    1.3391   17.6876 C   0  0  0  0  0  0  0  0  0  0  0  0
    6.5667    0.6877   17.4665 N   0  0  0  0  0  0  0  0  0  0  0  0
    7.1269    0.0604   18.5029 C   0  0  0  0  0  0  0  0  0  0  0  0
    8.0614   -0.4689   18.3061 H   0  0  0  0  0  0  0  0  0  0  0  0
    4.9848    1.8516   16.8309 H   0  0  0  0  0  0  0  0  0  0  0  0
    3.8306    1.9183   19.0360 H   0  0  0  0  0  0  0  0  0  0  0  0
    4.8976    0.7224   21.0041 H   0  0  0  0  0  0  0  0  0  0  0  0
    6.8299   -0.6613   22.1270 N   0  0  0  0  0  0  0  0  0  0  0  0
    7.7468   -1.3578   22.7616 C   0  0  0  0  0  0  0  0  0  0  0  0
    7.6908   -1.7946   24.1643 C   0  0  0  0  0  0  0  0  0  0  0  0
    7.9213   -3.1201   24.5788 C   0  0  0  0  0  0  0  0  0  0  0  0
    8.1142   -3.4213   25.9298 C   0  0  0  0  0  0  0  0  0  0  0  0
    8.0557   -2.4025   26.8979 C   0  0  0  0  0  0  0  0  0  0  0  0
    7.7336   -1.1054   26.5179 C   0  0  0  0  0  0  0  0  0  0  0  0
    7.5279   -0.8230   25.1647 C   0  0  0  0  0  0  0  0  0  0  0  0
    7.3153    0.4925   24.9197 O   0  0  0  0  0  0  0  0  0  0  0  0
    7.4038    1.2126   26.1643 C   0  0  0  0  0  0  0  0  0  0  0  0
    7.5726    0.1786   27.3066 C   0  0  0  0  0  0  0  0  0  0  0  0
    8.4418    0.4097   27.9347 H   0  0  0  0  0  0  0  0  0  0  0  0
    6.6941    0.1563   27.9636 H   0  0  0  0  0  0  0  0  0  0  0  0
    6.4939    1.8115   26.2568 H   0  0  0  0  0  0  0  0  0  0  0  0
    8.2591    1.8950   26.0901 H   0  0  0  0  0  0  0  0  0  0  0  0
    8.2729   -2.6440   27.9279 H   0  0  0  0  0  0  0  0  0  0  0  0
    8.3331   -4.4395   26.2350 H   0  0  0  0  0  0  0  0  0  0  0  0
    7.9537   -3.9242   23.8417 H   0  0  0  0  0  0  0  0  0  0  0  0
   10.3390   -2.7305   21.1845 H   0  0  0  0  0  0  0  0  0  0  0  0
   10.0882   -2.9595   22.9145 H   0  0  0  0  0  0  0  0  0  0  0  0
   11.2115   -0.4700   21.4988 H   0  0  0  0  0  0  0  0  0  0  0  0
   12.1334   -1.6691   22.4075 H   0  0  0  0  0  0  0  0  0  0  0  0
   11.1719    0.7587   23.5437 H   0  0  0  0  0  0  0  0  0  0  0  0
   10.3942   -1.8538   24.9653 H   0  0  0  0  0  0  0  0  0  0  0  0
   10.3858   -0.1416   25.6569 H   0  0  0  0  0  0  0  0  0  0  0  0
  1  2  2  3
  2  3  1  0
  3  4  1  0
  4  5  1  0
  5  6  1  0
  6  7  2  0
  7  8  1  0
  8  9  2  0
  9 10  1  0
 10 11  2  0
 11 12  1  0
 12 13  2  0
 13 14  1  0
 11 15  1  0
 10 16  1  0
  9 17  1  0
  7 18  1  0
 18 19  2  0
 19 20  1  0
 20 21  2  0
 21 22  1  0
 22 23  2  0
 23 24  1  0
 24 25  2  0
 25 26  1  0
 26 27  1  0
 27 28  1  0
 28 29  1  0
 28 30  1  0
 27 31  1  0
 27 32  1  0
 23 33  1  0
 22 34  1  0
 21 35  1  0
  4 36  1  0
  4 37  1  0
  3 38  1  0
  3 39  1  0
  2 40  1  0
  1 41  1  0
  1 42  1  0
 19  5  1  0
 25 20  1  0
 13  8  1  0
 28 24  1  0
M  END
>  <cnnaffinity>  (1) 
-5.74594

>  <filename>  (1) 
C=CCCn1nc(-c2cccnc2)nc1-c1cccc2c1OCC2

$$$$
