
     RDKit          3D

 48 51  0  0  0  0  0  0  0  0999 V2000
    7.5959    4.9772   26.2083 C   0  0  0  0  0  0  0  0  0  0  0  0
    8.1040    5.0166   24.9816 C   0  0  0  0  0  0  0  0  0  0  0  0
    7.7962    4.0027   23.8993 C   0  0  0  0  0  0  0  0  0  0  0  0
    8.3483    2.5927   24.2095 C   0  0  0  0  0  0  0  0  0  0  0  0
    8.4273    1.7339   23.0277 N   0  0  0  0  0  0  0  0  0  0  0  0
    7.3402    1.0101   22.6716 N   0  0  0  0  0  0  0  0  0  0  0  0
    7.7757    0.2956   21.6553 C   0  0  0  0  0  0  0  0  0  0  0  0
    6.9179   -0.6776   20.9022 C   0  0  0  0  0  0  0  0  0  0  0  0
    6.2904   -0.0640   19.6561 C   0  0  0  0  0  0  0  0  0  0  0  0
    5.1460    0.7367   19.7649 C   0  0  0  0  0  0  0  0  0  0  0  0
    4.6917    1.4231   18.6401 C   0  0  0  0  0  0  0  0  0  0  0  0
    5.3934    1.2839   17.4387 C   0  0  0  0  0  0  0  0  0  0  0  0
    6.4602    0.4846   17.2948 N   0  0  0  0  0  0  0  0  0  0  0  0
    6.8828   -0.1698   18.3838 C   0  0  0  0  0  0  0  0  0  0  0  0
    7.7464   -0.8203   18.2439 H   0  0  0  0  0  0  0  0  0  0  0  0
    5.0742    1.8246   16.5514 H   0  0  0  0  0  0  0  0  0  0  0  0
    3.8256    2.0727   18.6822 H   0  0  0  0  0  0  0  0  0  0  0  0
    4.6233    0.8263   20.7208 H   0  0  0  0  0  0  0  0  0  0  0  0
    7.5632   -1.5276   20.6543 H   0  0  0  0  0  0  0  0  0  0  0  0
    6.1434   -1.0281   21.5931 H   0  0  0  0  0  0  0  0  0  0  0  0
    9.0738    0.4978   21.3323 N   0  0  0  0  0  0  0  0  0  0  0  0
    9.4601    1.4222   22.1955 C   0  0  0  0  0  0  0  0  0  0  0  0
   10.8013    2.0191   22.2762 C   0  0  0  0  0  0  0  0  0  0  0  0
   11.9375    1.2042   22.1484 C   0  0  0  0  0  0  0  0  0  0  0  0
   11.9548   -0.0513   21.6541 O   0  0  0  0  0  0  0  0  0  0  0  0
   13.1750   -0.6976   22.0872 C   0  0  0  0  0  0  0  0  0  0  0  0
   13.7766   -1.5974   21.0113 C   0  0  0  0  0  0  0  0  0  0  0  0
   14.4757   -2.2819   21.4954 H   0  0  0  0  0  0  0  0  0  0  0  0
   13.0023   -2.1921   20.5174 H   0  0  0  0  0  0  0  0  0  0  0  0
   14.3315   -1.0507   20.2441 H   0  0  0  0  0  0  0  0  0  0  0  0
   14.1114    0.4221   22.6177 C   0  0  0  0  0  0  0  0  0  0  0  0
   13.1996    1.6265   22.5829 C   0  0  0  0  0  0  0  0  0  0  0  0
   13.4193    2.9732   22.8264 C   0  0  0  0  0  0  0  0  0  0  0  0
   12.3299    3.8580   22.7794 C   0  0  0  0  0  0  0  0  0  0  0  0
   11.0403    3.3794   22.5372 C   0  0  0  0  0  0  0  0  0  0  0  0
   10.2221    4.0925   22.5241 H   0  0  0  0  0  0  0  0  0  0  0  0
   12.4777    4.9197   22.9267 H   0  0  0  0  0  0  0  0  0  0  0  0
   14.4151    3.3641   22.9985 H   0  0  0  0  0  0  0  0  0  0  0  0
   14.4616    0.1926   23.6311 H   0  0  0  0  0  0  0  0  0  0  0  0
   14.9987    0.5676   21.9885 H   0  0  0  0  0  0  0  0  0  0  0  0
   12.8517   -1.3473   22.8975 H   0  0  0  0  0  0  0  0  0  0  0  0
    7.6953    2.0857   24.9275 H   0  0  0  0  0  0  0  0  0  0  0  0
    9.3422    2.6464   24.6617 H   0  0  0  0  0  0  0  0  0  0  0  0
    8.2002    4.3717   22.9507 H   0  0  0  0  0  0  0  0  0  0  0  0
    6.7124    3.9079   23.7428 H   0  0  0  0  0  0  0  0  0  0  0  0
    8.8098    5.8154   24.7386 H   0  0  0  0  0  0  0  0  0  0  0  0
    7.8471    5.7205   26.9588 H   0  0  0  0  0  0  0  0  0  0  0  0
    6.9018    4.1940   26.5081 H   0  0  0  0  0  0  0  0  0  0  0  0
  1  2  2  3
  2  3  1  0
  3  4  1  0
  4  5  1  0
  5  6  1  0
  6  7  2  0
  7  8  1  0
  8  9  1  0
  9 10  2  0
 10 11  1  0
 11 12  2  0
 12 13  1  0
 13 14  2  0
 14 15  1  0
 12 16  1  0
 11 17  1  0
 10 18  1  0
  8 19  1  0
  8 20  1  0
  7 21  1  0
 21 22  2  0
 22 23  1  0
 23 24  2  0
 24 25  1  0
 25 26  1  0
 26 27  1  0
 27 28  1  0
 27 29  1  0
 27 30  1  0
 26 31  1  0
 31 32  1  0
 32 33  2  0
 33 34  1  0
 34 35  2  0
 35 36  1  0
 34 37  1  0
 33 38  1  0
 31 39  1  0
 31 40  1  0
 26 41  1  0
  4 42  1  0
  4 43  1  0
  3 44  1  0
  3 45  1  0
  2 46  1  0
  1 47  1  0
  1 48  1  0
 22  5  1  0
 35 23  1  0
 14  9  1  0
 32 24  1  0
M  END
>  <cnnaffinity>  (1) 
-6.45493

>  <filename>  (1) 
C=CCCn1nc(Cc2cccnc2)nc1-c1cccc2c1OC(C)C2

$$$$
