
     RDKit          3D

 43 45  0  0  0  0  0  0  0  0999 V2000
    9.8145    1.7756   25.6759 C   0  0  0  0  0  0  0  0  0  0  0  0
    9.3210    0.6674   25.1284 C   0  0  0  0  0  0  0  0  0  0  0  0
    7.8548    0.5111   24.7706 C   0  0  0  0  0  0  0  0  0  0  0  0
    7.4218    1.4221   23.7098 N   0  0  0  0  0  0  0  0  0  0  0  0
    6.7980    2.5680   24.0553 N   0  0  0  0  0  0  0  0  0  0  0  0
    6.7972    3.2739   22.9401 C   0  0  0  0  0  0  0  0  0  0  0  0
    6.1345    4.6001   22.8123 C   0  0  0  0  0  0  0  0  0  0  0  0
    6.0414    5.1860   21.5392 C   0  0  0  0  0  0  0  0  0  0  0  0
    5.4117    6.4149   21.3430 C   0  0  0  0  0  0  0  0  0  0  0  0
    4.8255    7.0788   22.4230 C   0  0  0  0  0  0  0  0  0  0  0  0
    4.9029    6.5067   23.6992 C   0  0  0  0  0  0  0  0  0  0  0  0
    5.5554    5.2861   23.9048 C   0  0  0  0  0  0  0  0  0  0  0  0
    5.6052    4.8699   24.9092 H   0  0  0  0  0  0  0  0  0  0  0  0
    4.4439    7.0163   24.5410 H   0  0  0  0  0  0  0  0  0  0  0  0
    4.2983    8.0195   22.2731 H   0  0  0  0  0  0  0  0  0  0  0  0
    5.3794    6.8296   20.3381 H   0  0  0  0  0  0  0  0  0  0  0  0
    6.4498    4.6514   20.6909 H   0  0  0  0  0  0  0  0  0  0  0  0
    7.4312    2.6503   21.9030 N   0  0  0  0  0  0  0  0  0  0  0  0
    7.7851    1.4815   22.4018 C   0  0  0  0  0  0  0  0  0  0  0  0
    8.4394    0.3602   21.6387 C   0  0  0  0  0  0  0  0  0  0  0  0
    7.4825   -0.6643   20.9514 C   0  0  0  0  0  0  0  0  0  0  0  0
    6.6458   -1.4178   21.9906 C   0  0  0  0  0  0  0  0  0  0  0  0
    5.8746   -2.0350   21.5170 H   0  0  0  0  0  0  0  0  0  0  0  0
    7.3021   -2.0824   22.5627 H   0  0  0  0  0  0  0  0  0  0  0  0
    6.1586   -0.7410   22.7007 H   0  0  0  0  0  0  0  0  0  0  0  0
    6.6658   -0.0317   19.8325 C   0  0  0  0  0  0  0  0  0  0  0  0
    5.4318    0.5875   20.0665 C   0  0  0  0  0  0  0  0  0  0  0  0
    4.8052    1.2752   19.0224 C   0  0  0  0  0  0  0  0  0  0  0  0
    5.4164    1.3035   17.7656 C   0  0  0  0  0  0  0  0  0  0  0  0
    6.5657    0.6653   17.4939 N   0  0  0  0  0  0  0  0  0  0  0  0
    7.1550    0.0179   18.5087 C   0  0  0  0  0  0  0  0  0  0  0  0
    8.0754   -0.5052   18.2465 H   0  0  0  0  0  0  0  0  0  0  0  0
    4.9590    1.8545   16.9422 H   0  0  0  0  0  0  0  0  0  0  0  0
    3.8652    1.7940   19.1765 H   0  0  0  0  0  0  0  0  0  0  0  0
    4.9711    0.5298   21.0563 H   0  0  0  0  0  0  0  0  0  0  0  0
    8.1332   -1.4040   20.4687 H   0  0  0  0  0  0  0  0  0  0  0  0
    9.0995   -0.1879   22.3210 H   0  0  0  0  0  0  0  0  0  0  0  0
    9.0786    0.8099   20.8718 H   0  0  0  0  0  0  0  0  0  0  0  0
    7.2314    0.7621   25.6371 H   0  0  0  0  0  0  0  0  0  0  0  0
    7.6345   -0.5203   24.4760 H   0  0  0  0  0  0  0  0  0  0  0  0
    9.9832   -0.1732   24.9177 H   0  0  0  0  0  0  0  0  0  0  0  0
   10.8654    1.8540   25.9379 H   0  0  0  0  0  0  0  0  0  0  0  0
    9.1872    2.6450   25.8736 H   0  0  0  0  0  0  0  0  0  0  0  0
  1  2  2  3
  2  3  1  0
  3  4  1  0
  4  5  1  0
  5  6  2  0
  6  7  1  0
  7  8  2  0
  8  9  1  0
  9 10  2  0
 10 11  1  0
 11 12  2  0
 12 13  1  0
 11 14  1  0
 10 15  1  0
  9 16  1  0
  8 17  1  0
  6 18  1  0
 18 19  2  0
 19 20  1  0
 20 21  1  0
 21 22  1  0
 22 23  1  0
 22 24  1  0
 22 25  1  0
 21 26  1  0
 26 27  2  0
 27 28  1  0
 28 29  2  0
 29 30  1  0
 30 31  2  0
 31 32  1  0
 29 33  1  0
 28 34  1  0
 27 35  1  0
 21 36  1  0
 20 37  1  0
 20 38  1  0
  3 39  1  0
  3 40  1  0
  2 41  1  0
  1 42  1  0
  1 43  1  0
 19  4  1  0
 31 26  1  0
 12  7  1  0
M  END
>  <cnnaffinity>  (1) 
-5.36085

>  <filename>  (1) 
C=CCn1nc(-c2ccccc2)nc1CC(C)c1cccnc1

$$$$
