
     RDKit          3D

 40 43  0  0  0  0  0  0  0  0999 V2000
   12.4465    0.0551   23.3523 C   0  0  0  0  0  0  0  0  0  0  0  0
   12.2211    1.3591   23.2319 C   0  0  0  0  0  0  0  0  0  0  0  0
   11.4191    1.9328   22.0837 C   0  0  0  0  0  0  0  0  0  0  0  0
   10.0241    1.4961   22.1036 N   0  0  0  0  0  0  0  0  0  0  0  0
    9.6240    0.4668   21.3250 N   0  0  0  0  0  0  0  0  0  0  0  0
    8.3651    0.2966   21.6745 C   0  0  0  0  0  0  0  0  0  0  0  0
    7.4445   -0.6767   20.9999 C   0  0  0  0  0  0  0  0  0  0  0  0
    6.6435   -0.0255   19.8739 C   0  0  0  0  0  0  0  0  0  0  0  0
    5.4358    0.6371   20.1304 C   0  0  0  0  0  0  0  0  0  0  0  0
    4.7957    1.3107   19.0856 C   0  0  0  0  0  0  0  0  0  0  0  0
    5.3840    1.3033   17.8189 C   0  0  0  0  0  0  0  0  0  0  0  0
    6.5420    0.6812   17.5534 N   0  0  0  0  0  0  0  0  0  0  0  0
    7.1464    0.0457   18.5639 C   0  0  0  0  0  0  0  0  0  0  0  0
    8.1055   -0.4187   18.3279 H   0  0  0  0  0  0  0  0  0  0  0  0
    4.9182    1.8128   16.9752 H   0  0  0  0  0  0  0  0  0  0  0  0
    3.8702    1.8500   19.2365 H   0  0  0  0  0  0  0  0  0  0  0  0
    5.0291    0.6401   21.1431 H   0  0  0  0  0  0  0  0  0  0  0  0
    6.7746   -1.0591   21.7768 H   0  0  0  0  0  0  0  0  0  0  0  0
    8.0460   -1.5187   20.6387 H   0  0  0  0  0  0  0  0  0  0  0  0
    7.9402    1.1192   22.6499 N   0  0  0  0  0  0  0  0  0  0  0  0
    9.0038    1.8799   22.9122 C   0  0  0  0  0  0  0  0  0  0  0  0
    9.0830    2.9512   23.8943 C   0  0  0  0  0  0  0  0  0  0  0  0
    7.9769    3.4838   24.5645 C   0  0  0  0  0  0  0  0  0  0  0  0
    6.5694    3.2826   24.5280 C   0  0  0  0  0  0  0  0  0  0  0  0
    5.7675    4.0339   25.3553 C   0  0  0  0  0  0  0  0  0  0  0  0
    6.3526    5.0047   26.2372 C   0  0  0  0  0  0  0  0  0  0  0  0
    7.7032    5.2008   26.2556 C   0  0  0  0  0  0  0  0  0  0  0  0
    8.5077    4.4567   25.4094 N   0  0  0  0  0  0  0  0  0  0  0  0
    9.8607    4.4662   25.1915 C   0  0  0  0  0  0  0  0  0  0  0  0
   10.2360    3.5852   24.3006 N   0  0  0  0  0  0  0  0  0  0  0  0
   10.5213    5.1152   25.7505 H   0  0  0  0  0  0  0  0  0  0  0  0
    8.2130    5.9124   26.8946 H   0  0  0  0  0  0  0  0  0  0  0  0
    5.7304    5.6030   26.8958 H   0  0  0  0  0  0  0  0  0  0  0  0
    4.6878    3.9037   25.3527 H   0  0  0  0  0  0  0  0  0  0  0  0
    6.1870    2.5378   23.8411 H   0  0  0  0  0  0  0  0  0  0  0  0
   11.4402    3.0250   22.1131 H   0  0  0  0  0  0  0  0  0  0  0  0
   11.7989    1.5758   21.1189 H   0  0  0  0  0  0  0  0  0  0  0  0
   12.5833    2.0598   23.9835 H   0  0  0  0  0  0  0  0  0  0  0  0
   12.0412   -0.6660   22.6421 H   0  0  0  0  0  0  0  0  0  0  0  0
   13.0156   -0.3288   24.1894 H   0  0  0  0  0  0  0  0  0  0  0  0
  1  2  2  3
  2  3  1  0
  3  4  1  0
  4  5  1  0
  5  6  2  0
  6  7  1  0
  7  8  1  0
  8  9  2  0
  9 10  1  0
 10 11  2  0
 11 12  1  0
 12 13  2  0
 13 14  1  0
 11 15  1  0
 10 16  1  0
  9 17  1  0
  7 18  1  0
  7 19  1  0
  6 20  1  0
 20 21  2  0
 21 22  1  0
 22 23  2  0
 23 24  1  0
 24 25  2  0
 25 26  1  0
 26 27  2  0
 27 28  1  0
 28 29  1  0
 29 30  2  0
 29 31  1  0
 27 32  1  0
 26 33  1  0
 25 34  1  0
 24 35  1  0
  3 36  1  0
  3 37  1  0
  2 38  1  0
  1 39  1  0
  1 40  1  0
 21  4  1  0
 30 22  1  0
 13  8  1  0
 28 23  1  0
M  END
>  <cnnaffinity>  (1) 
-5.66487

>  <filename>  (1) 
C=CCn1nc(Cc2cccnc2)nc1-c1ncn2ccccc12

$$$$
