
     RDKit          3D

 46 49  0  0  0  0  0  0  0  0999 V2000
    5.4629    3.7370   24.2984 C   0  0  0  0  0  0  0  0  0  0  0  0
    6.3384    3.8612   23.3052 C   0  0  0  0  0  0  0  0  0  0  0  0
    7.8279    3.9110   23.5643 C   0  0  0  0  0  0  0  0  0  0  0  0
    8.4063    2.5821   24.0935 C   0  0  0  0  0  0  0  0  0  0  0  0
    8.5219    1.5326   23.0874 N   0  0  0  0  0  0  0  0  0  0  0  0
    7.4228    0.8607   22.6817 N   0  0  0  0  0  0  0  0  0  0  0  0
    7.9042    0.0111   21.7979 C   0  0  0  0  0  0  0  0  0  0  0  0
    6.9983   -0.8622   20.9784 C   0  0  0  0  0  0  0  0  0  0  0  0
    6.3633   -0.1273   19.7934 C   0  0  0  0  0  0  0  0  0  0  0  0
    5.2078    0.6500   19.9627 C   0  0  0  0  0  0  0  0  0  0  0  0
    4.7185    1.3856   18.8785 C   0  0  0  0  0  0  0  0  0  0  0  0
    5.3966    1.3158   17.6599 C   0  0  0  0  0  0  0  0  0  0  0  0
    6.4952    0.5694   17.4675 N   0  0  0  0  0  0  0  0  0  0  0  0
    6.9574   -0.1228   18.5175 C   0  0  0  0  0  0  0  0  0  0  0  0
    7.8610   -0.7068   18.3349 H   0  0  0  0  0  0  0  0  0  0  0  0
    5.0417    1.8806   16.7987 H   0  0  0  0  0  0  0  0  0  0  0  0
    3.8432    2.0212   18.9663 H   0  0  0  0  0  0  0  0  0  0  0  0
    4.7075    0.6882   20.9327 H   0  0  0  0  0  0  0  0  0  0  0  0
    7.5929   -1.7163   20.6407 H   0  0  0  0  0  0  0  0  0  0  0  0
    6.2220   -1.2408   21.6528 H   0  0  0  0  0  0  0  0  0  0  0  0
    9.2507    0.0653   21.6199 N   0  0  0  0  0  0  0  0  0  0  0  0
    9.6049    1.0486   22.4291 C   0  0  0  0  0  0  0  0  0  0  0  0
   10.9178    1.7019   22.5372 C   0  0  0  0  0  0  0  0  0  0  0  0
   12.1018    0.9696   22.7812 C   0  0  0  0  0  0  0  0  0  0  0  0
   12.0254   -0.3561   22.9102 F   0  0  0  0  0  0  0  0  0  0  0  0
   13.3530    1.5642   22.9012 C   0  0  0  0  0  0  0  0  0  0  0  0
   13.4054    2.9508   22.7288 C   0  0  0  0  0  0  0  0  0  0  0  0
   14.4402    3.8541   22.6242 N   0  0  0  0  0  0  0  0  0  0  0  0
   13.8959    5.0585   22.2453 C   0  0  0  0  0  0  0  0  0  0  0  0
   14.6764    6.2401   21.7943 C   0  0  0  0  0  0  0  0  0  0  0  0
   14.9313    6.1070   20.7378 H   0  0  0  0  0  0  0  0  0  0  0  0
   15.5953    6.4005   22.3469 H   0  0  0  0  0  0  0  0  0  0  0  0
   14.0459    7.1254   21.8828 H   0  0  0  0  0  0  0  0  0  0  0  0
   12.5975    5.0198   22.1486 N   0  0  0  0  0  0  0  0  0  0  0  0
   12.2630    3.7151   22.4390 C   0  0  0  0  0  0  0  0  0  0  0  0
   11.0281    3.0876   22.3675 C   0  0  0  0  0  0  0  0  0  0  0  0
   10.1754    3.7011   22.1371 H   0  0  0  0  0  0  0  0  0  0  0  0
   15.4040    3.6512   22.8157 H   0  0  0  0  0  0  0  0  0  0  0  0
   14.2250    0.9441   23.0742 H   0  0  0  0  0  0  0  0  0  0  0  0
    9.3940    2.7381   24.5354 H   0  0  0  0  0  0  0  0  0  0  0  0
    7.7582    2.1819   24.8783 H   0  0  0  0  0  0  0  0  0  0  0  0
    8.0378    4.6663   24.3338 H   0  0  0  0  0  0  0  0  0  0  0  0
    8.3417    4.2316   22.6557 H   0  0  0  0  0  0  0  0  0  0  0  0
    5.9860    3.8678   22.2697 H   0  0  0  0  0  0  0  0  0  0  0  0
    5.7996    3.6876   25.3342 H   0  0  0  0  0  0  0  0  0  0  0  0
    4.3946    3.6826   24.1173 H   0  0  0  0  0  0  0  0  0  0  0  0
  1  2  2  3
  2  3  1  0
  3  4  1  0
  4  5  1  0
  5  6  1  0
  6  7  2  0
  7  8  1  0
  8  9  1  0
  9 10  2  0
 10 11  1  0
 11 12  2  0
 12 13  1  0
 13 14  2  0
 14 15  1  0
 12 16  1  0
 11 17  1  0
 10 18  1  0
  8 19  1  0
  8 20  1  0
  7 21  1  0
 21 22  2  0
 22 23  1  0
 23 24  2  0
 24 25  1  0
 24 26  1  0
 26 27  2  0
 27 28  1  0
 28 29  1  0
 29 30  1  0
 30 31  1  0
 30 32  1  0
 30 33  1  0
 29 34  2  0
 34 35  1  0
 35 36  2  0
 36 37  1  0
 28 38  1  0
 26 39  1  0
  4 40  1  0
  4 41  1  0
  3 42  1  0
  3 43  1  0
  2 44  1  0
  1 45  1  0
  1 46  1  0
 22  5  1  0
 36 23  1  0
 14  9  1  0
 35 27  1  0
M  END
>  <cnnaffinity>  (1) 
-6.71913

>  <filename>  (1) 
C=CCCn1nc(Cc2cccnc2)nc1-c1cc2nc(C)[nH]c2cc1F

$$$$
