
     RDKit          3D

 22 22  0  0  0  0  0  0  0  0999 V2000
   11.3059    0.7635   21.1612 H   0  0  0  0  0  0  0  0  0  0  0  0
   11.2768   -0.3242   21.1627 C   0  0  0  0  0  0  0  0  0  0  0  0
   12.0345   -0.8377   20.5776 H   0  0  0  0  0  0  0  0  0  0  0  0
   10.3624   -1.0053   21.8428 C   0  0  0  0  0  0  0  0  0  0  0  0
   10.4183   -2.0915   21.8738 H   0  0  0  0  0  0  0  0  0  0  0  0
    9.1871   -0.3769   22.5501 C   0  0  0  0  0  0  0  0  0  0  0  0
    9.5117    0.4955   23.1263 H   0  0  0  0  0  0  0  0  0  0  0  0
    8.7255   -1.0874   23.2455 H   0  0  0  0  0  0  0  0  0  0  0  0
    8.2076    0.1509   21.6152 O   0  0  0  0  0  0  0  0  0  0  0  0
    7.3419   -0.7101   21.0015 C   0  0  0  0  0  0  0  0  0  0  0  0
    6.4900   -1.2610   21.9148 F   0  0  0  0  0  0  0  0  0  0  0  0
    7.9984   -1.7942   20.4755 F   0  0  0  0  0  0  0  0  0  0  0  0
    6.5816    0.0020   19.9218 C   0  0  0  0  0  0  0  0  0  0  0  0
    7.1583    0.0521   18.6532 C   0  0  0  0  0  0  0  0  0  0  0  0
    8.1055   -0.4507   18.4651 H   0  0  0  0  0  0  0  0  0  0  0  0
    6.6085    0.6844   17.6103 N   0  0  0  0  0  0  0  0  0  0  0  0
    5.4446    1.3149   17.8247 C   0  0  0  0  0  0  0  0  0  0  0  0
    4.9976    1.8108   16.9645 H   0  0  0  0  0  0  0  0  0  0  0  0
    4.7945    1.3440   19.0609 C   0  0  0  0  0  0  0  0  0  0  0  0
    3.8563    1.8776   19.1639 H   0  0  0  0  0  0  0  0  0  0  0  0
    5.3759    0.6822   20.1437 C   0  0  0  0  0  0  0  0  0  0  0  0
    4.9041    0.7125   21.1272 H   0  0  0  0  0  0  0  0  0  0  0  0
  1  2  1  0
  2  3  1  0
  2  4  2  3
  4  5  1  0
  4  6  1  0
  6  7  1  0
  6  8  1  0
  6  9  1  0
  9 10  1  0
 10 11  1  0
 10 12  1  0
 10 13  1  0
 13 14  2  0
 14 15  1  0
 14 16  1  0
 16 17  2  0
 17 18  1  0
 17 19  1  0
 19 20  1  0
 19 21  2  0
 21 22  1  0
 21 13  1  0
M  END
>  <cnnaffinity>  (1) 
-3.99092

>  <filename>  (1) 
C=CCOC(F)(F)c1cccnc1

$$$$
