
     RDKit          3D

 24 25  0  0  0  0  0  0  0  0999 V2000
    8.3024   -3.4016   25.4630 H   0  0  0  0  0  0  0  0  0  0  0  0
    8.4223   -4.2671   24.8136 C   0  0  0  0  0  0  0  0  0  0  0  0
    7.7628   -5.1134   24.9890 H   0  0  0  0  0  0  0  0  0  0  0  0
    9.3006   -4.2505   23.8124 C   0  0  0  0  0  0  0  0  0  0  0  0
    9.3737   -5.1064   23.1485 H   0  0  0  0  0  0  0  0  0  0  0  0
   10.1929   -3.0831   23.4995 C   0  0  0  0  0  0  0  0  0  0  0  0
   11.2382   -3.3953   23.4518 H   0  0  0  0  0  0  0  0  0  0  0  0
   10.1084   -2.3140   24.2760 H   0  0  0  0  0  0  0  0  0  0  0  0
    9.9271   -2.5211   22.1873 O   0  0  0  0  0  0  0  0  0  0  0  0
    8.8088   -1.8262   22.0514 C   0  0  0  0  0  0  0  0  0  0  0  0
    7.9036   -1.5232   22.9165 N   0  0  0  0  0  0  0  0  0  0  0  0
    6.9582   -0.7873   22.2094 N   0  0  0  0  0  0  0  0  0  0  0  0
    7.3696   -0.7007   20.9888 C   0  0  0  0  0  0  0  0  0  0  0  0
    6.6681    0.0025   19.9062 C   0  0  0  0  0  0  0  0  0  0  0  0
    7.1866    0.0514   18.6047 C   0  0  0  0  0  0  0  0  0  0  0  0
    8.1302   -0.4293   18.3646 H   0  0  0  0  0  0  0  0  0  0  0  0
    6.5740    0.6685   17.5874 N   0  0  0  0  0  0  0  0  0  0  0  0
    5.4105    1.2858   17.8435 C   0  0  0  0  0  0  0  0  0  0  0  0
    4.9274    1.7754   16.9993 H   0  0  0  0  0  0  0  0  0  0  0  0
    4.8090    1.3072   19.1086 C   0  0  0  0  0  0  0  0  0  0  0  0
    3.8754    1.8428   19.2562 H   0  0  0  0  0  0  0  0  0  0  0  0
    5.4406    0.6508   20.1624 C   0  0  0  0  0  0  0  0  0  0  0  0
    5.0103    0.6305   21.1694 H   0  0  0  0  0  0  0  0  0  0  0  0
    8.5625   -1.3515   20.8056 O   0  0  0  0  0  0  0  0  0  0  0  0
  1  2  1  0
  2  3  1  0
  2  4  2  3
  4  5  1  0
  4  6  1  0
  6  7  1  0
  6  8  1  0
  6  9  1  0
  9 10  1  0
 10 11  2  0
 11 12  1  0
 12 13  2  0
 13 14  1  0
 14 15  2  0
 15 16  1  0
 15 17  1  0
 17 18  2  0
 18 19  1  0
 18 20  1  0
 20 21  1  0
 20 22  2  0
 22 23  1  0
 13 24  1  0
 24 10  1  0
 22 14  1  0
M  END
>  <cnnaffinity>  (1) 
-4.57398

>  <filename>  (1) 
C=CCOc1nnc(-c2cccnc2)o1

$$$$
