
     RDKit          3D

 40 42  0  0  0  0  0  0  0  0999 V2000
   11.7076   -0.6595   22.2114 C   0  0  0  0  0  0  0  0  0  0  0  0
   10.9150   -1.5095   22.8569 C   0  0  0  0  0  0  0  0  0  0  0  0
    9.9831   -2.4556   22.1334 C   0  0  0  0  0  0  0  0  0  0  0  0
    8.6556   -1.8679   21.9175 N   0  0  0  0  0  0  0  0  0  0  0  0
    8.3281   -1.3940   20.6922 N   0  0  0  0  0  0  0  0  0  0  0  0
    7.2434   -0.6753   20.9248 C   0  0  0  0  0  0  0  0  0  0  0  0
    6.5429    0.0525   19.8683 C   0  0  0  0  0  0  0  0  0  0  0  0
    5.3310    0.7350   20.0773 C   0  0  0  0  0  0  0  0  0  0  0  0
    4.7506    1.3828   18.9893 C   0  0  0  0  0  0  0  0  0  0  0  0
    5.4019    1.3381   17.7515 C   0  0  0  0  0  0  0  0  0  0  0  0
    6.5601    0.6936   17.5437 N   0  0  0  0  0  0  0  0  0  0  0  0
    7.1139    0.0680   18.5852 C   0  0  0  0  0  0  0  0  0  0  0  0
    8.0546   -0.4496   18.3951 H   0  0  0  0  0  0  0  0  0  0  0  0
    4.9750    1.8401   16.8880 H   0  0  0  0  0  0  0  0  0  0  0  0
    3.8186    1.9292   19.0854 H   0  0  0  0  0  0  0  0  0  0  0  0
    4.8659    0.7595   21.0650 H   0  0  0  0  0  0  0  0  0  0  0  0
    6.8665   -0.6496   22.2290 N   0  0  0  0  0  0  0  0  0  0  0  0
    7.7618   -1.4113   22.8190 C   0  0  0  0  0  0  0  0  0  0  0  0
    7.7230   -1.8198   24.2487 C   0  0  0  0  0  0  0  0  0  0  0  0
    7.0089   -3.1534   24.4278 C   0  0  0  0  0  0  0  0  0  0  0  0
    7.6451   -4.0858   23.6280 F   0  0  0  0  0  0  0  0  0  0  0  0
    5.7407   -3.0329   23.9291 F   0  0  0  0  0  0  0  0  0  0  0  0
    6.9534   -3.6750   25.8534 C   0  0  0  0  0  0  0  0  0  0  0  0
    7.9474   -4.5468   26.3318 C   0  0  0  0  0  0  0  0  0  0  0  0
    7.8478   -5.0965   27.6123 C   0  0  0  0  0  0  0  0  0  0  0  0
    6.7501   -4.7959   28.4244 C   0  0  0  0  0  0  0  0  0  0  0  0
    5.7716   -3.9061   27.9688 C   0  0  0  0  0  0  0  0  0  0  0  0
    5.8787   -3.3378   26.6977 C   0  0  0  0  0  0  0  0  0  0  0  0
    5.1047   -2.6537   26.3587 H   0  0  0  0  0  0  0  0  0  0  0  0
    4.9039   -3.6809   28.5851 H   0  0  0  0  0  0  0  0  0  0  0  0
    6.6521   -5.2573   29.4032 H   0  0  0  0  0  0  0  0  0  0  0  0
    8.6017   -5.8028   27.9483 H   0  0  0  0  0  0  0  0  0  0  0  0
    8.8030   -4.7977   25.7101 H   0  0  0  0  0  0  0  0  0  0  0  0
    8.7259   -1.9229   24.6658 H   0  0  0  0  0  0  0  0  0  0  0  0
    7.1863   -1.0543   24.8055 H   0  0  0  0  0  0  0  0  0  0  0  0
    9.8667   -3.4092   22.6588 H   0  0  0  0  0  0  0  0  0  0  0  0
   10.3509   -2.6551   21.1273 H   0  0  0  0  0  0  0  0  0  0  0  0
   10.8670   -1.5087   23.9480 H   0  0  0  0  0  0  0  0  0  0  0  0
   12.3051    0.0936   22.7245 H   0  0  0  0  0  0  0  0  0  0  0  0
   11.7784   -0.6938   21.1248 H   0  0  0  0  0  0  0  0  0  0  0  0
  1  2  2  3
  2  3  1  0
  3  4  1  0
  4  5  1  0
  5  6  2  0
  6  7  1  0
  7  8  2  0
  8  9  1  0
  9 10  2  0
 10 11  1  0
 11 12  2  0
 12 13  1  0
 10 14  1  0
  9 15  1  0
  8 16  1  0
  6 17  1  0
 17 18  2  0
 18 19  1  0
 19 20  1  0
 20 21  1  0
 20 22  1  0
 20 23  1  0
 23 24  2  0
 24 25  1  0
 25 26  2  0
 26 27  1  0
 27 28  2  0
 28 29  1  0
 27 30  1  0
 26 31  1  0
 25 32  1  0
 24 33  1  0
 19 34  1  0
 19 35  1  0
  3 36  1  0
  3 37  1  0
  2 38  1  0
  1 39  1  0
  1 40  1  0
 18  4  1  0
 28 23  1  0
 12  7  1  0
M  END
>  <cnnaffinity>  (1) 
-5.88126

>  <filename>  (1) 
C=CCn1nc(-c2cccnc2)nc1CC(F)(F)c1ccccc1

$$$$
