
     RDKit          3D

 46 49  0  0  0  0  0  0  0  0999 V2000
    7.7973   -5.9470   22.5405 C   0  0  0  0  0  0  0  0  0  0  0  0
    8.0141   -5.9882   22.4495 C   0  0  0  0  0  0  0  0  0  0  0  0
    7.7185   -5.8361   20.7035 C   0  0  0  0  0  0  0  0  0  0  0  0
    6.3779   -5.2001   20.5001 C   0  0  0  0  0  0  0  0  0  0  0  0
    6.3408   -3.9580   21.2441 N   0  0  0  0  0  0  0  0  0  0  0  0
    6.8882   -2.8360   20.7630 N   0  0  0  0  0  0  0  0  0  0  0  0
    6.8398   -2.0197   21.7993 C   0  0  0  0  0  0  0  0  0  0  0  0
    7.1828   -0.5495   21.6640 C   0  0  0  0  0  0  0  0  0  0  0  0
    6.6355    0.0979   20.3894 C   0  0  0  0  0  0  0  0  0  0  0  0
    5.3675    0.6919   20.3727 C   0  0  0  0  0  0  0  0  0  0  0  0
    4.8606    1.1832   19.1644 C   0  0  0  0  0  0  0  0  0  0  0  0
    5.6407    1.0590   18.0110 C   0  0  0  0  0  0  0  0  0  0  0  0
    6.8481    0.4765   17.9941 N   0  0  0  0  0  0  0  0  0  0  0  0
    7.3201    0.0144   19.1594 C   0  0  0  0  0  0  0  0  0  0  0  0
    8.2939   -0.4749   19.1184 H   0  0  0  0  0  0  0  0  0  0  0  0
    5.2818    1.4404   17.0555 H   0  0  0  0  0  0  0  0  0  0  0  0
    3.8910    1.6679   19.1091 H   0  0  0  0  0  0  0  0  0  0  0  0
    4.7891    0.7743   21.2957 H   0  0  0  0  0  0  0  0  0  0  0  0
    6.7743   -0.0633   22.5588 H   0  0  0  0  0  0  0  0  0  0  0  0
    8.2731   -0.4363   21.7152 H   0  0  0  0  0  0  0  0  0  0  0  0
    6.4179   -2.6054   22.9572 N   0  0  0  0  0  0  0  0  0  0  0  0
    6.0631   -3.8180   22.5511 C   0  0  0  0  0  0  0  0  0  0  0  0
    5.0352   -4.8117   22.9456 C   0  0  0  0  0  0  0  0  0  0  0  0
    5.2587   -6.0408   23.4919 C   0  0  0  0  0  0  0  0  0  0  0  0
    4.1481   -6.9036   23.7773 C   0  0  0  0  0  0  0  0  0  0  0  0
    4.0734   -8.0617   24.4088 N   0  0  0  0  0  0  0  0  0  0  0  0
    2.7471   -8.4123   24.3777 C   0  0  0  0  0  0  0  0  0  0  0  0
    2.2193   -9.6485   25.0250 C   0  0  0  0  0  0  0  0  0  0  0  0
    1.1973   -9.8490   24.6927 H   0  0  0  0  0  0  0  0  0  0  0  0
    2.1976   -9.5298   26.1133 H   0  0  0  0  0  0  0  0  0  0  0  0
    2.8279  -10.5223   24.7962 H   0  0  0  0  0  0  0  0  0  0  0  0
    2.0000   -7.4719   23.7209 C   0  0  0  0  0  0  0  0  0  0  0  0
    2.8816   -6.4942   23.3390 N   0  0  0  0  0  0  0  0  0  0  0  0
    2.6584   -5.3159   22.6611 C   0  0  0  0  0  0  0  0  0  0  0  0
    3.7097   -4.4900   22.4449 C   0  0  0  0  0  0  0  0  0  0  0  0
    3.6133   -3.6070   21.8292 H   0  0  0  0  0  0  0  0  0  0  0  0
    1.6412   -5.1539   22.3318 H   0  0  0  0  0  0  0  0  0  0  0  0
    0.9465   -7.4058   23.4973 H   0  0  0  0  0  0  0  0  0  0  0  0
    6.2332   -6.3173   23.7555 H   0  0  0  0  0  0  0  0  0  0  0  0
    5.6168   -5.8588   20.9159 H   0  0  0  0  0  0  0  0  0  0  0  0
    6.1653   -4.9680   19.4556 H   0  0  0  0  0  0  0  0  0  0  0  0
    7.6794   -6.7571   20.1070 H   0  0  0  0  0  0  0  0  0  0  0  0
    8.5113   -5.2086   20.2407 H   0  0  0  0  0  0  0  0  0  0  0  0
    7.4180   -7.1388   22.3399 H   0  0  0  0  0  0  0  0  0  0  0  0
    8.1273   -4.7257   22.6640 H   0  0  0  0  0  0  0  0  0  0  0  0
    8.2214   -6.1227   23.7367 H   0  0  0  0  0  0  0  0  0  0  0  0
  1  2  2  3
  2  3  1  0
  3  4  1  0
  4  5  1  0
  5  6  1  0
  6  7  2  0
  7  8  1  0
  8  9  1  0
  9 10  2  0
 10 11  1  0
 11 12  2  0
 12 13  1  0
 13 14  2  0
 14 15  1  0
 12 16  1  0
 11 17  1  0
 10 18  1  0
  8 19  1  0
  8 20  1  0
  7 21  1  0
 21 22  2  0
 22 23  1  0
 23 24  2  0
 24 25  1  0
 25 26  2  0
 26 27  1  0
 27 28  1  0
 28 29  1  0
 28 30  1  0
 28 31  1  0
 27 32  2  0
 32 33  1  0
 33 34  1  0
 34 35  2  0
 35 36  1  0
 34 37  1  0
 32 38  1  0
 24 39  1  0
  4 40  1  0
  4 41  1  0
  3 42  1  0
  3 43  1  0
  2 44  1  0
  1 45  1  0
  1 46  1  0
 22  5  1  0
 35 23  1  0
 14  9  1  0
 33 25  1  0
M  END
>  <cnnaffinity>  (1) 
-5.66064

>  <filename>  (1) 
C=CCCn1nc(Cc2cccnc2)nc1-c1ccn2cc(C)nc2c1

$$$$
