
     RDKit          3D

 25 26  0  0  0  0  0  0  0  0999 V2000
    7.0498   -6.2240   22.3805 H   0  0  0  0  0  0  0  0  0  0  0  0
    7.6882   -5.3576   22.5257 C   0  0  0  0  0  0  0  0  0  0  0  0
    8.0728   -5.2237   23.5342 H   0  0  0  0  0  0  0  0  0  0  0  0
    7.9687   -4.5095   21.5419 C   0  0  0  0  0  0  0  0  0  0  0  0
    7.5496   -4.6784   20.5484 H   0  0  0  0  0  0  0  0  0  0  0  0
    8.8555   -3.2896   21.7131 C   0  0  0  0  0  0  0  0  0  0  0  0
    9.5420   -3.4519   22.5530 H   0  0  0  0  0  0  0  0  0  0  0  0
    9.4467   -3.1246   20.8061 H   0  0  0  0  0  0  0  0  0  0  0  0
    8.1209   -1.9985   21.9548 C   0  0  0  0  0  0  0  0  0  0  0  0
    8.0310   -1.5654   23.2180 N   0  0  0  0  0  0  0  0  0  0  0  0
    7.4648   -0.3742   23.4605 N   0  0  0  0  0  0  0  0  0  0  0  0
    6.9639    0.3116   22.4387 C   0  0  0  0  0  0  0  0  0  0  0  0
    6.5897    1.3003   22.6694 H   0  0  0  0  0  0  0  0  0  0  0  0
    6.9833   -0.2176   21.1184 C   0  0  0  0  0  0  0  0  0  0  0  0
    6.3137    0.4193   19.9590 C   0  0  0  0  0  0  0  0  0  0  0  0
    6.9573    0.3170   18.7131 C   0  0  0  0  0  0  0  0  0  0  0  0
    7.9087   -0.2061   18.6415 H   0  0  0  0  0  0  0  0  0  0  0  0
    6.4789    0.8307   17.5785 N   0  0  0  0  0  0  0  0  0  0  0  0
    5.2911    1.4495   17.6414 C   0  0  0  0  0  0  0  0  0  0  0  0
    4.9132    1.8402   16.6998 H   0  0  0  0  0  0  0  0  0  0  0  0
    4.5547    1.5928   18.8200 C   0  0  0  0  0  0  0  0  0  0  0  0
    3.5940    2.0953   18.7842 H   0  0  0  0  0  0  0  0  0  0  0  0
    5.0806    1.0956   20.0132 C   0  0  0  0  0  0  0  0  0  0  0  0
    4.5308    1.2313   20.9475 H   0  0  0  0  0  0  0  0  0  0  0  0
    7.6522   -1.3461   20.8700 N   0  0  0  0  0  0  0  0  0  0  0  0
  1  2  1  0
  2  3  1  0
  2  4  2  3
  4  5  1  0
  4  6  1  0
  6  7  1  0
  6  8  1  0
  6  9  1  0
  9 10  2  0
 10 11  1  0
 11 12  2  0
 12 13  1  0
 12 14  1  0
 14 15  1  0
 15 16  2  0
 16 17  1  0
 16 18  1  0
 18 19  2  0
 19 20  1  0
 19 21  1  0
 21 22  1  0
 21 23  2  0
 23 24  1  0
 14 25  2  0
 25  9  1  0
 23 15  1  0
M  END
>  <cnnaffinity>  (1) 
-4.44139

>  <filename>  (1) 
C=CCc1nncc(-c2cccnc2)n1

$$$$
