
     RDKit          3D

 25 26  0  0  0  0  0  0  0  0999 V2000
    7.6890   -5.9987   21.8937 H   0  0  0  0  0  0  0  0  0  0  0  0
    8.1083   -5.0036   21.7509 C   0  0  0  0  0  0  0  0  0  0  0  0
    8.0198   -4.5944   20.7460 H   0  0  0  0  0  0  0  0  0  0  0  0
    8.6897   -4.3406   22.7480 C   0  0  0  0  0  0  0  0  0  0  0  0
    8.7374   -4.8169   23.7330 H   0  0  0  0  0  0  0  0  0  0  0  0
    9.3291   -2.9509   22.6351 C   0  0  0  0  0  0  0  0  0  0  0  0
   10.1330   -2.9466   21.8885 H   0  0  0  0  0  0  0  0  0  0  0  0
    9.8011   -2.6901   23.5872 H   0  0  0  0  0  0  0  0  0  0  0  0
    8.4209   -1.8058   22.2867 C   0  0  0  0  0  0  0  0  0  0  0  0
    7.8576   -1.0069   23.1609 N   0  0  0  0  0  0  0  0  0  0  0  0
    7.0592   -0.1631   22.4365 C   0  0  0  0  0  0  0  0  0  0  0  0
    6.4695    0.6104   22.9108 H   0  0  0  0  0  0  0  0  0  0  0  0
    7.1506   -0.4253   21.0925 C   0  0  0  0  0  0  0  0  0  0  0  0
    6.4985    0.1642   19.9060 C   0  0  0  0  0  0  0  0  0  0  0  0
    7.0864    0.1072   18.6222 C   0  0  0  0  0  0  0  0  0  0  0  0
    8.0234   -0.4302   18.4739 H   0  0  0  0  0  0  0  0  0  0  0  0
    6.5834    0.6893   17.5262 N   0  0  0  0  0  0  0  0  0  0  0  0
    5.4201    1.3504   17.6635 C   0  0  0  0  0  0  0  0  0  0  0  0
    5.0272    1.8193   16.7643 H   0  0  0  0  0  0  0  0  0  0  0  0
    4.7152    1.4243   18.8688 C   0  0  0  0  0  0  0  0  0  0  0  0
    3.7627    1.9417   18.9054 H   0  0  0  0  0  0  0  0  0  0  0  0
    5.2580    0.8229   20.0050 C   0  0  0  0  0  0  0  0  0  0  0  0
    4.7252    0.8408   20.9562 H   0  0  0  0  0  0  0  0  0  0  0  0
    8.0688   -1.4611   21.0159 N   0  0  0  0  0  0  0  0  0  0  0  0
    8.3355   -1.9462   20.1765 H   0  0  0  0  0  0  0  0  0  0  0  0
  1  2  1  0
  2  3  1  0
  2  4  2  3
  4  5  1  0
  4  6  1  0
  6  7  1  0
  6  8  1  0
  6  9  1  0
  9 10  2  0
 10 11  1  0
 11 12  1  0
 11 13  2  0
 13 14  1  0
 14 15  2  0
 15 16  1  0
 15 17  1  0
 17 18  2  0
 18 19  1  0
 18 20  1  0
 20 21  1  0
 20 22  2  0
 22 23  1  0
 13 24  1  0
 24 25  1  0
 24  9  1  0
 22 14  1  0
M  END
>  <cnnaffinity>  (1) 
-4.57467

>  <filename>  (1) 
C=CCc1ncc(-c2cccnc2)[nH]1

$$$$
