
     RDKit          3D

 33 34  0  0  0  0  0  0  0  0999 V2000
    5.6210   -3.1460   22.4956 C   0  0  0  0  0  0  0  0  0  0  0  0
    7.0544   -2.9394   22.9996 C   0  0  1  0  0  0  0  0  0  0  0  0
    7.2939   -1.5024   23.2723 N   0  0  0  0  0  0  0  0  0  0  0  0
    7.1011   -0.5246   22.3135 C   0  0  0  0  0  0  0  0  0  0  0  0
    6.7192    0.9947   22.8714 S   0  0  0  0  0  0  0  0  0  0  0  0
    7.2838   -0.8012   20.9586 N   0  0  0  0  0  0  0  0  0  0  0  0
    6.6894   -0.0724   19.8971 C   0  0  0  0  0  0  0  0  0  0  0  0
    5.5479    0.6900   20.1490 C   0  0  0  0  0  0  0  0  0  0  0  0
    4.9404    1.3759   19.0925 C   0  0  0  0  0  0  0  0  0  0  0  0
    5.4964    1.3102   17.8115 C   0  0  0  0  0  0  0  0  0  0  0  0
    6.5944    0.5821   17.5445 N   0  0  0  0  0  0  0  0  0  0  0  0
    7.1700   -0.0959   18.5633 C   0  0  0  0  0  0  0  0  0  0  0  0
    8.0572   -0.6765   18.3356 H   0  0  0  0  0  0  0  0  0  0  0  0
    5.0129    1.8503   17.0025 H   0  0  0  0  0  0  0  0  0  0  0  0
    4.0415    1.9594   19.2488 H   0  0  0  0  0  0  0  0  0  0  0  0
    5.1386    0.7248   21.1560 H   0  0  0  0  0  0  0  0  0  0  0  0
    7.7520   -1.6793   20.7537 H   0  0  0  0  0  0  0  0  0  0  0  0
    7.0852   -1.1716   24.2131 H   0  0  0  0  0  0  0  0  0  0  0  0
    7.2453   -3.7775   24.2553 C   0  0  0  0  0  0  0  0  0  0  0  0
    6.7411   -3.3318   25.4935 C   0  0  0  0  0  0  0  0  0  0  0  0
    6.9442   -4.0620   26.6693 C   0  0  0  0  0  0  0  0  0  0  0  0
    7.6999   -5.2375   26.6140 C   0  0  0  0  0  0  0  0  0  0  0  0
    8.1448   -5.7286   25.3802 C   0  0  0  0  0  0  0  0  0  0  0  0
    7.8865   -5.0285   24.1974 C   0  0  0  0  0  0  0  0  0  0  0  0
    8.4168   -5.7961   22.5257 Br  0  0  0  0  0  0  0  0  0  0  0  0
    8.7005   -6.6579   25.3251 H   0  0  0  0  0  0  0  0  0  0  0  0
    7.9378   -5.7751   27.5269 H   0  0  0  0  0  0  0  0  0  0  0  0
    6.5349   -3.6954   27.6099 H   0  0  0  0  0  0  0  0  0  0  0  0
    6.1924   -2.3963   25.5295 H   0  0  0  0  0  0  0  0  0  0  0  0
    7.7622   -3.2689   22.2254 H   0  0  0  0  0  0  0  0  0  0  0  0
    5.3370   -2.3503   21.8019 H   0  0  0  0  0  0  0  0  0  0  0  0
    5.5260   -4.1077   21.9776 H   0  0  0  0  0  0  0  0  0  0  0  0
    4.9181   -3.1260   23.3361 H   0  0  0  0  0  0  0  0  0  0  0  0
  1  2  1  0
  2  3  1  0
  3  4  1  0
  4  5  2  0
  4  6  1  0
  6  7  1  0
  7  8  2  0
  8  9  1  0
  9 10  2  0
 10 11  1  0
 11 12  2  0
 12 13  1  0
 10 14  1  0
  9 15  1  0
  8 16  1  0
  6 17  1  0
  3 18  1  0
  2 19  1  0
 19 20  2  0
 20 21  1  0
 21 22  2  0
 22 23  1  0
 23 24  2  0
 24 25  1  0
 23 26  1  0
 22 27  1  0
 21 28  1  0
 20 29  1  0
  2 30  1  6
  1 31  1  0
  1 32  1  0
  1 33  1  0
 12  7  1  0
 24 19  1  0
M  END
>  <cnnaffinity>  (1) 
-5.30442

>  <filename>  (1) 
C[C@@H](NC(=S)Nc1cccnc1)c1ccccc1Br

$$$$
