
     RDKit          3D

 43 45  0  0  0  0  0  0  0  0999 V2000
    8.6259    1.1335   21.6882 H   0  0  0  0  0  0  0  0  0  0  0  0
    7.9644    0.3421   22.0121 C   0  0  0  0  0  0  0  0  0  0  0  0
    7.4596    0.2985   23.2578 C   0  0  0  0  0  0  0  0  0  0  0  0
    7.5909    1.3958   24.2727 C   0  0  0  0  0  0  0  0  0  0  0  0
    8.6426    1.7052   24.3093 H   0  0  0  0  0  0  0  0  0  0  0  0
    7.3149    1.0367   25.2718 H   0  0  0  0  0  0  0  0  0  0  0  0
    6.7186    2.6113   23.9321 C   0  0  0  0  0  0  0  0  0  0  0  0
    5.6662    2.3182   24.0651 H   0  0  0  0  0  0  0  0  0  0  0  0
    6.8326    2.8861   22.8624 H   0  0  0  0  0  0  0  0  0  0  0  0
    6.9972    3.7391   24.8107 N   0  0  0  0  0  0  0  0  0  0  0  0
    5.9267    4.7361   24.8952 C   0  0  0  0  0  0  0  0  0  0  0  0
    5.1705    4.4368   25.6351 H   0  0  0  0  0  0  0  0  0  0  0  0
    5.4001    4.8611   23.9303 H   0  0  0  0  0  0  0  0  0  0  0  0
    6.6290    6.0385   25.2747 C   0  0  0  0  0  0  0  0  0  0  0  0
    6.7782    6.0893   26.3609 H   0  0  0  0  0  0  0  0  0  0  0  0
    6.0637    6.9269   24.9767 H   0  0  0  0  0  0  0  0  0  0  0  0
    7.9661    5.9130   24.5462 C   0  0  0  0  0  0  0  0  0  0  0  0
    8.7493    6.5577   24.9629 H   0  0  0  0  0  0  0  0  0  0  0  0
    7.8578    6.1765   23.4874 H   0  0  0  0  0  0  0  0  0  0  0  0
    8.3006    4.4145   24.6798 C   0  0  1  0  0  0  0  0  0  0  0  0
    8.8468    4.0691   23.7853 H   0  0  0  0  0  0  0  0  0  0  0  0
    9.1665    4.1562   25.9132 C   0  0  0  0  0  0  0  0  0  0  0  0
    8.6262    4.4153   26.8306 H   0  0  0  0  0  0  0  0  0  0  0  0
   10.0695    4.7762   25.8633 H   0  0  0  0  0  0  0  0  0  0  0  0
    9.4526    3.1023   25.9892 H   0  0  0  0  0  0  0  0  0  0  0  0
    6.6886   -0.8107   23.6136 N   0  0  0  0  0  0  0  0  0  0  0  0
    6.3199   -0.9608   24.5361 H   0  0  0  0  0  0  0  0  0  0  0  0
    6.4792   -1.8930   22.8199 C   0  0  0  0  0  0  0  0  0  0  0  0
    5.7206   -3.2605   23.3837 S   0  0  0  0  0  0  0  0  0  0  0  0
    6.9097   -1.7974   21.5544 N   0  0  0  0  0  0  0  0  0  0  0  0
    6.5575   -2.5432   20.9832 H   0  0  0  0  0  0  0  0  0  0  0  0
    7.5600   -0.6391   20.9569 C   0  0  1  0  0  0  0  0  0  0  0  0
    8.4702   -1.0062   20.4472 H   0  0  0  0  0  0  0  0  0  0  0  0
    6.6806   -0.0189   19.8591 C   0  0  0  0  0  0  0  0  0  0  0  0
    7.1673    0.0193   18.5483 C   0  0  0  0  0  0  0  0  0  0  0  0
    8.1073   -0.4812   18.3147 H   0  0  0  0  0  0  0  0  0  0  0  0
    6.5703    0.6478   17.5284 N   0  0  0  0  0  0  0  0  0  0  0  0
    5.4162    1.2766   17.7978 C   0  0  0  0  0  0  0  0  0  0  0  0
    4.9602    1.8106   16.9647 H   0  0  0  0  0  0  0  0  0  0  0  0
    4.8067    1.2601   19.0592 C   0  0  0  0  0  0  0  0  0  0  0  0
    3.8712    1.7924   19.2038 H   0  0  0  0  0  0  0  0  0  0  0  0
    5.4404    0.5904   20.1105 C   0  0  0  0  0  0  0  0  0  0  0  0
    4.9899    0.5652   21.1065 H   0  0  0  0  0  0  0  0  0  0  0  0
  1  2  1  0
  2  3  2  0
  3  4  1  0
  4  5  1  0
  4  6  1  0
  4  7  1  0
  7  8  1  0
  7  9  1  0
  7 10  1  0
 10 11  1  0
 11 12  1  0
 11 13  1  0
 11 14  1  0
 14 15  1  0
 14 16  1  0
 14 17  1  0
 17 18  1  0
 17 19  1  0
 17 20  1  0
 20 21  1  6
 20 22  1  0
 22 23  1  0
 22 24  1  0
 22 25  1  0
  3 26  1  0
 26 27  1  0
 26 28  1  0
 28 29  2  0
 28 30  1  0
 30 31  1  0
 30 32  1  0
 32 33  1  6
 32 34  1  0
 34 35  2  0
 35 36  1  0
 35 37  1  0
 37 38  2  0
 38 39  1  0
 38 40  1  0
 40 41  1  0
 40 42  2  0
 42 43  1  0
 32  2  1  0
 42 34  1  0
 20 10  1  0
M  END
>  <cnnaffinity>  (1) 
-4.68047

>  <filename>  (1) 
C[C@@H]1CCCN1CCC1=C[C@H](c2cccnc2)NC(=S)N1

$$$$
