
     RDKit          3D

 28 29  0  0  0  0  0  0  0  0999 V2000
    7.4547   -0.1828   25.9638 H   0  0  0  0  0  0  0  0  0  0  0  0
    8.1553   -0.4560   25.1807 C   0  0  0  0  0  0  0  0  0  0  0  0
    9.4750   -0.1370   25.2487 N   0  0  0  0  0  0  0  0  0  0  0  0
    9.9489   -0.6854   24.1509 C   0  0  0  0  0  0  0  0  0  0  0  0
   10.9641   -0.6349   23.7846 H   0  0  0  0  0  0  0  0  0  0  0  0
    8.9702   -1.3135   23.4713 N   0  0  0  0  0  0  0  0  0  0  0  0
    9.0370   -1.9590   22.1714 C   0  0  0  0  0  0  0  0  0  0  0  0
   10.0460   -2.3525   22.0590 H   0  0  0  0  0  0  0  0  0  0  0  0
    8.3446   -2.7995   22.1867 H   0  0  0  0  0  0  0  0  0  0  0  0
    8.7233   -1.0479   20.9719 C   0  0  1  0  0  0  0  0  0  0  0  0
    8.9371   -1.6373   20.0686 H   0  0  0  0  0  0  0  0  0  0  0  0
    7.3110   -0.7163   20.9562 N   0  0  0  0  0  0  0  0  0  0  0  0
    6.7921   -0.8434   21.8182 H   0  0  0  0  0  0  0  0  0  0  0  0
    6.6774   -0.0248   19.9299 C   0  0  0  0  0  0  0  0  0  0  0  0
    7.1745    0.0555   18.5954 C   0  0  0  0  0  0  0  0  0  0  0  0
    8.1216   -0.4219   18.3566 H   0  0  0  0  0  0  0  0  0  0  0  0
    6.5616    0.6772   17.5765 N   0  0  0  0  0  0  0  0  0  0  0  0
    5.3998    1.2934   17.8395 C   0  0  0  0  0  0  0  0  0  0  0  0
    4.9163    1.7859   16.9969 H   0  0  0  0  0  0  0  0  0  0  0  0
    4.8214    1.2972   19.1142 C   0  0  0  0  0  0  0  0  0  0  0  0
    3.8918    1.8298   19.2659 H   0  0  0  0  0  0  0  0  0  0  0  0
    5.4490    0.6279   20.1704 C   0  0  0  0  0  0  0  0  0  0  0  0
    5.0154    0.6227   21.1728 H   0  0  0  0  0  0  0  0  0  0  0  0
    9.6300    0.1889   20.9522 C   0  0  0  0  0  0  0  0  0  0  0  0
    9.3773    0.8625   21.7760 H   0  0  0  0  0  0  0  0  0  0  0  0
    9.5093    0.7399   20.0176 H   0  0  0  0  0  0  0  0  0  0  0  0
   10.6821   -0.0974   21.0481 H   0  0  0  0  0  0  0  0  0  0  0  0
    7.7992   -1.1470   24.1135 N   0  0  0  0  0  0  0  0  0  0  0  0
  1  2  1  0
  2  3  1  0
  3  4  2  0
  4  5  1  0
  4  6  1  0
  6  7  1  0
  7  8  1  0
  7  9  1  0
  7 10  1  0
 10 11  1  6
 10 12  1  0
 12 13  1  0
 12 14  1  0
 14 15  2  0
 15 16  1  0
 15 17  1  0
 17 18  2  0
 18 19  1  0
 18 20  1  0
 20 21  1  0
 20 22  2  0
 22 23  1  0
 10 24  1  0
 24 25  1  0
 24 26  1  0
 24 27  1  0
  6 28  1  0
 28  2  2  0
 22 14  1  0
M  END
>  <cnnaffinity>  (1) 
-4.7652

>  <filename>  (1) 
C[C@@H](Cn1cncn1)Nc1cccnc1

$$$$
