
     RDKit          3D

 33 34  0  0  0  0  0  0  0  0999 V2000
    8.8690    0.9182   21.1223 H   0  0  0  0  0  0  0  0  0  0  0  0
    8.8217   -0.0476   21.1022 O   0  0  0  0  0  0  0  0  0  0  0  0
    7.4302   -0.3217   21.3101 C   0  0  2  0  0  0  0  0  0  0  0  0
    6.6635    0.3536   20.1632 C   0  0  0  0  0  0  0  0  0  0  0  0
    7.2336    0.2687   18.8776 C   0  0  0  0  0  0  0  0  0  0  0  0
    8.2219   -0.1733   18.7692 H   0  0  0  0  0  0  0  0  0  0  0  0
    6.6688    0.7309   17.7543 N   0  0  0  0  0  0  0  0  0  0  0  0
    5.4880    1.3515   17.8784 C   0  0  0  0  0  0  0  0  0  0  0  0
    5.0480    1.7324   16.9586 H   0  0  0  0  0  0  0  0  0  0  0  0
    4.8340    1.5164   19.1026 C   0  0  0  0  0  0  0  0  0  0  0  0
    3.8869    2.0420   19.1368 H   0  0  0  0  0  0  0  0  0  0  0  0
    5.4274    1.0148   20.2661 C   0  0  0  0  0  0  0  0  0  0  0  0
    4.9357    1.1552   21.2311 H   0  0  0  0  0  0  0  0  0  0  0  0
    7.1023    0.2433   22.6958 C   0  0  0  0  0  0  0  0  0  0  0  0
    7.8480   -0.1276   23.4089 H   0  0  0  0  0  0  0  0  0  0  0  0
    7.1662    1.3381   22.6840 H   0  0  0  0  0  0  0  0  0  0  0  0
    6.1172   -0.0361   23.0747 H   0  0  0  0  0  0  0  0  0  0  0  0
    7.3226   -1.8696   21.2616 C   0  0  0  0  0  0  0  0  0  0  0  0
    7.9099   -2.1798   20.3958 H   0  0  0  0  0  0  0  0  0  0  0  0
    7.8371   -2.2823   22.1394 H   0  0  0  0  0  0  0  0  0  0  0  0
    5.8859   -2.4204   21.1455 C   0  0  0  0  0  0  0  0  0  0  0  0
    5.4033   -1.8557   20.3433 H   0  0  0  0  0  0  0  0  0  0  0  0
    5.3412   -2.1838   22.0612 H   0  0  0  0  0  0  0  0  0  0  0  0
    5.7173   -3.8942   20.8588 C   0  0  0  0  0  0  0  0  0  0  0  0
    5.7514   -4.4092   19.5519 C   0  0  0  0  0  0  0  0  0  0  0  0
    5.8934   -3.7686   18.6841 H   0  0  0  0  0  0  0  0  0  0  0  0
    5.5822   -5.7834   19.3649 C   0  0  0  0  0  0  0  0  0  0  0  0
    5.6283   -6.2321   18.3739 H   0  0  0  0  0  0  0  0  0  0  0  0
    5.3371   -6.6373   20.3611 N   0  0  0  0  0  0  0  0  0  0  0  0
    5.2896   -6.1538   21.6046 C   0  0  0  0  0  0  0  0  0  0  0  0
    5.1032   -6.8829   22.3915 H   0  0  0  0  0  0  0  0  0  0  0  0
    5.4639   -4.7992   21.8986 C   0  0  0  0  0  0  0  0  0  0  0  0
    5.4103   -4.4582   22.9278 H   0  0  0  0  0  0  0  0  0  0  0  0
  1  2  1  0
  3  2  1  6
  3  4  1  0
  4  5  2  0
  5  6  1  0
  5  7  1  0
  7  8  2  0
  8  9  1  0
  8 10  1  0
 10 11  1  0
 10 12  2  0
 12 13  1  0
  3 14  1  0
 14 15  1  0
 14 16  1  0
 14 17  1  0
  3 18  1  0
 18 19  1  0
 18 20  1  0
 18 21  1  0
 21 22  1  0
 21 23  1  0
 21 24  1  0
 24 25  2  0
 25 26  1  0
 25 27  1  0
 27 28  1  0
 27 29  2  0
 29 30  1  0
 30 31  1  0
 30 32  2  0
 32 33  1  0
 12  4  1  0
 32 24  1  0
M  END
>  <cnnaffinity>  (1) 
-4.77659

>  <filename>  (1) 
C[C@@](O)(CCc1ccncc1)c1cccnc1

$$$$
