
     RDKit          3D

 37 39  0  0  0  0  0  0  0  0999 V2000
    4.9282    1.7877   16.9930 H   0  0  0  0  0  0  0  0  0  0  0  0
    5.4024    1.2935   17.8370 C   0  0  0  0  0  0  0  0  0  0  0  0
    6.5658    0.6776   17.5774 N   0  0  0  0  0  0  0  0  0  0  0  0
    7.1629    0.0430   18.5920 C   0  0  0  0  0  0  0  0  0  0  0  0
    8.1136   -0.4388   18.3756 H   0  0  0  0  0  0  0  0  0  0  0  0
    6.6442   -0.0011   19.8966 C   0  0  0  0  0  0  0  0  0  0  0  0
    7.3973   -0.7021   20.9449 C   0  0  0  0  0  0  0  0  0  0  0  0
    7.8716   -1.9669   20.7190 N   0  0  0  0  0  0  0  0  0  0  0  0
    8.4652   -2.5059   21.7077 N   0  0  0  0  0  0  0  0  0  0  0  0
    8.5107   -1.4489   23.0348 S   0  0  0  0  0  0  0  0  0  0  0  0
    7.6892   -0.2085   22.1965 C   0  0  0  0  0  0  0  0  0  0  0  0
    7.3899    1.1325   22.8030 C   0  0  0  0  0  0  0  0  0  0  0  0
    8.3156    1.5647   23.2021 H   0  0  0  0  0  0  0  0  0  0  0  0
    7.0498    1.8249   22.0264 H   0  0  0  0  0  0  0  0  0  0  0  0
    6.3342    1.0955   23.9149 C   0  0  0  0  0  0  0  0  0  0  0  0
    5.4194    0.6362   23.5226 H   0  0  0  0  0  0  0  0  0  0  0  0
    6.6793    0.4215   24.7195 H   0  0  0  0  0  0  0  0  0  0  0  0
    5.9827    2.4169   24.4165 N   0  0  0  0  0  0  0  0  0  0  0  0
    4.7774    2.4118   25.2445 C   0  0  0  0  0  0  0  0  0  0  0  0
    4.7181    1.5101   25.8827 H   0  0  0  0  0  0  0  0  0  0  0  0
    3.8821    2.3895   24.6099 H   0  0  0  0  0  0  0  0  0  0  0  0
    4.8499    3.6782   26.1180 C   0  0  0  0  0  0  0  0  0  0  0  0
    4.0466    4.3822   25.8862 H   0  0  0  0  0  0  0  0  0  0  0  0
    4.7344    3.4146   27.1748 H   0  0  0  0  0  0  0  0  0  0  0  0
    6.2307    4.2888   25.8196 C   0  0  0  0  0  0  0  0  0  0  0  0
    6.1475    5.1559   25.1590 H   0  0  0  0  0  0  0  0  0  0  0  0
    6.7421    4.6329   26.7239 H   0  0  0  0  0  0  0  0  0  0  0  0
    7.0286    3.1736   25.1231 C   0  0  1  0  0  0  0  0  0  0  0  0
    7.7252    3.6168   24.3954 H   0  0  0  0  0  0  0  0  0  0  0  0
    7.8437    2.3408   26.1195 C   0  0  0  0  0  0  0  0  0  0  0  0
    7.1773    1.7959   26.7976 H   0  0  0  0  0  0  0  0  0  0  0  0
    8.4879    2.9902   26.7207 H   0  0  0  0  0  0  0  0  0  0  0  0
    8.4742    1.6068   25.6076 H   0  0  0  0  0  0  0  0  0  0  0  0
    5.4302    0.6491   20.1523 C   0  0  0  0  0  0  0  0  0  0  0  0
    4.9987    0.6382   21.1570 H   0  0  0  0  0  0  0  0  0  0  0  0
    4.7988    1.3081   19.0991 C   0  0  0  0  0  0  0  0  0  0  0  0
    3.8718    1.8431   19.2522 H   0  0  0  0  0  0  0  0  0  0  0  0
  1  2  1  0
  2  3  2  0
  3  4  1  0
  4  5  1  0
  4  6  2  0
  6  7  1  0
  7  8  1  0
  8  9  2  0
  9 10  1  0
 10 11  1  0
 11 12  1  0
 12 13  1  0
 12 14  1  0
 12 15  1  0
 15 16  1  0
 15 17  1  0
 15 18  1  0
 18 19  1  0
 19 20  1  0
 19 21  1  0
 19 22  1  0
 22 23  1  0
 22 24  1  0
 22 25  1  0
 25 26  1  0
 25 27  1  0
 25 28  1  0
 28 29  1  6
 28 30  1  0
 30 31  1  0
 30 32  1  0
 30 33  1  0
  6 34  1  0
 34 35  1  0
 34 36  2  0
 36 37  1  0
 36  2  1  0
 11  7  2  0
 28 18  1  0
M  END
>  <cnnaffinity>  (1) 
-4.99276

>  <filename>  (1) 
C[C@@H]1CCCN1CCc1snnc1-c1cccnc1

$$$$
