
     RDKit          3D

 33 35  0  0  0  0  0  0  0  0999 V2000
    6.6793   -1.0908   22.2084 C   0  0  0  0  0  0  0  0  0  0  0  0
    7.4423   -0.7064   20.9550 C   0  0  2  0  0  0  0  0  0  0  0  0
    8.5979    0.1228   21.2893 N   0  0  0  0  0  0  0  0  0  0  0  0
    8.6194    1.4049   21.8441 C   0  0  0  0  0  0  0  0  0  0  0  0
    7.4217    1.9833   22.0276 N   0  0  0  0  0  0  0  0  0  0  0  0
    7.3981    3.2324   22.5192 C   0  0  0  0  0  0  0  0  0  0  0  0
    8.5528    3.9427   22.8610 C   0  0  0  0  0  0  0  0  0  0  0  0
    9.8093    3.3556   22.6891 C   0  0  0  0  0  0  0  0  0  0  0  0
   10.9817    4.0414   23.0147 C   0  0  0  0  0  0  0  0  0  0  0  0
   12.2081    3.4040   22.8138 C   0  0  0  0  0  0  0  0  0  0  0  0
   13.8490    4.2857   23.2347 Br  0  0  0  0  0  0  0  0  0  0  0  0
   12.2175    2.1039   22.2908 C   0  0  0  0  0  0  0  0  0  0  0  0
   11.0944    1.4443   21.9721 N   0  0  0  0  0  0  0  0  0  0  0  0
    9.8743    2.0444   22.1611 C   0  0  0  0  0  0  0  0  0  0  0  0
   13.1602    1.5903   22.1351 H   0  0  0  0  0  0  0  0  0  0  0  0
   10.9493    5.0565   23.4117 H   0  0  0  0  0  0  0  0  0  0  0  0
    8.4669    4.9529   23.2552 H   0  0  0  0  0  0  0  0  0  0  0  0
    6.4486    3.7318   22.6730 H   0  0  0  0  0  0  0  0  0  0  0  0
    9.5023   -0.3024   21.1706 H   0  0  0  0  0  0  0  0  0  0  0  0
    6.6635    0.0238   19.9098 C   0  0  0  0  0  0  0  0  0  0  0  0
    5.4450    0.6525   20.1727 C   0  0  0  0  0  0  0  0  0  0  0  0
    4.8230    1.3014   19.1075 C   0  0  0  0  0  0  0  0  0  0  0  0
    5.4060    1.2890   17.8343 C   0  0  0  0  0  0  0  0  0  0  0  0
    6.5738    0.6722   17.5884 N   0  0  0  0  0  0  0  0  0  0  0  0
    7.1935    0.0700   18.6161 C   0  0  0  0  0  0  0  0  0  0  0  0
    8.1324   -0.4318   18.4085 H   0  0  0  0  0  0  0  0  0  0  0  0
    4.8922    1.7941   17.0188 H   0  0  0  0  0  0  0  0  0  0  0  0
    3.8885    1.8259   19.2599 H   0  0  0  0  0  0  0  0  0  0  0  0
    5.0056    0.6413   21.1715 H   0  0  0  0  0  0  0  0  0  0  0  0
    7.7914   -1.6510   20.5126 H   0  0  0  0  0  0  0  0  0  0  0  0
    5.7907   -1.6628   21.9281 H   0  0  0  0  0  0  0  0  0  0  0  0
    6.3754   -0.2031   22.7702 H   0  0  0  0  0  0  0  0  0  0  0  0
    7.3017   -1.7227   22.8539 H   0  0  0  0  0  0  0  0  0  0  0  0
  1  2  1  0
  2  3  1  0
  3  4  1  0
  4  5  2  0
  5  6  1  0
  6  7  2  0
  7  8  1  0
  8  9  2  0
  9 10  1  0
 10 11  1  0
 10 12  2  0
 12 13  1  0
 13 14  2  0
 12 15  1  0
  9 16  1  0
  7 17  1  0
  6 18  1  0
  3 19  1  0
  2 20  1  0
 20 21  2  0
 21 22  1  0
 22 23  2  0
 23 24  1  0
 24 25  2  0
 25 26  1  0
 23 27  1  0
 22 28  1  0
 21 29  1  0
  2 30  1  6
  1 31  1  0
  1 32  1  0
  1 33  1  0
 14  4  1  0
 25 20  1  0
 14  8  1  0
M  END
>  <cnnaffinity>  (1) 
-4.99732

>  <filename>  (1) 
C[C@H](Nc1nccc2cc(Br)cnc12)c1cccnc1

$$$$
