
     RDKit          3D

 34 35  0  0  0  0  0  0  0  0999 V2000
    8.7895   -2.5282   25.4611 H   0  0  0  0  0  0  0  0  0  0  0  0
    8.3262   -3.0088   24.6041 C   0  0  0  0  0  0  0  0  0  0  0  0
    7.7252   -2.2044   23.7209 N   0  0  0  0  0  0  0  0  0  0  0  0
    7.1336   -2.7327   22.6458 C   0  0  0  0  0  0  0  0  0  0  0  0
    6.4871   -1.7314   21.7217 C   0  0  0  0  0  0  0  0  0  0  0  0
    5.8519   -2.2187   20.9820 H   0  0  0  0  0  0  0  0  0  0  0  0
    5.8611   -1.1105   22.3382 H   0  0  0  0  0  0  0  0  0  0  0  0
    7.4283   -0.7091   21.0427 C   0  0  2  0  0  0  0  0  0  0  0  0
    6.6586   -0.0224   19.9198 C   0  0  0  0  0  0  0  0  0  0  0  0
    7.1723    0.0474   18.6177 C   0  0  0  0  0  0  0  0  0  0  0  0
    8.1233   -0.4203   18.3867 H   0  0  0  0  0  0  0  0  0  0  0  0
    6.5679    0.6713   17.5922 N   0  0  0  0  0  0  0  0  0  0  0  0
    5.4069    1.2868   17.8410 C   0  0  0  0  0  0  0  0  0  0  0  0
    4.9276    1.7804   16.9969 H   0  0  0  0  0  0  0  0  0  0  0  0
    4.8095    1.3046   19.1052 C   0  0  0  0  0  0  0  0  0  0  0  0
    3.8808    1.8373   19.2570 H   0  0  0  0  0  0  0  0  0  0  0  0
    5.4409    0.6412   20.1565 C   0  0  0  0  0  0  0  0  0  0  0  0
    4.9903    0.6444   21.1501 H   0  0  0  0  0  0  0  0  0  0  0  0
    8.5917   -1.3936   20.5163 N   0  0  0  0  0  0  0  0  0  0  0  0
    9.1004   -1.7443   21.3234 H   0  0  0  0  0  0  0  0  0  0  0  0
    8.2428   -2.2149   20.0272 H   0  0  0  0  0  0  0  0  0  0  0  0
    7.9020    0.3821   22.0169 C   0  0  0  0  0  0  0  0  0  0  0  0
    8.5320   -0.0284   22.8069 H   0  0  0  0  0  0  0  0  0  0  0  0
    8.4599    1.1384   21.4611 H   0  0  0  0  0  0  0  0  0  0  0  0
    7.0483    0.8837   22.4899 H   0  0  0  0  0  0  0  0  0  0  0  0
    7.1062   -4.1333   22.4592 C   0  0  0  0  0  0  0  0  0  0  0  0
    6.3459   -4.7198   21.3183 C   0  0  0  0  0  0  0  0  0  0  0  0
    5.0281   -4.4485   21.4022 F   0  0  0  0  0  0  0  0  0  0  0  0
    6.4754   -6.0568   21.2505 F   0  0  0  0  0  0  0  0  0  0  0  0
    6.7428   -4.2372   20.1262 F   0  0  0  0  0  0  0  0  0  0  0  0
    7.7625   -4.9731   23.3647 C   0  0  0  0  0  0  0  0  0  0  0  0
    7.7677   -6.0548   23.2072 H   0  0  0  0  0  0  0  0  0  0  0  0
    8.3851   -4.3931   24.4580 C   0  0  0  0  0  0  0  0  0  0  0  0
    8.9019   -5.0002   25.1891 H   0  0  0  0  0  0  0  0  0  0  0  0
  1  2  1  0
  2  3  2  0
  3  4  1  0
  4  5  1  0
  5  6  1  0
  5  7  1  0
  5  8  1  0
  8  9  1  0
  9 10  2  0
 10 11  1  0
 10 12  1  0
 12 13  2  0
 13 14  1  0
 13 15  1  0
 15 16  1  0
 15 17  2  0
 17 18  1  0
  8 19  1  6
 19 20  1  0
 19 21  1  0
  8 22  1  0
 22 23  1  0
 22 24  1  0
 22 25  1  0
  4 26  2  0
 26 27  1  0
 27 28  1  0
 27 29  1  0
 27 30  1  0
 26 31  1  0
 31 32  1  0
 31 33  2  0
 33 34  1  0
 33  2  1  0
 17  9  1  0
M  END
>  <cnnaffinity>  (1) 
-5.11665

>  <filename>  (1) 
C[C@@](N)(Cc1ncccc1C(F)(F)F)c1cccnc1

$$$$
