
     RDKit          3D

 36 37  0  0  0  0  0  0  0  0999 V2000
   12.0111    1.0781   25.4879 H   0  0  0  0  0  0  0  0  0  0  0  0
   12.1114    1.0325   24.5318 O   0  0  0  0  0  0  0  0  0  0  0  0
   10.9269    1.5577   23.9553 C   0  0  0  0  0  0  0  0  0  0  0  0
   10.7857    2.6139   24.2397 H   0  0  0  0  0  0  0  0  0  0  0  0
   10.0392    1.0089   24.3107 H   0  0  0  0  0  0  0  0  0  0  0  0
   11.0183    1.4672   22.4285 C   0  0  0  0  0  0  0  0  0  0  0  0
   11.9465    1.9841   22.1463 H   0  0  0  0  0  0  0  0  0  0  0  0
   11.0902    0.0181   21.9040 C   0  0  0  0  0  0  0  0  0  0  0  0
   11.8307   -0.5427   22.4796 H   0  0  0  0  0  0  0  0  0  0  0  0
   11.4311    0.0187   20.8667 H   0  0  0  0  0  0  0  0  0  0  0  0
    9.7449   -0.7027   21.9530 C   0  0  0  0  0  0  0  0  0  0  0  0
    9.8450   -1.6940   21.5061 H   0  0  0  0  0  0  0  0  0  0  0  0
    9.4638   -0.8657   23.0091 H   0  0  0  0  0  0  0  0  0  0  0  0
    8.7221    0.0522   21.2122 N   0  0  0  0  0  0  0  0  0  0  0  0
    7.4768   -0.6835   20.9840 C   0  0  2  0  0  0  0  0  0  0  0  0
    7.8190   -1.9375   20.4723 F   0  0  0  0  0  0  0  0  0  0  0  0
    6.6542    0.0191   19.9212 C   0  0  0  0  0  0  0  0  0  0  0  0
    7.1793    0.0688   18.6225 C   0  0  0  0  0  0  0  0  0  0  0  0
    8.1172   -0.4269   18.3890 H   0  0  0  0  0  0  0  0  0  0  0  0
    6.5730    0.6717   17.5930 N   0  0  0  0  0  0  0  0  0  0  0  0
    5.4087    1.2889   17.8396 C   0  0  0  0  0  0  0  0  0  0  0  0
    4.9269    1.7783   16.9954 H   0  0  0  0  0  0  0  0  0  0  0  0
    4.8046    1.3091   19.1022 C   0  0  0  0  0  0  0  0  0  0  0  0
    3.8734    1.8427   19.2549 H   0  0  0  0  0  0  0  0  0  0  0  0
    5.4326    0.6534   20.1625 C   0  0  0  0  0  0  0  0  0  0  0  0
    4.9833    0.6447   21.1582 H   0  0  0  0  0  0  0  0  0  0  0  0
    6.6937   -0.9963   22.2559 C   0  0  0  0  0  0  0  0  0  0  0  0
    5.7921   -1.5463   21.9769 H   0  0  0  0  0  0  0  0  0  0  0  0
    7.2885   -1.6282   22.9201 H   0  0  0  0  0  0  0  0  0  0  0  0
    6.4166   -0.0833   22.7859 H   0  0  0  0  0  0  0  0  0  0  0  0
    8.5342    1.3847   21.8110 C   0  0  0  0  0  0  0  0  0  0  0  0
    7.7468    1.9230   21.2722 H   0  0  0  0  0  0  0  0  0  0  0  0
    8.1992    1.3305   22.8653 H   0  0  0  0  0  0  0  0  0  0  0  0
    9.8374    2.1860   21.7485 C   0  0  0  0  0  0  0  0  0  0  0  0
    9.6789    3.1741   22.1928 H   0  0  0  0  0  0  0  0  0  0  0  0
   10.0818    2.3679   20.7024 H   0  0  0  0  0  0  0  0  0  0  0  0
  1  2  1  0
  2  3  1  0
  3  4  1  0
  3  5  1  0
  3  6  1  0
  6  7  1  0
  6  8  1  0
  8  9  1  0
  8 10  1  0
  8 11  1  0
 11 12  1  0
 11 13  1  0
 11 14  1  0
 14 15  1  0
 15 16  1  6
 15 17  1  0
 17 18  2  0
 18 19  1  0
 18 20  1  0
 20 21  2  0
 21 22  1  0
 21 23  1  0
 23 24  1  0
 23 25  2  0
 25 26  1  0
 15 27  1  0
 27 28  1  0
 27 29  1  0
 27 30  1  0
 14 31  1  0
 31 32  1  0
 31 33  1  0
 31 34  1  0
 34 35  1  0
 34 36  1  0
 34  6  1  0
 25 17  1  0
M  END
>  <cnnaffinity>  (1) 
-4.64392

>  <filename>  (1) 
C[C@@](F)(c1cccnc1)N1CCC(CO)CC1

$$$$
