
     RDKit          3D

 26 27  0  0  0  0  0  0  0  0999 V2000
    5.8027    2.3707   24.9815 H   0  0  0  0  0  0  0  0  0  0  0  0
    6.3352    2.3611   24.0395 C   0  0  0  0  0  0  0  0  0  0  0  0
    6.9670    1.2102   23.6440 N   0  0  0  0  0  0  0  0  0  0  0  0
    7.5701    1.3751   22.5054 C   0  0  0  0  0  0  0  0  0  0  0  0
    8.3283    0.2888   21.7941 C   0  0  0  0  0  0  0  0  0  0  0  0
    9.0362    0.7581   21.1118 H   0  0  0  0  0  0  0  0  0  0  0  0
    8.9045   -0.2622   22.5443 H   0  0  0  0  0  0  0  0  0  0  0  0
    7.4606   -0.7145   20.9818 C   0  0  2  0  0  0  0  0  0  0  0  0
    8.1582   -1.3970   20.4768 H   0  0  0  0  0  0  0  0  0  0  0  0
    6.6607   -0.0040   19.9021 C   0  0  0  0  0  0  0  0  0  0  0  0
    7.1632    0.0682   18.5929 C   0  0  0  0  0  0  0  0  0  0  0  0
    8.1061   -0.4201   18.3561 H   0  0  0  0  0  0  0  0  0  0  0  0
    6.5630    0.6840   17.5696 N   0  0  0  0  0  0  0  0  0  0  0  0
    5.4014    1.2958   17.8330 C   0  0  0  0  0  0  0  0  0  0  0  0
    4.9168    1.7870   16.9924 H   0  0  0  0  0  0  0  0  0  0  0  0
    4.8089    1.3046   19.1019 C   0  0  0  0  0  0  0  0  0  0  0  0
    3.8782    1.8406   19.2584 H   0  0  0  0  0  0  0  0  0  0  0  0
    5.4422    0.6401   20.1549 C   0  0  0  0  0  0  0  0  0  0  0  0
    5.0084    0.6397   21.1603 H   0  0  0  0  0  0  0  0  0  0  0  0
    6.5828   -1.5775   21.8805 C   0  0  0  0  0  0  0  0  0  0  0  0
    7.1817   -2.1902   22.5611 H   0  0  0  0  0  0  0  0  0  0  0  0
    5.9822   -0.9262   22.5098 H   0  0  0  0  0  0  0  0  0  0  0  0
    5.9274   -2.2314   21.2946 H   0  0  0  0  0  0  0  0  0  0  0  0
    7.4040    2.9775   21.8452 S   0  0  0  0  0  0  0  0  0  0  0  0
    6.4443    3.4173   23.1949 C   0  0  0  0  0  0  0  0  0  0  0  0
    6.0322    4.4078   23.3149 H   0  0  0  0  0  0  0  0  0  0  0  0
  1  2  1  0
  2  3  1  0
  3  4  2  0
  4  5  1  0
  5  6  1  0
  5  7  1  0
  5  8  1  0
  8  9  1  6
  8 10  1  0
 10 11  2  0
 11 12  1  0
 11 13  1  0
 13 14  2  0
 14 15  1  0
 14 16  1  0
 16 17  1  0
 16 18  2  0
 18 19  1  0
  8 20  1  0
 20 21  1  0
 20 22  1  0
 20 23  1  0
  4 24  1  0
 24 25  1  0
 25 26  1  0
 25  2  2  0
 18 10  1  0
M  END
>  <cnnaffinity>  (1) 
-4.43148

>  <filename>  (1) 
C[C@H](Cc1nccs1)c1cccnc1

$$$$
