
     RDKit          3D

 40 41  0  0  0  0  0  0  0  0999 V2000
    6.7199   -2.0092   21.4000 C   0  0  0  0  0  0  0  0  0  0  0  0
    7.4334   -0.7255   20.9860 C   0  0  2  0  0  0  0  0  0  0  0  0
    7.7365    0.0629   22.1752 N   0  0  0  0  0  0  0  0  0  0  0  0
    8.3965    1.2668   22.0179 C   0  0  0  0  0  0  0  0  0  0  0  0
    8.9960    1.5933   21.0121 O   0  0  0  0  0  0  0  0  0  0  0  0
    8.2745    2.0279   23.1707 N   0  0  0  0  0  0  0  0  0  0  0  0
    9.2206    3.1334   23.3509 C   0  0  0  0  0  0  0  0  0  0  0  0
   10.6590    2.6719   23.5565 C   0  0  0  0  0  0  0  0  0  0  0  0
   11.0719    1.6255   24.2910 C   0  0  0  0  0  0  0  0  0  0  0  0
   10.2194    0.8362   25.2280 C   0  0  0  0  0  0  0  0  0  0  0  0
    9.3201    1.4724   26.1033 C   0  0  0  0  0  0  0  0  0  0  0  0
    8.4793    0.7256   26.9377 C   0  0  0  0  0  0  0  0  0  0  0  0
    8.5210   -0.6688   26.9126 C   0  0  0  0  0  0  0  0  0  0  0  0
    9.4098   -1.3187   26.0512 C   0  0  0  0  0  0  0  0  0  0  0  0
   10.2625   -0.5712   25.2284 C   0  0  0  0  0  0  0  0  0  0  0  0
   10.9283   -1.0784   24.5365 H   0  0  0  0  0  0  0  0  0  0  0  0
    9.4951   -2.4025   26.0766 H   0  0  0  0  0  0  0  0  0  0  0  0
    7.8856   -1.2449   27.5805 H   0  0  0  0  0  0  0  0  0  0  0  0
    7.8090    1.2315   27.6240 H   0  0  0  0  0  0  0  0  0  0  0  0
    9.2760    2.5589   26.1168 H   0  0  0  0  0  0  0  0  0  0  0  0
   12.1047    1.2895   24.1610 H   0  0  0  0  0  0  0  0  0  0  0  0
   11.3996    3.2039   22.9587 H   0  0  0  0  0  0  0  0  0  0  0  0
    9.1837    3.7671   22.4580 H   0  0  0  0  0  0  0  0  0  0  0  0
    8.8672    3.7663   24.1831 H   0  0  0  0  0  0  0  0  0  0  0  0
    8.2426    1.3951   23.9507 H   0  0  0  0  0  0  0  0  0  0  0  0
    6.9626    0.1628   22.8120 H   0  0  0  0  0  0  0  0  0  0  0  0
    6.6678    0.0530   19.9218 C   0  0  0  0  0  0  0  0  0  0  0  0
    5.4511    0.7171   20.1430 C   0  0  0  0  0  0  0  0  0  0  0  0
    4.8165    1.3366   19.0625 C   0  0  0  0  0  0  0  0  0  0  0  0
    5.4273    1.2858   17.8032 C   0  0  0  0  0  0  0  0  0  0  0  0
    6.5966    0.6733   17.5722 N   0  0  0  0  0  0  0  0  0  0  0  0
    7.1908    0.0933   18.6233 C   0  0  0  0  0  0  0  0  0  0  0  0
    8.1536   -0.3803   18.4206 H   0  0  0  0  0  0  0  0  0  0  0  0
    4.9619    1.7579   16.9414 H   0  0  0  0  0  0  0  0  0  0  0  0
    3.8761    1.8639   19.1838 H   0  0  0  0  0  0  0  0  0  0  0  0
    5.0066    0.7651   21.1407 H   0  0  0  0  0  0  0  0  0  0  0  0
    8.3949   -1.0002   20.5375 H   0  0  0  0  0  0  0  0  0  0  0  0
    7.2770   -2.5096   22.1981 H   0  0  0  0  0  0  0  0  0  0  0  0
    5.7087   -1.8021   21.7676 H   0  0  0  0  0  0  0  0  0  0  0  0
    6.6326   -2.6994   20.5539 H   0  0  0  0  0  0  0  0  0  0  0  0
  1  2  1  0
  2  3  1  0
  3  4  1  0
  4  5  2  0
  4  6  1  0
  6  7  1  0
  7  8  1  0
  8  9  2  3
  9 10  1  0
 10 11  2  0
 11 12  1  0
 12 13  2  0
 13 14  1  0
 14 15  2  0
 15 16  1  0
 14 17  1  0
 13 18  1  0
 12 19  1  0
 11 20  1  0
  9 21  1  0
  8 22  1  0
  7 23  1  0
  7 24  1  0
  6 25  1  0
  3 26  1  0
  2 27  1  0
 27 28  2  0
 28 29  1  0
 29 30  2  0
 30 31  1  0
 31 32  2  0
 32 33  1  0
 30 34  1  0
 29 35  1  0
 28 36  1  0
  2 37  1  6
  1 38  1  0
  1 39  1  0
  1 40  1  0
 15 10  1  0
 32 27  1  0
M  END
>  <cnnaffinity>  (1) 
-4.88696

>  <filename>  (1) 
C[C@H](NC(=O)NCC=Cc1ccccc1)c1cccnc1

$$$$
