
     RDKit          3D

 31 32  0  0  0  0  0  0  0  0999 V2000
    4.9150    1.7884   16.9978 H   0  0  0  0  0  0  0  0  0  0  0  0
    5.3944    1.2962   17.8401 C   0  0  0  0  0  0  0  0  0  0  0  0
    6.5533    0.6754   17.5666 N   0  0  0  0  0  0  0  0  0  0  0  0
    7.1737    0.0619   18.5799 C   0  0  0  0  0  0  0  0  0  0  0  0
    8.1198   -0.4184   18.3637 H   0  0  0  0  0  0  0  0  0  0  0  0
    6.6744   -0.0026   19.9058 C   0  0  0  0  0  0  0  0  0  0  0  0
    7.3711   -0.6917   20.9376 N   0  0  0  0  0  0  0  0  0  0  0  0
    6.8228   -1.0981   21.6802 H   0  0  0  0  0  0  0  0  0  0  0  0
    8.7438   -0.6665   21.1105 C   0  0  0  0  0  0  0  0  0  0  0  0
    9.4387    0.0777   20.4461 O   0  0  0  0  0  0  0  0  0  0  0  0
    9.3140   -1.6330   22.1705 C   0  0  2  0  0  0  0  0  0  0  0  0
    8.7227   -2.5558   22.1247 H   0  0  0  0  0  0  0  0  0  0  0  0
    9.1864   -1.0162   23.5507 C   0  0  0  0  0  0  0  0  0  0  0  0
    9.7543    0.2462   23.7764 C   0  0  0  0  0  0  0  0  0  0  0  0
   10.2436    0.7557   22.9492 H   0  0  0  0  0  0  0  0  0  0  0  0
    9.6917    0.8487   25.0294 C   0  0  0  0  0  0  0  0  0  0  0  0
   10.1221    1.8309   25.1863 H   0  0  0  0  0  0  0  0  0  0  0  0
    9.0635    0.1955   26.0888 C   0  0  0  0  0  0  0  0  0  0  0  0
    8.9889    0.6459   27.0737 H   0  0  0  0  0  0  0  0  0  0  0  0
    8.5113   -1.0709   25.8897 C   0  0  0  0  0  0  0  0  0  0  0  0
    7.7445   -1.8481   27.2328 Cl  0  0  0  0  0  0  0  0  0  0  0  0
    8.5767   -1.6854   24.6274 C   0  0  0  0  0  0  0  0  0  0  0  0
    7.9030   -3.2735   24.4135 Cl  0  0  0  0  0  0  0  0  0  0  0  0
   10.7808   -1.9917   21.8634 C   0  0  0  0  0  0  0  0  0  0  0  0
   10.8451   -2.4054   20.8612 H   0  0  0  0  0  0  0  0  0  0  0  0
   11.1730   -2.7190   22.5828 H   0  0  0  0  0  0  0  0  0  0  0  0
   11.4355   -1.1145   21.8625 H   0  0  0  0  0  0  0  0  0  0  0  0
    5.4502    0.6253   20.1705 C   0  0  0  0  0  0  0  0  0  0  0  0
    5.0211    0.6193   21.1744 H   0  0  0  0  0  0  0  0  0  0  0  0
    4.8169    1.2991   19.1153 C   0  0  0  0  0  0  0  0  0  0  0  0
    3.8862    1.8331   19.2671 H   0  0  0  0  0  0  0  0  0  0  0  0
  1  2  1  0
  2  3  2  0
  3  4  1  0
  4  5  1  0
  4  6  2  0
  6  7  1  0
  7  8  1  0
  7  9  1  0
  9 10  2  0
  9 11  1  0
 11 12  1  1
 11 13  1  0
 13 14  2  0
 14 15  1  0
 14 16  1  0
 16 17  1  0
 16 18  2  0
 18 19  1  0
 18 20  1  0
 20 21  1  0
 20 22  2  0
 22 23  1  0
 11 24  1  0
 24 25  1  0
 24 26  1  0
 24 27  1  0
  6 28  1  0
 28 29  1  0
 28 30  2  0
 30 31  1  0
 30  2  1  0
 22 13  1  0
M  END
>  <cnnaffinity>  (1) 
-5.23631

>  <filename>  (1) 
C[C@H](C(=O)Nc1cccnc1)c1cccc(Cl)c1Cl

$$$$
