
     RDKit          3D

 32 33  0  0  0  0  0  0  0  0999 V2000
    4.9248    1.7823   16.9955 H   0  0  0  0  0  0  0  0  0  0  0  0
    5.4055    1.2878   17.8380 C   0  0  0  0  0  0  0  0  0  0  0  0
    6.5653    0.6731   17.5848 N   0  0  0  0  0  0  0  0  0  0  0  0
    7.1721    0.0543   18.6097 C   0  0  0  0  0  0  0  0  0  0  0  0
    8.1236   -0.4119   18.3805 H   0  0  0  0  0  0  0  0  0  0  0  0
    6.6607   -0.0161   19.9114 C   0  0  0  0  0  0  0  0  0  0  0  0
    7.4148   -0.7159   21.0332 C   0  0  1  0  0  0  0  0  0  0  0  0
    8.6487   -1.2880   20.5220 N   0  0  0  0  0  0  0  0  0  0  0  0
    8.3822   -2.0937   19.9608 H   0  0  0  0  0  0  0  0  0  0  0  0
    9.1352   -1.6855   21.3207 H   0  0  0  0  0  0  0  0  0  0  0  0
    7.7892    0.3346   22.0922 C   0  0  0  0  0  0  0  0  0  0  0  0
    6.9036    0.7650   22.5733 H   0  0  0  0  0  0  0  0  0  0  0  0
    8.3227    1.1551   21.6084 H   0  0  0  0  0  0  0  0  0  0  0  0
    8.4368   -0.0804   22.8710 H   0  0  0  0  0  0  0  0  0  0  0  0
    6.4860   -1.8214   21.6195 C   0  0  0  0  0  0  0  0  0  0  0  0
    6.0894   -2.4327   20.8034 H   0  0  0  0  0  0  0  0  0  0  0  0
    5.6414   -1.2740   21.9978 H   0  0  0  0  0  0  0  0  0  0  0  0
    7.0638   -2.6805   22.7174 C   0  0  0  0  0  0  0  0  0  0  0  0
    7.1076   -2.2013   24.0382 C   0  0  0  0  0  0  0  0  0  0  0  0
    6.6733   -1.2290   24.2547 H   0  0  0  0  0  0  0  0  0  0  0  0
    7.7082   -2.9363   25.0606 C   0  0  0  0  0  0  0  0  0  0  0  0
    7.7298   -2.5492   26.0717 H   0  0  0  0  0  0  0  0  0  0  0  0
    8.2692   -4.1812   24.7837 C   0  0  0  0  0  0  0  0  0  0  0  0
    8.7328   -4.7846   25.5568 H   0  0  0  0  0  0  0  0  0  0  0  0
    8.2034   -4.6961   23.4904 C   0  0  0  0  0  0  0  0  0  0  0  0
    8.7529   -6.3114   23.2126 Cl  0  0  0  0  0  0  0  0  0  0  0  0
    7.6105   -3.9513   22.4586 C   0  0  0  0  0  0  0  0  0  0  0  0
    7.5269   -4.6397   20.8683 Cl  0  0  0  0  0  0  0  0  0  0  0  0
    5.4414    0.6397   20.1526 C   0  0  0  0  0  0  0  0  0  0  0  0
    4.9953    0.6451   21.1501 H   0  0  0  0  0  0  0  0  0  0  0  0
    4.8095    1.3041   19.1032 C   0  0  0  0  0  0  0  0  0  0  0  0
    3.8803    1.8383   19.2562 H   0  0  0  0  0  0  0  0  0  0  0  0
  1  2  1  0
  2  3  2  0
  3  4  1  0
  4  5  1  0
  4  6  2  0
  6  7  1  0
  7  8  1  6
  8  9  1  0
  8 10  1  0
  7 11  1  0
 11 12  1  0
 11 13  1  0
 11 14  1  0
  7 15  1  0
 15 16  1  0
 15 17  1  0
 15 18  1  0
 18 19  2  0
 19 20  1  0
 19 21  1  0
 21 22  1  0
 21 23  2  0
 23 24  1  0
 23 25  1  0
 25 26  1  0
 25 27  2  0
 27 28  1  0
  6 29  1  0
 29 30  1  0
 29 31  2  0
 31 32  1  0
 31  2  1  0
 27 18  1  0
M  END
>  <cnnaffinity>  (1) 
-5.07618

>  <filename>  (1) 
C[C@@](N)(Cc1cccc(Cl)c1Cl)c1cccnc1

$$$$
