
     RDKit          3D

 38 39  0  0  0  0  0  0  0  0999 V2000
    6.6888    0.4712   23.3073 H   0  0  0  0  0  0  0  0  0  0  0  0
    7.2176    1.0379   22.7370 O   0  0  0  0  0  0  0  0  0  0  0  0
    8.1418    0.2378   22.0025 C   0  0  2  0  0  0  0  0  0  0  0  0
    8.7137   -0.4120   22.6990 H   0  0  0  0  0  0  0  0  0  0  0  0
    9.1052    1.2021   21.3449 C   0  0  0  0  0  0  0  0  0  0  0  0
    8.5353    1.8713   20.6916 H   0  0  0  0  0  0  0  0  0  0  0  0
    9.8194    0.6591   20.7178 H   0  0  0  0  0  0  0  0  0  0  0  0
    9.8828    2.0187   22.3504 C   0  0  0  0  0  0  0  0  0  0  0  0
   10.3684    1.3705   23.0961 H   0  0  0  0  0  0  0  0  0  0  0  0
    9.2141    2.7095   22.8846 H   0  0  0  0  0  0  0  0  0  0  0  0
   10.8782    2.7131   21.6192 O   0  0  0  0  0  0  0  0  0  0  0  0
   11.6400    3.6281   22.2684 C   0  0  0  0  0  0  0  0  0  0  0  0
   12.4728    4.4011   21.4445 C   0  0  0  0  0  0  0  0  0  0  0  0
   12.4570    4.1901   20.3770 H   0  0  0  0  0  0  0  0  0  0  0  0
   13.2413    5.4088   22.0147 C   0  0  0  0  0  0  0  0  0  0  0  0
   13.8974    5.9925   21.3704 H   0  0  0  0  0  0  0  0  0  0  0  0
   13.1718    5.6559   23.3959 C   0  0  0  0  0  0  0  0  0  0  0  0
   13.6970    6.5025   23.8082 H   0  0  0  0  0  0  0  0  0  0  0  0
   12.3975    4.8335   24.2203 C   0  0  0  0  0  0  0  0  0  0  0  0
   12.3673    4.9541   25.3038 H   0  0  0  0  0  0  0  0  0  0  0  0
   11.6272    3.8133   23.6576 C   0  0  0  0  0  0  0  0  0  0  0  0
   11.0032    3.1706   24.2742 H   0  0  0  0  0  0  0  0  0  0  0  0
    7.4866   -0.7060   20.9535 C   0  0  2  0  0  0  0  0  0  0  0  0
    8.3360   -1.2092   20.4738 H   0  0  0  0  0  0  0  0  0  0  0  0
    6.7038    0.0072   19.8496 C   0  0  0  0  0  0  0  0  0  0  0  0
    7.1734    0.0509   18.5213 C   0  0  0  0  0  0  0  0  0  0  0  0
    8.1056   -0.4525   18.2595 H   0  0  0  0  0  0  0  0  0  0  0  0
    6.5546    0.6731   17.5069 N   0  0  0  0  0  0  0  0  0  0  0  0
    5.4057    1.3001   17.7947 C   0  0  0  0  0  0  0  0  0  0  0  0
    4.9205    1.8221   16.9723 H   0  0  0  0  0  0  0  0  0  0  0  0
    4.8320    1.3093   19.0688 C   0  0  0  0  0  0  0  0  0  0  0  0
    3.8942    1.8241   19.2336 H   0  0  0  0  0  0  0  0  0  0  0  0
    5.4902    0.6588   20.1141 C   0  0  0  0  0  0  0  0  0  0  0  0
    5.0789    0.6815   21.1246 H   0  0  0  0  0  0  0  0  0  0  0  0
    6.6608   -1.7954   21.6476 C   0  0  0  0  0  0  0  0  0  0  0  0
    7.2716   -2.3620   22.3601 H   0  0  0  0  0  0  0  0  0  0  0  0
    6.2151   -2.4876   20.9278 H   0  0  0  0  0  0  0  0  0  0  0  0
    5.8489   -1.3467   22.2143 H   0  0  0  0  0  0  0  0  0  0  0  0
  1  2  1  0
  2  3  1  0
  3  4  1  1
  3  5  1  0
  5  6  1  0
  5  7  1  0
  5  8  1  0
  8  9  1  0
  8 10  1  0
  8 11  1  0
 11 12  1  0
 12 13  2  0
 13 14  1  0
 13 15  1  0
 15 16  1  0
 15 17  2  0
 17 18  1  0
 17 19  1  0
 19 20  1  0
 19 21  2  0
 21 22  1  0
  3 23  1  0
 23 24  1  6
 23 25  1  0
 25 26  2  0
 26 27  1  0
 26 28  1  0
 28 29  2  0
 29 30  1  0
 29 31  1  0
 31 32  1  0
 31 33  2  0
 33 34  1  0
 23 35  1  0
 35 36  1  0
 35 37  1  0
 35 38  1  0
 21 12  1  0
 33 25  1  0
M  END
>  <cnnaffinity>  (1) 
-4.621

>  <filename>  (1) 
C[C@@H](c1cccnc1)[C@H](O)CCOc1ccccc1

$$$$
