
     RDKit          3D

 36 37  0  0  0  0  0  0  0  0999 V2000
    6.6798   -2.0319   21.2891 C   0  0  0  0  0  0  0  0  0  0  0  0
    7.4096   -0.7172   20.9879 C   0  0  2  0  0  0  0  0  0  0  0  0
    7.5044    0.1359   22.1760 N   0  0  0  0  0  0  0  0  0  0  0  0
    8.2974    1.2744   22.2495 C   0  0  0  0  0  0  0  0  0  0  0  0
    9.0109    1.5081   21.2857 O   0  0  0  0  0  0  0  0  0  0  0  0
    8.2905    2.1400   23.3506 N   0  0  0  0  0  0  0  0  0  0  0  0
    7.2985    1.9953   24.4168 C   0  0  0  0  0  0  0  0  0  0  0  0
    7.3609    2.8275   25.1253 H   0  0  0  0  0  0  0  0  0  0  0  0
    7.4598    1.0692   24.9769 H   0  0  0  0  0  0  0  0  0  0  0  0
    6.2880    1.9883   24.0000 H   0  0  0  0  0  0  0  0  0  0  0  0
    9.2366    3.1890   23.4531 C   0  0  0  0  0  0  0  0  0  0  0  0
    8.8312    4.5225   23.2510 C   0  0  0  0  0  0  0  0  0  0  0  0
    9.7515    5.5826   23.3343 C   0  0  0  0  0  0  0  0  0  0  0  0
   11.0932    5.3287   23.6317 C   0  0  0  0  0  0  0  0  0  0  0  0
   11.5031    4.0095   23.8525 C   0  0  0  0  0  0  0  0  0  0  0  0
   10.5922    2.9422   23.7720 C   0  0  0  0  0  0  0  0  0  0  0  0
   11.3474    0.8616   24.2058 I   0  0  0  0  0  0  0  0  0  0  0  0
   12.5440    3.8083   24.0812 H   0  0  0  0  0  0  0  0  0  0  0  0
   11.8166    6.1432   23.6891 H   0  0  0  0  0  0  0  0  0  0  0  0
    9.4312    6.6049   23.1570 H   0  0  0  0  0  0  0  0  0  0  0  0
    7.7918    4.7322   23.0145 H   0  0  0  0  0  0  0  0  0  0  0  0
    6.9689   -0.1076   22.9975 H   0  0  0  0  0  0  0  0  0  0  0  0
    6.6637    0.0191   19.9095 C   0  0  0  0  0  0  0  0  0  0  0  0
    5.4411    0.6492   20.1632 C   0  0  0  0  0  0  0  0  0  0  0  0
    4.8173    1.3053   19.1044 C   0  0  0  0  0  0  0  0  0  0  0  0
    5.4033    1.2928   17.8328 C   0  0  0  0  0  0  0  0  0  0  0  0
    6.5709    0.6721   17.5835 N   0  0  0  0  0  0  0  0  0  0  0  0
    7.1861    0.0608   18.6099 C   0  0  0  0  0  0  0  0  0  0  0  0
    8.1280   -0.4370   18.4048 H   0  0  0  0  0  0  0  0  0  0  0  0
    4.8919    1.7922   17.0152 H   0  0  0  0  0  0  0  0  0  0  0  0
    3.8832    1.8321   19.2597 H   0  0  0  0  0  0  0  0  0  0  0  0
    5.0027    0.6357   21.1618 H   0  0  0  0  0  0  0  0  0  0  0  0
    8.4197   -0.9744   20.6434 H   0  0  0  0  0  0  0  0  0  0  0  0
    5.6582   -1.8512   21.6329 H   0  0  0  0  0  0  0  0  0  0  0  0
    7.2132   -2.5993   22.0560 H   0  0  0  0  0  0  0  0  0  0  0  0
    6.6245   -2.6484   20.3867 H   0  0  0  0  0  0  0  0  0  0  0  0
  1  2  1  0
  2  3  1  0
  3  4  1  0
  4  5  2  0
  4  6  1  0
  6  7  1  0
  7  8  1  0
  7  9  1  0
  7 10  1  0
  6 11  1  0
 11 12  2  0
 12 13  1  0
 13 14  2  0
 14 15  1  0
 15 16  2  0
 16 17  1  0
 15 18  1  0
 14 19  1  0
 13 20  1  0
 12 21  1  0
  3 22  1  0
  2 23  1  0
 23 24  2  0
 24 25  1  0
 25 26  2  0
 26 27  1  0
 27 28  2  0
 28 29  1  0
 26 30  1  0
 25 31  1  0
 24 32  1  0
  2 33  1  6
  1 34  1  0
  1 35  1  0
  1 36  1  0
 16 11  1  0
 28 23  1  0
M  END
>  <cnnaffinity>  (1) 
-5.45829

>  <filename>  (1) 
C[C@H](NC(=O)N(C)c1ccccc1I)c1cccnc1

$$$$
