
     RDKit          3D

 29 30  0  0  0  0  0  0  0  0999 V2000
    4.9170    1.7853   16.9971 H   0  0  0  0  0  0  0  0  0  0  0  0
    5.4016    1.2921   17.8371 C   0  0  0  0  0  0  0  0  0  0  0  0
    6.5670    0.6767   17.5749 N   0  0  0  0  0  0  0  0  0  0  0  0
    7.1786    0.0581   18.5932 C   0  0  0  0  0  0  0  0  0  0  0  0
    8.1262   -0.4234   18.3536 H   0  0  0  0  0  0  0  0  0  0  0  0
    6.6805   -0.0152   19.9283 C   0  0  0  0  0  0  0  0  0  0  0  0
    7.3395   -0.7480   20.9095 N   0  0  0  0  0  0  0  0  0  0  0  0
    8.2141   -1.1796   20.6670 H   0  0  0  0  0  0  0  0  0  0  0  0
    7.0523   -0.6633   22.3254 C   0  0  2  0  0  0  0  0  0  0  0  0
    6.0048   -0.9420   22.4514 H   0  0  0  0  0  0  0  0  0  0  0  0
    7.2256    0.7411   22.9015 C   0  0  0  0  0  0  0  0  0  0  0  0
    6.2837    1.3253   23.7529 C   0  0  0  0  0  0  0  0  0  0  0  0
    5.1731    0.6388   24.0701 F   0  0  0  0  0  0  0  0  0  0  0  0
    6.4173    2.5920   24.3093 C   0  0  0  0  0  0  0  0  0  0  0  0
    5.6254    2.9638   24.9492 H   0  0  0  0  0  0  0  0  0  0  0  0
    7.5639    3.3262   24.0102 C   0  0  0  0  0  0  0  0  0  0  0  0
    7.6889    4.3192   24.4277 H   0  0  0  0  0  0  0  0  0  0  0  0
    8.5484    2.7895   23.1773 C   0  0  0  0  0  0  0  0  0  0  0  0
    9.4553    3.3253   22.9285 H   0  0  0  0  0  0  0  0  0  0  0  0
    8.3575    1.5167   22.6475 C   0  0  0  0  0  0  0  0  0  0  0  0
    9.3361    1.0100   21.8704 F   0  0  0  0  0  0  0  0  0  0  0  0
    7.9161   -1.6641   23.0871 C   0  0  0  0  0  0  0  0  0  0  0  0
    8.9761   -1.3965   23.0181 H   0  0  0  0  0  0  0  0  0  0  0  0
    7.6385   -1.6474   24.1463 H   0  0  0  0  0  0  0  0  0  0  0  0
    7.7638   -2.6811   22.7106 H   0  0  0  0  0  0  0  0  0  0  0  0
    5.4578    0.6428   20.1724 C   0  0  0  0  0  0  0  0  0  0  0  0
    5.0214    0.6253   21.1729 H   0  0  0  0  0  0  0  0  0  0  0  0
    4.8258    1.3002   19.1105 C   0  0  0  0  0  0  0  0  0  0  0  0
    3.8937    1.8260   19.2648 H   0  0  0  0  0  0  0  0  0  0  0  0
  1  2  1  0
  2  3  2  0
  3  4  1  0
  4  5  1  0
  4  6  2  0
  6  7  1  0
  7  8  1  0
  7  9  1  0
  9 10  1  6
  9 11  1  0
 11 12  2  0
 12 13  1  0
 12 14  1  0
 14 15  1  0
 14 16  2  0
 16 17  1  0
 16 18  1  0
 18 19  1  0
 18 20  2  0
 20 21  1  0
  9 22  1  0
 22 23  1  0
 22 24  1  0
 22 25  1  0
  6 26  1  0
 26 27  1  0
 26 28  2  0
 28 29  1  0
 28  2  1  0
 20 11  1  0
M  END
>  <cnnaffinity>  (1) 
-4.87584

>  <filename>  (1) 
C[C@H](Nc1cccnc1)c1c(F)cccc1F

$$$$
