
     RDKit          3D

 36 38  0  0  0  0  0  0  0  0999 V2000
    4.9646    1.7882   16.9811 H   0  0  0  0  0  0  0  0  0  0  0  0
    5.4493    1.2913   17.8193 C   0  0  0  0  0  0  0  0  0  0  0  0
    6.6185    0.6849   17.5495 N   0  0  0  0  0  0  0  0  0  0  0  0
    7.2354    0.0609   18.5644 C   0  0  0  0  0  0  0  0  0  0  0  0
    8.1833   -0.4270   18.3465 H   0  0  0  0  0  0  0  0  0  0  0  0
    6.7282   -0.0032   19.8800 C   0  0  0  0  0  0  0  0  0  0  0  0
    7.4328   -0.6649   20.9303 N   0  0  0  0  0  0  0  0  0  0  0  0
    8.3096   -0.2575   21.2475 H   0  0  0  0  0  0  0  0  0  0  0  0
    6.8398   -1.5619   21.7827 C   0  0  0  0  0  0  0  0  0  0  0  0
    5.7851   -2.1153   21.5255 O   0  0  0  0  0  0  0  0  0  0  0  0
    7.5991   -1.9333   23.0555 C   0  0  2  0  0  0  0  0  0  0  0  0
    6.8213   -2.2829   23.7351 H   0  0  0  0  0  0  0  0  0  0  0  0
    8.2399   -0.6994   23.6336 C   0  0  0  0  0  0  0  0  0  0  0  0
    9.3846   -0.3426   23.1001 N   0  0  0  0  0  0  0  0  0  0  0  0
   10.0284    0.7551   23.6050 C   0  0  0  0  0  0  0  0  0  0  0  0
   11.3526    1.0094   23.1541 C   0  0  0  0  0  0  0  0  0  0  0  0
   11.8027    0.2547   22.5215 H   0  0  0  0  0  0  0  0  0  0  0  0
   11.9923    2.1808   23.4972 C   0  0  0  0  0  0  0  0  0  0  0  0
   13.0046    2.3758   23.1488 H   0  0  0  0  0  0  0  0  0  0  0  0
   11.3215    3.1422   24.3006 C   0  0  0  0  0  0  0  0  0  0  0  0
   11.8015    4.0923   24.5192 H   0  0  0  0  0  0  0  0  0  0  0  0
   10.0715    2.8789   24.8218 C   0  0  0  0  0  0  0  0  0  0  0  0
    9.5785    3.6008   25.4660 H   0  0  0  0  0  0  0  0  0  0  0  0
    9.4128    1.6486   24.5353 C   0  0  0  0  0  0  0  0  0  0  0  0
    8.1773    1.2240   25.1157 C   0  0  0  0  0  0  0  0  0  0  0  0
    7.7264    1.8112   25.9182 H   0  0  0  0  0  0  0  0  0  0  0  0
    7.6028    0.0569   24.6636 C   0  0  0  0  0  0  0  0  0  0  0  0
    6.6521   -0.2956   25.0500 H   0  0  0  0  0  0  0  0  0  0  0  0
    8.5752   -3.1058   22.7986 C   0  0  0  0  0  0  0  0  0  0  0  0
    8.0375   -3.9815   22.4131 H   0  0  0  0  0  0  0  0  0  0  0  0
    9.0821   -3.3960   23.7273 H   0  0  0  0  0  0  0  0  0  0  0  0
    9.3373   -2.7967   22.0745 H   0  0  0  0  0  0  0  0  0  0  0  0
    5.4991    0.6138   20.1357 C   0  0  0  0  0  0  0  0  0  0  0  0
    5.0731    0.5670   21.1383 H   0  0  0  0  0  0  0  0  0  0  0  0
    4.8558    1.2842   19.0872 C   0  0  0  0  0  0  0  0  0  0  0  0
    3.9126    1.7964   19.2417 H   0  0  0  0  0  0  0  0  0  0  0  0
  1  2  1  0
  2  3  2  0
  3  4  1  0
  4  5  1  0
  4  6  2  0
  6  7  1  0
  7  8  1  0
  7  9  1  0
  9 10  2  0
  9 11  1  0
 11 12  1  1
 11 13  1  0
 13 14  2  0
 14 15  1  0
 15 16  2  0
 16 17  1  0
 16 18  1  0
 18 19  1  0
 18 20  2  0
 20 21  1  0
 20 22  1  0
 22 23  1  0
 22 24  2  0
 24 25  1  0
 25 26  1  0
 25 27  2  0
 27 28  1  0
 11 29  1  0
 29 30  1  0
 29 31  1  0
 29 32  1  0
  6 33  1  0
 33 34  1  0
 33 35  2  0
 35 36  1  0
 35  2  1  0
 27 13  1  0
 24 15  1  0
M  END
>  <cnnaffinity>  (1) 
-5.53721

>  <filename>  (1) 
C[C@H](C(=O)Nc1cccnc1)c1ccc2ccccc2n1

$$$$
