
     RDKit          3D

 36 37  0  0  0  0  0  0  0  0999 V2000
    6.8068    0.5500   22.4944 H   0  0  0  0  0  0  0  0  0  0  0  0
    7.4010   -0.3249   22.2446 C   0  0  0  0  0  0  0  0  0  0  0  0
    7.3824   -0.6737   20.9610 C   0  0  0  0  0  0  0  0  0  0  0  0
    8.1297   -1.7209   20.5331 F   0  0  0  0  0  0  0  0  0  0  0  0
    6.6432   -0.0096   19.8834 C   0  0  0  0  0  0  0  0  0  0  0  0
    7.1649    0.0376   18.5794 C   0  0  0  0  0  0  0  0  0  0  0  0
    8.1222   -0.4294   18.3570 H   0  0  0  0  0  0  0  0  0  0  0  0
    6.5665    0.6755   17.5700 N   0  0  0  0  0  0  0  0  0  0  0  0
    5.4034    1.2933   17.8320 C   0  0  0  0  0  0  0  0  0  0  0  0
    4.9261    1.7878   16.9923 H   0  0  0  0  0  0  0  0  0  0  0  0
    4.8045    1.3098   19.0956 C   0  0  0  0  0  0  0  0  0  0  0  0
    3.8786    1.8428   19.2527 H   0  0  0  0  0  0  0  0  0  0  0  0
    5.4318    0.6499   20.1474 C   0  0  0  0  0  0  0  0  0  0  0  0
    5.0107    0.6278   21.1537 H   0  0  0  0  0  0  0  0  0  0  0  0
    8.1274   -1.0964   23.3228 C   0  0  0  0  0  0  0  0  0  0  0  0
    9.1581   -1.2956   22.9937 H   0  0  0  0  0  0  0  0  0  0  0  0
    8.1812   -0.5023   24.2415 H   0  0  0  0  0  0  0  0  0  0  0  0
    7.4519   -2.4380   23.6305 C   0  0  0  0  0  0  0  0  0  0  0  0
    7.3595   -3.0256   22.6958 H   0  0  0  0  0  0  0  0  0  0  0  0
    6.4237   -2.2365   23.9545 H   0  0  0  0  0  0  0  0  0  0  0  0
    8.1473   -3.1809   24.6714 N   0  0  0  0  0  0  0  0  0  0  0  0
    9.4420   -3.7438   24.2620 C   0  0  0  0  0  0  0  0  0  0  0  0
    9.6127   -3.6135   23.1825 H   0  0  0  0  0  0  0  0  0  0  0  0
   10.2688   -3.2138   24.7592 H   0  0  0  0  0  0  0  0  0  0  0  0
    9.3950   -5.2321   24.6351 C   0  0  0  0  0  0  0  0  0  0  0  0
    9.1276   -5.8310   23.7565 H   0  0  0  0  0  0  0  0  0  0  0  0
   10.3636   -5.5889   24.9961 H   0  0  0  0  0  0  0  0  0  0  0  0
    8.2968   -5.3198   25.6942 C   0  0  0  0  0  0  0  0  0  0  0  0
    8.6983   -5.1523   26.7003 H   0  0  0  0  0  0  0  0  0  0  0  0
    7.7888   -6.2891   25.7093 H   0  0  0  0  0  0  0  0  0  0  0  0
    7.3199   -4.2019   25.3219 C   0  0  1  0  0  0  0  0  0  0  0  0
    6.5700   -4.6017   24.6107 H   0  0  0  0  0  0  0  0  0  0  0  0
    6.5697   -3.6465   26.5294 C   0  0  0  0  0  0  0  0  0  0  0  0
    7.2806   -3.2227   27.2478 H   0  0  0  0  0  0  0  0  0  0  0  0
    5.8614   -2.8573   26.2507 H   0  0  0  0  0  0  0  0  0  0  0  0
    6.0108   -4.4461   27.0326 H   0  0  0  0  0  0  0  0  0  0  0  0
  1  2  1  0
  2  3  2  3
  3  4  1  0
  3  5  1  0
  5  6  2  0
  6  7  1  0
  6  8  1  0
  8  9  2  0
  9 10  1  0
  9 11  1  0
 11 12  1  0
 11 13  2  0
 13 14  1  0
  2 15  1  0
 15 16  1  0
 15 17  1  0
 15 18  1  0
 18 19  1  0
 18 20  1  0
 18 21  1  0
 21 22  1  0
 22 23  1  0
 22 24  1  0
 22 25  1  0
 25 26  1  0
 25 27  1  0
 25 28  1  0
 28 29  1  0
 28 30  1  0
 28 31  1  0
 31 32  1  6
 31 33  1  0
 33 34  1  0
 33 35  1  0
 33 36  1  0
 13  5  1  0
 31 21  1  0
M  END
>  <cnnaffinity>  (1) 
-4.75315

>  <filename>  (1) 
C[C@@H]1CCCN1CCC=C(F)c1cccnc1

$$$$
