
     RDKit          3D

 41 43  0  0  0  0  0  0  0  0999 V2000
   12.8670    5.0072   24.4414 H   0  0  0  0  0  0  0  0  0  0  0  0
   11.8838    5.1559   23.9968 C   0  0  0  0  0  0  0  0  0  0  0  0
   11.1851    4.0451   23.7666 N   0  0  0  0  0  0  0  0  0  0  0  0
    9.9588    4.1939   23.2488 C   0  0  0  0  0  0  0  0  0  0  0  0
    9.2527    3.0268   22.9995 N   0  0  0  0  0  0  0  0  0  0  0  0
    7.9042    2.8271   23.5597 C   0  0  0  0  0  0  0  0  0  0  0  0
    7.9771    2.4530   24.5955 H   0  0  0  0  0  0  0  0  0  0  0  0
    7.3441    3.7688   23.5932 H   0  0  0  0  0  0  0  0  0  0  0  0
    7.1161    1.7882   22.7355 C   0  0  0  0  0  0  0  0  0  0  0  0
    6.9060    2.2228   21.7424 H   0  0  0  0  0  0  0  0  0  0  0  0
    6.1544    1.6067   23.2390 H   0  0  0  0  0  0  0  0  0  0  0  0
    7.8680    0.5310   22.6623 N   0  0  0  0  0  0  0  0  0  0  0  0
    7.1667   -0.6465   22.2275 C   0  0  1  0  0  0  0  0  0  0  0  0
    6.1125   -0.5513   22.5076 H   0  0  0  0  0  0  0  0  0  0  0  0
    7.2538   -0.8908   20.8230 O   0  0  0  0  0  0  0  0  0  0  0  0
    6.6286   -0.0752   19.9275 C   0  0  0  0  0  0  0  0  0  0  0  0
    7.1834   -0.0007   18.6283 C   0  0  0  0  0  0  0  0  0  0  0  0
    8.1113   -0.5329   18.4295 H   0  0  0  0  0  0  0  0  0  0  0  0
    6.6293    0.6668   17.6108 N   0  0  0  0  0  0  0  0  0  0  0  0
    5.4707    1.3074   17.8489 C   0  0  0  0  0  0  0  0  0  0  0  0
    5.0398    1.8516   17.0116 H   0  0  0  0  0  0  0  0  0  0  0  0
    4.8450    1.3009   19.0983 C   0  0  0  0  0  0  0  0  0  0  0  0
    3.9120    1.8385   19.2278 H   0  0  0  0  0  0  0  0  0  0  0  0
    5.4347    0.6147   20.1700 C   0  0  0  0  0  0  0  0  0  0  0  0
    4.9951    0.6205   21.1673 H   0  0  0  0  0  0  0  0  0  0  0  0
    7.7485   -1.8807   22.8777 C   0  0  0  0  0  0  0  0  0  0  0  0
    7.1882   -2.7539   22.5404 H   0  0  0  0  0  0  0  0  0  0  0  0
    8.7957   -2.0019   22.5861 H   0  0  0  0  0  0  0  0  0  0  0  0
    7.6908   -1.8028   23.9652 H   0  0  0  0  0  0  0  0  0  0  0  0
    9.2155    0.7191   22.1150 C   0  0  0  0  0  0  0  0  0  0  0  0
    9.1978    1.0379   21.0567 H   0  0  0  0  0  0  0  0  0  0  0  0
    9.7676   -0.2271   22.1550 H   0  0  0  0  0  0  0  0  0  0  0  0
    9.9852    1.7495   22.9446 C   0  0  0  0  0  0  0  0  0  0  0  0
   10.9757    1.9081   22.5058 H   0  0  0  0  0  0  0  0  0  0  0  0
   10.1394    1.3538   23.9634 H   0  0  0  0  0  0  0  0  0  0  0  0
    9.3960    5.4512   22.9325 C   0  0  0  0  0  0  0  0  0  0  0  0
    8.4175    5.4666   22.4632 H   0  0  0  0  0  0  0  0  0  0  0  0
   10.1612    6.5947   23.1438 C   0  0  0  0  0  0  0  0  0  0  0  0
    9.7616    7.5791   22.8856 H   0  0  0  0  0  0  0  0  0  0  0  0
   11.4414    6.4407   23.6928 C   0  0  0  0  0  0  0  0  0  0  0  0
   12.0839    7.2914   23.8908 H   0  0  0  0  0  0  0  0  0  0  0  0
  1  2  1  0
  2  3  2  0
  3  4  1  0
  4  5  1  0
  5  6  1  0
  6  7  1  0
  6  8  1  0
  6  9  1  0
  9 10  1  0
  9 11  1  0
  9 12  1  0
 12 13  1  0
 13 14  1  1
 13 15  1  0
 15 16  1  0
 16 17  2  0
 17 18  1  0
 17 19  1  0
 19 20  2  0
 20 21  1  0
 20 22  1  0
 22 23  1  0
 22 24  2  0
 24 25  1  0
 13 26  1  0
 26 27  1  0
 26 28  1  0
 26 29  1  0
 12 30  1  0
 30 31  1  0
 30 32  1  0
 30 33  1  0
 33 34  1  0
 33 35  1  0
  4 36  2  0
 36 37  1  0
 36 38  1  0
 38 39  1  0
 38 40  2  0
 40 41  1  0
 40  2  1  0
 33  5  1  0
 24 16  1  0
M  END
>  <cnnaffinity>  (1) 
-4.95914

>  <filename>  (1) 
C[C@H](Oc1cccnc1)N1CCN(c2ccccn2)CC1

$$$$
