
     RDKit          3D

 39 41  0  0  0  0  0  0  0  0999 V2000
    4.9148    1.7965   16.9832 H   0  0  0  0  0  0  0  0  0  0  0  0
    5.3933    1.2997   17.8239 C   0  0  0  0  0  0  0  0  0  0  0  0
    6.5519    0.6801   17.5552 N   0  0  0  0  0  0  0  0  0  0  0  0
    7.1503    0.0491   18.5763 C   0  0  0  0  0  0  0  0  0  0  0  0
    8.1117   -0.4173   18.3550 H   0  0  0  0  0  0  0  0  0  0  0  0
    6.6400   -0.0224   19.8880 C   0  0  0  0  0  0  0  0  0  0  0  0
    7.3959   -0.7068   21.0090 C   0  0  0  0  0  0  0  0  0  0  0  0
    6.6917   -1.1848   21.7015 H   0  0  0  0  0  0  0  0  0  0  0  0
    8.0036   -1.5203   20.5911 H   0  0  0  0  0  0  0  0  0  0  0  0
    8.3641    0.2062   21.8191 C   0  0  2  0  0  0  0  0  0  0  0  0
    8.7978   -0.4126   22.6258 H   0  0  0  0  0  0  0  0  0  0  0  0
    7.6378    1.3700   22.3936 N   0  0  0  0  0  0  0  0  0  0  0  0
    6.7242    0.9988   23.4786 C   0  0  0  0  0  0  0  0  0  0  0  0
    6.0975    0.1534   23.1834 H   0  0  0  0  0  0  0  0  0  0  0  0
    6.0229    1.8326   23.6381 H   0  0  0  0  0  0  0  0  0  0  0  0
    7.4178    0.6746   24.7978 C   0  0  0  0  0  0  0  0  0  0  0  0
    6.8121   -0.1559   25.7527 C   0  0  0  0  0  0  0  0  0  0  0  0
    5.8389   -0.5959   25.5400 H   0  0  0  0  0  0  0  0  0  0  0  0
    7.4495   -0.4223   26.9699 C   0  0  0  0  0  0  0  0  0  0  0  0
    6.9679   -1.0614   27.7075 H   0  0  0  0  0  0  0  0  0  0  0  0
    8.7019    0.1398   27.2351 C   0  0  0  0  0  0  0  0  0  0  0  0
    9.2025   -0.0552   28.1821 H   0  0  0  0  0  0  0  0  0  0  0  0
    9.3110    0.9593   26.2768 C   0  0  0  0  0  0  0  0  0  0  0  0
   10.2893    1.4032   26.4458 H   0  0  0  0  0  0  0  0  0  0  0  0
    8.6804    1.2392   25.0618 C   0  0  0  0  0  0  0  0  0  0  0  0
    9.3841    2.1066   24.0249 C   0  0  0  0  0  0  0  0  0  0  0  0
    9.7927    3.0070   24.4942 H   0  0  0  0  0  0  0  0  0  0  0  0
   10.2573    1.5609   23.6454 H   0  0  0  0  0  0  0  0  0  0  0  0
    8.4682    2.4947   22.8566 C   0  0  0  0  0  0  0  0  0  0  0  0
    9.0396    2.9155   22.0209 H   0  0  0  0  0  0  0  0  0  0  0  0
    7.7861    3.2932   23.1801 H   0  0  0  0  0  0  0  0  0  0  0  0
    9.4979    0.6510   20.8997 C   0  0  0  0  0  0  0  0  0  0  0  0
    9.8917   -0.1934   20.3228 H   0  0  0  0  0  0  0  0  0  0  0  0
   10.3374    1.1145   21.4292 H   0  0  0  0  0  0  0  0  0  0  0  0
    9.0569    1.3666   20.2120 H   0  0  0  0  0  0  0  0  0  0  0  0
    5.4311    0.6383   20.1384 C   0  0  0  0  0  0  0  0  0  0  0  0
    5.0139    0.6381   21.1493 H   0  0  0  0  0  0  0  0  0  0  0  0
    4.8008    1.3122   19.0908 C   0  0  0  0  0  0  0  0  0  0  0  0
    3.8738    1.8457   19.2495 H   0  0  0  0  0  0  0  0  0  0  0  0
  1  2  1  0
  2  3  2  0
  3  4  1  0
  4  5  1  0
  4  6  2  0
  6  7  1  0
  7  8  1  0
  7  9  1  0
  7 10  1  0
 10 11  1  1
 10 12  1  0
 12 13  1  0
 13 14  1  0
 13 15  1  0
 13 16  1  0
 16 17  2  0
 17 18  1  0
 17 19  1  0
 19 20  1  0
 19 21  2  0
 21 22  1  0
 21 23  1  0
 23 24  1  0
 23 25  2  0
 25 26  1  0
 26 27  1  0
 26 28  1  0
 26 29  1  0
 29 30  1  0
 29 31  1  0
 10 32  1  0
 32 33  1  0
 32 34  1  0
 32 35  1  0
  6 36  1  0
 36 37  1  0
 36 38  2  0
 38 39  1  0
 38  2  1  0
 29 12  1  0
 25 16  1  0
M  END
>  <cnnaffinity>  (1) 
-4.58796

>  <filename>  (1) 
C[C@H](Cc1cccnc1)N1CCc2ccccc2C1

$$$$
