
     RDKit          3D

 34 35  0  0  0  0  0  0  0  0999 V2000
    4.9170    1.7887   16.9959 H   0  0  0  0  0  0  0  0  0  0  0  0
    5.3942    1.2959   17.8400 C   0  0  0  0  0  0  0  0  0  0  0  0
    6.5522    0.6732   17.5690 N   0  0  0  0  0  0  0  0  0  0  0  0
    7.1736    0.0584   18.5816 C   0  0  0  0  0  0  0  0  0  0  0  0
    8.1204   -0.4193   18.3632 H   0  0  0  0  0  0  0  0  0  0  0  0
    6.6719   -0.0061   19.9053 C   0  0  0  0  0  0  0  0  0  0  0  0
    7.3707   -0.6925   20.9406 N   0  0  0  0  0  0  0  0  0  0  0  0
    6.8229   -1.0816   21.6920 H   0  0  0  0  0  0  0  0  0  0  0  0
    8.7299   -0.5645   21.1777 C   0  0  0  0  0  0  0  0  0  0  0  0
    9.4179    0.1465   20.4699 O   0  0  0  0  0  0  0  0  0  0  0  0
    9.3152   -1.3272   22.3763 C   0  0  1  0  0  0  0  0  0  0  0  0
    8.6164   -2.1327   22.6352 H   0  0  0  0  0  0  0  0  0  0  0  0
   10.6748   -1.9419   22.0175 C   0  0  0  0  0  0  0  0  0  0  0  0
   10.5833   -2.5846   21.1429 H   0  0  0  0  0  0  0  0  0  0  0  0
   11.0743   -2.5351   22.8486 H   0  0  0  0  0  0  0  0  0  0  0  0
   11.4076   -1.1685   21.7633 H   0  0  0  0  0  0  0  0  0  0  0  0
    9.4547   -0.3666   23.5846 C   0  0  0  0  0  0  0  0  0  0  0  0
    9.9552   -0.8947   24.4052 H   0  0  0  0  0  0  0  0  0  0  0  0
   10.1133    0.4631   23.2979 H   0  0  0  0  0  0  0  0  0  0  0  0
    8.1199    0.1658   24.0405 C   0  0  0  0  0  0  0  0  0  0  0  0
    7.6541    1.4075   23.5729 C   0  0  0  0  0  0  0  0  0  0  0  0
    8.2963    1.9803   22.9072 H   0  0  0  0  0  0  0  0  0  0  0  0
    6.3898    1.8879   23.9136 C   0  0  0  0  0  0  0  0  0  0  0  0
    6.0597    2.8541   23.5371 H   0  0  0  0  0  0  0  0  0  0  0  0
    5.5572    1.1247   24.7394 C   0  0  0  0  0  0  0  0  0  0  0  0
    4.5753    1.4939   25.0166 H   0  0  0  0  0  0  0  0  0  0  0  0
    5.9839   -0.1174   25.2133 C   0  0  0  0  0  0  0  0  0  0  0  0
    5.3573   -0.7317   25.8549 H   0  0  0  0  0  0  0  0  0  0  0  0
    7.2513   -0.5825   24.8549 C   0  0  0  0  0  0  0  0  0  0  0  0
    7.7321   -2.1493   25.4540 Cl  0  0  0  0  0  0  0  0  0  0  0  0
    5.4492    0.6249   20.1667 C   0  0  0  0  0  0  0  0  0  0  0  0
    5.0285    0.6109   21.1743 H   0  0  0  0  0  0  0  0  0  0  0  0
    4.8130    1.3012   19.1135 C   0  0  0  0  0  0  0  0  0  0  0  0
    3.8819    1.8367   19.2635 H   0  0  0  0  0  0  0  0  0  0  0  0
  1  2  1  0
  2  3  2  0
  3  4  1  0
  4  5  1  0
  4  6  2  0
  6  7  1  0
  7  8  1  0
  7  9  1  0
  9 10  2  0
  9 11  1  0
 11 12  1  1
 11 13  1  0
 13 14  1  0
 13 15  1  0
 13 16  1  0
 11 17  1  0
 17 18  1  0
 17 19  1  0
 17 20  1  0
 20 21  2  0
 21 22  1  0
 21 23  1  0
 23 24  1  0
 23 25  2  0
 25 26  1  0
 25 27  1  0
 27 28  1  0
 27 29  2  0
 29 30  1  0
  6 31  1  0
 31 32  1  0
 31 33  2  0
 33 34  1  0
 33  2  1  0
 29 20  1  0
M  END
>  <cnnaffinity>  (1) 
-5.05885

>  <filename>  (1) 
C[C@@H](Cc1ccccc1Cl)C(=O)Nc1cccnc1

$$$$
