
     RDKit          3D

 36 37  0  0  0  0  0  0  0  0999 V2000
    4.9305    1.7584   16.8695 H   0  0  0  0  0  0  0  0  0  0  0  0
    5.3563    1.2977   17.7601 C   0  0  0  0  0  0  0  0  0  0  0  0
    6.5141    0.6416   17.5859 N   0  0  0  0  0  0  0  0  0  0  0  0
    7.0641    0.0688   18.6650 C   0  0  0  0  0  0  0  0  0  0  0  0
    8.0256   -0.4170   18.5048 H   0  0  0  0  0  0  0  0  0  0  0  0
    6.5113    0.0967   19.9597 C   0  0  0  0  0  0  0  0  0  0  0  0
    7.2076   -0.5783   21.1540 C   0  0  2  0  0  0  0  0  0  0  0  0
    6.6530   -0.2865   22.0516 H   0  0  0  0  0  0  0  0  0  0  0  0
    8.6289   -0.0121   21.3067 C   0  0  0  0  0  0  0  0  0  0  0  0
    9.5877   -0.4162   20.6762 O   0  0  0  0  0  0  0  0  0  0  0  0
    8.6886    1.0086   22.1741 O   0  0  0  0  0  0  0  0  0  0  0  0
    9.9917    1.6108   22.3698 C   0  0  0  0  0  0  0  0  0  0  0  0
   10.4626    1.7707   21.3888 H   0  0  0  0  0  0  0  0  0  0  0  0
    9.7744    2.9566   23.0443 C   0  0  0  0  0  0  0  0  0  0  0  0
    9.3145    2.7829   24.0262 H   0  0  0  0  0  0  0  0  0  0  0  0
    9.0726    3.5554   22.4544 H   0  0  0  0  0  0  0  0  0  0  0  0
   11.1157    3.6897   23.2022 C   0  0  0  0  0  0  0  0  0  0  0  0
   11.4623    4.0215   22.2155 H   0  0  0  0  0  0  0  0  0  0  0  0
   10.9902    4.6002   23.8042 H   0  0  0  0  0  0  0  0  0  0  0  0
   12.1963    2.8117   23.8602 C   0  0  0  0  0  0  0  0  0  0  0  0
   13.1781    3.2840   23.7361 H   0  0  0  0  0  0  0  0  0  0  0  0
   11.9812    2.7887   24.9301 H   0  0  0  0  0  0  0  0  0  0  0  0
   12.2809    1.3580   23.3612 C   0  0  0  0  0  0  0  0  0  0  0  0
   12.9064    0.7752   24.0547 H   0  0  0  0  0  0  0  0  0  0  0  0
   12.7777    1.3321   22.3801 H   0  0  0  0  0  0  0  0  0  0  0  0
   10.8970    0.7085   23.2214 C   0  0  0  0  0  0  0  0  0  0  0  0
   10.4297    0.5774   24.2086 H   0  0  0  0  0  0  0  0  0  0  0  0
   10.9828   -0.2827   22.7621 H   0  0  0  0  0  0  0  0  0  0  0  0
    7.2775   -2.1260   21.0864 C   0  0  0  0  0  0  0  0  0  0  0  0
    6.3832   -2.5805   20.6493 H   0  0  0  0  0  0  0  0  0  0  0  0
    7.4046   -2.5355   22.0936 H   0  0  0  0  0  0  0  0  0  0  0  0
    8.1548   -2.4345   20.5154 H   0  0  0  0  0  0  0  0  0  0  0  0
    5.3062    0.8026   20.1134 C   0  0  0  0  0  0  0  0  0  0  0  0
    4.8486    0.8944   21.1017 H   0  0  0  0  0  0  0  0  0  0  0  0
    4.7165    1.4032   18.9972 C   0  0  0  0  0  0  0  0  0  0  0  0
    3.7829    1.9571   19.0695 H   0  0  0  0  0  0  0  0  0  0  0  0
  1  2  1  0
  2  3  2  0
  3  4  1  0
  4  5  1  0
  4  6  2  0
  6  7  1  0
  7  8  1  1
  7  9  1  0
  9 10  2  0
  9 11  1  0
 11 12  1  0
 12 13  1  0
 12 14  1  0
 14 15  1  0
 14 16  1  0
 14 17  1  0
 17 18  1  0
 17 19  1  0
 17 20  1  0
 20 21  1  0
 20 22  1  0
 20 23  1  0
 23 24  1  0
 23 25  1  0
 23 26  1  0
 26 27  1  0
 26 28  1  0
  7 29  1  0
 29 30  1  0
 29 31  1  0
 29 32  1  0
  6 33  1  0
 33 34  1  0
 33 35  2  0
 35 36  1  0
 35  2  1  0
 26 12  1  0
M  END
>  <cnnaffinity>  (1) 
-4.67471

>  <filename>  (1) 
C[C@@H](C(=O)OC1CCCCC1)c1cccnc1

$$$$
