
     RDKit          3D

 28 29  0  0  0  0  0  0  0  0999 V2000
    6.6892   -1.0766   22.2143 C   0  0  0  0  0  0  0  0  0  0  0  0
    7.4641   -0.6984   20.9573 C   0  0  2  0  0  0  0  0  0  0  0  0
    8.6363    0.1233   21.2847 N   0  0  0  0  0  0  0  0  0  0  0  0
    8.6233    1.3956   21.8341 C   0  0  0  0  0  0  0  0  0  0  0  0
    7.4333    1.9711   21.9974 N   0  0  0  0  0  0  0  0  0  0  0  0
    7.4127    3.2178   22.4863 C   0  0  0  0  0  0  0  0  0  0  0  0
    8.5645    3.9171   22.8388 C   0  0  0  0  0  0  0  0  0  0  0  0
    9.8071    3.3293   22.6841 C   0  0  0  0  0  0  0  0  0  0  0  0
   11.6581    4.4900   23.2629 I   0  0  0  0  0  0  0  0  0  0  0  0
    9.8423    2.0317   22.1650 C   0  0  0  0  0  0  0  0  0  0  0  0
   11.3927    1.2392   21.9399 Cl  0  0  0  0  0  0  0  0  0  0  0  0
    8.4923    4.9256   23.2322 H   0  0  0  0  0  0  0  0  0  0  0  0
    6.4639    3.7269   22.6295 H   0  0  0  0  0  0  0  0  0  0  0  0
    9.5498   -0.2877   21.1696 H   0  0  0  0  0  0  0  0  0  0  0  0
    6.6715    0.0283   19.9145 C   0  0  0  0  0  0  0  0  0  0  0  0
    5.4483    0.6535   20.1735 C   0  0  0  0  0  0  0  0  0  0  0  0
    4.8233    1.3002   19.1086 C   0  0  0  0  0  0  0  0  0  0  0  0
    5.4049    1.2895   17.8350 C   0  0  0  0  0  0  0  0  0  0  0  0
    6.5738    0.6718   17.5877 N   0  0  0  0  0  0  0  0  0  0  0  0
    7.1954    0.0712   18.6173 C   0  0  0  0  0  0  0  0  0  0  0  0
    8.1339   -0.4310   18.4095 H   0  0  0  0  0  0  0  0  0  0  0  0
    4.8935    1.7944   17.0200 H   0  0  0  0  0  0  0  0  0  0  0  0
    3.8894    1.8241   19.2589 H   0  0  0  0  0  0  0  0  0  0  0  0
    5.0065    0.6419   21.1712 H   0  0  0  0  0  0  0  0  0  0  0  0
    7.7928   -1.6492   20.5175 H   0  0  0  0  0  0  0  0  0  0  0  0
    7.3069   -1.7088   22.8612 H   0  0  0  0  0  0  0  0  0  0  0  0
    6.3870   -0.1860   22.7711 H   0  0  0  0  0  0  0  0  0  0  0  0
    5.7993   -1.6458   21.9352 H   0  0  0  0  0  0  0  0  0  0  0  0
  1  2  1  0
  2  3  1  0
  3  4  1  0
  4  5  2  0
  5  6  1  0
  6  7  2  0
  7  8  1  0
  8  9  1  0
  8 10  2  0
 10 11  1  0
  7 12  1  0
  6 13  1  0
  3 14  1  0
  2 15  1  0
 15 16  2  0
 16 17  1  0
 17 18  2  0
 18 19  1  0
 19 20  2  0
 20 21  1  0
 18 22  1  0
 17 23  1  0
 16 24  1  0
  2 25  1  6
  1 26  1  0
  1 27  1  0
  1 28  1  0
 10  4  1  0
 20 15  1  0
M  END
>  <cnnaffinity>  (1) 
-5.30091

>  <filename>  (1) 
C[C@H](Nc1nccc(I)c1Cl)c1cccnc1

$$$$
