
     RDKit          3D

 34 35  0  0  0  0  0  0  0  0999 V2000
    5.0204    1.8109   17.0265 H   0  0  0  0  0  0  0  0  0  0  0  0
    5.4527    1.2637   17.8648 C   0  0  0  0  0  0  0  0  0  0  0  0
    6.6009    0.6122   17.6290 N   0  0  0  0  0  0  0  0  0  0  0  0
    7.1499   -0.0420   18.6620 C   0  0  0  0  0  0  0  0  0  0  0  0
    8.0826   -0.5678   18.4541 H   0  0  0  0  0  0  0  0  0  0  0  0
    6.6138   -0.0925   19.9540 C   0  0  0  0  0  0  0  0  0  0  0  0
    7.4142   -0.7474   21.0532 C   0  0  2  0  0  0  0  0  0  0  0  0
    8.1496   -1.4210   20.5948 H   0  0  0  0  0  0  0  0  0  0  0  0
    6.5018   -1.5426   21.8400 O   0  0  0  0  0  0  0  0  0  0  0  0
    6.9892   -2.4980   22.6312 C   0  0  0  0  0  0  0  0  0  0  0  0
    8.1629   -2.6372   22.9178 O   0  0  0  0  0  0  0  0  0  0  0  0
    5.8163   -3.4530   23.1470 C   0  0  0  0  0  0  0  0  0  0  0  0
    4.7328   -3.4929   22.5939 O   0  0  0  0  0  0  0  0  0  0  0  0
    6.1710   -4.2330   24.2258 N   0  0  0  0  0  0  0  0  0  0  0  0
    7.1350   -4.1692   24.5209 H   0  0  0  0  0  0  0  0  0  0  0  0
    5.3424   -5.1718   24.8856 C   0  0  0  0  0  0  0  0  0  0  0  0
    4.2256   -5.7032   24.2257 C   0  0  0  0  0  0  0  0  0  0  0  0
    4.0287   -5.4176   23.2042 H   0  0  0  0  0  0  0  0  0  0  0  0
    3.3773   -6.5912   24.8820 C   0  0  0  0  0  0  0  0  0  0  0  0
    2.5024   -6.9754   24.3722 H   0  0  0  0  0  0  0  0  0  0  0  0
    3.6436   -6.9627   26.2001 C   0  0  0  0  0  0  0  0  0  0  0  0
    2.5103   -7.9802   27.0370 Cl  0  0  0  0  0  0  0  0  0  0  0  0
    4.7778   -6.4796   26.8553 C   0  0  0  0  0  0  0  0  0  0  0  0
    4.9874   -6.7846   27.8756 H   0  0  0  0  0  0  0  0  0  0  0  0
    5.6300   -5.5836   26.1954 C   0  0  0  0  0  0  0  0  0  0  0  0
    6.5049   -5.2065   26.7180 H   0  0  0  0  0  0  0  0  0  0  0  0
    8.1090    0.2719   21.9395 C   0  0  0  0  0  0  0  0  0  0  0  0
    7.3733    0.9296   22.4168 H   0  0  0  0  0  0  0  0  0  0  0  0
    8.6828   -0.2477   22.7064 H   0  0  0  0  0  0  0  0  0  0  0  0
    8.7781    0.8804   21.3267 H   0  0  0  0  0  0  0  0  0  0  0  0
    5.3986    0.5743   20.1733 C   0  0  0  0  0  0  0  0  0  0  0  0
    4.9166    0.5530   21.1527 H   0  0  0  0  0  0  0  0  0  0  0  0
    4.8131    1.2632   19.1102 C   0  0  0  0  0  0  0  0  0  0  0  0
    3.8864    1.8114   19.2353 H   0  0  0  0  0  0  0  0  0  0  0  0
  1  2  1  0
  2  3  2  0
  3  4  1  0
  4  5  1  0
  4  6  2  0
  6  7  1  0
  7  8  1  6
  7  9  1  0
  9 10  1  0
 10 11  2  0
 10 12  1  0
 12 13  2  0
 12 14  1  0
 14 15  1  0
 14 16  1  0
 16 17  2  0
 17 18  1  0
 17 19  1  0
 19 20  1  0
 19 21  2  0
 21 22  1  0
 21 23  1  0
 23 24  1  0
 23 25  2  0
 25 26  1  0
  7 27  1  0
 27 28  1  0
 27 29  1  0
 27 30  1  0
  6 31  1  0
 31 32  1  0
 31 33  2  0
 33 34  1  0
 33  2  1  0
 25 16  1  0
M  END
>  <cnnaffinity>  (1) 
-4.82007

>  <filename>  (1) 
C[C@@H](OC(=O)C(=O)Nc1ccc(Cl)cc1)c1cccnc1

$$$$
