
     RDKit          3D

 38 40  0  0  0  0  0  0  0  0999 V2000
    4.9498    1.8533   17.0088 H   0  0  0  0  0  0  0  0  0  0  0  0
    5.4243    1.2994   17.8145 C   0  0  0  0  0  0  0  0  0  0  0  0
    6.5728    0.6746   17.5123 N   0  0  0  0  0  0  0  0  0  0  0  0
    7.1831    0.0090   18.5064 C   0  0  0  0  0  0  0  0  0  0  0  0
    8.1192   -0.4838   18.2545 H   0  0  0  0  0  0  0  0  0  0  0  0
    6.7033   -0.0769   19.8431 C   0  0  0  0  0  0  0  0  0  0  0  0
    7.3278   -0.7712   20.8843 N   0  0  0  0  0  0  0  0  0  0  0  0
    7.0113   -0.4351   21.7880 H   0  0  0  0  0  0  0  0  0  0  0  0
    8.7519   -1.0766   20.8910 C   0  0  1  0  0  0  0  0  0  0  0  0
    8.9770   -1.6056   19.9553 H   0  0  0  0  0  0  0  0  0  0  0  0
    9.6167    0.1915   20.9320 C   0  0  0  0  0  0  0  0  0  0  0  0
    9.3854    0.8121   21.8081 H   0  0  0  0  0  0  0  0  0  0  0  0
    9.4240    0.8008   20.0430 H   0  0  0  0  0  0  0  0  0  0  0  0
   10.6800   -0.0713   20.9514 H   0  0  0  0  0  0  0  0  0  0  0  0
    9.0208   -2.0871   22.0317 C   0  0  0  0  0  0  0  0  0  0  0  0
   10.0683   -2.4147   21.9687 H   0  0  0  0  0  0  0  0  0  0  0  0
    8.4030   -2.9729   21.8342 H   0  0  0  0  0  0  0  0  0  0  0  0
    8.7567   -1.5593   23.4321 C   0  0  0  0  0  0  0  0  0  0  0  0
    9.7788   -0.7798   24.0732 C   0  0  0  0  0  0  0  0  0  0  0  0
   10.7337   -0.6265   23.5618 H   0  0  0  0  0  0  0  0  0  0  0  0
    9.5613   -0.1919   25.2967 C   0  0  0  0  0  0  0  0  0  0  0  0
   10.3303    0.3936   25.7987 H   0  0  0  0  0  0  0  0  0  0  0  0
    8.3059   -0.3428   25.9613 C   0  0  0  0  0  0  0  0  0  0  0  0
    8.0497    0.2929   27.2156 C   0  0  0  0  0  0  0  0  0  0  0  0
    8.7944    0.9763   27.6031 H   0  0  0  0  0  0  0  0  0  0  0  0
    6.8735    0.0775   27.8959 C   0  0  0  0  0  0  0  0  0  0  0  0
    6.7090    0.5263   28.8747 H   0  0  0  0  0  0  0  0  0  0  0  0
    5.8646   -0.7409   27.3165 C   0  0  0  0  0  0  0  0  0  0  0  0
    4.9319   -0.8848   27.8589 H   0  0  0  0  0  0  0  0  0  0  0  0
    6.0555   -1.3206   26.0802 C   0  0  0  0  0  0  0  0  0  0  0  0
    5.2594   -1.9031   25.6192 H   0  0  0  0  0  0  0  0  0  0  0  0
    7.2850   -1.1560   25.3653 C   0  0  0  0  0  0  0  0  0  0  0  0
    7.5459   -1.7533   24.0817 C   0  0  0  0  0  0  0  0  0  0  0  0
    6.7616   -2.3581   23.6150 H   0  0  0  0  0  0  0  0  0  0  0  0
    5.4838    0.5616   20.1197 C   0  0  0  0  0  0  0  0  0  0  0  0
    5.0700    0.5116   21.1295 H   0  0  0  0  0  0  0  0  0  0  0  0
    4.8470    1.2586   19.0924 C   0  0  0  0  0  0  0  0  0  0  0  0
    3.9225    1.7885   19.2797 H   0  0  0  0  0  0  0  0  0  0  0  0
  1  2  1  0
  2  3  2  0
  3  4  1  0
  4  5  1  0
  4  6  2  0
  6  7  1  0
  7  8  1  0
  7  9  1  0
  9 10  1  6
  9 11  1  0
 11 12  1  0
 11 13  1  0
 11 14  1  0
  9 15  1  0
 15 16  1  0
 15 17  1  0
 15 18  1  0
 18 19  2  0
 19 20  1  0
 19 21  1  0
 21 22  1  0
 21 23  2  0
 23 24  1  0
 24 25  1  0
 24 26  2  0
 26 27  1  0
 26 28  1  0
 28 29  1  0
 28 30  2  0
 30 31  1  0
 30 32  1  0
 32 33  2  0
 33 34  1  0
  6 35  1  0
 35 36  1  0
 35 37  2  0
 37 38  1  0
 37  2  1  0
 33 18  1  0
 32 23  1  0
M  END
>  <cnnaffinity>  (1) 
-4.93518

>  <filename>  (1) 
C[C@@H](Cc1ccc2ccccc2c1)Nc1cccnc1

$$$$
