
     RDKit          3D

 35 36  0  0  0  0  0  0  0  0999 V2000
    9.1455   -4.4766   24.3026 C   0  0  0  0  0  0  0  0  0  0  0  0
    9.6131   -3.2253   23.5685 C   0  0  1  0  0  0  0  0  0  0  0  0
    8.6927   -2.8565   22.4872 N   0  0  0  0  0  0  0  0  0  0  0  0
    7.4164   -2.4031   22.7647 C   0  0  0  0  0  0  0  0  0  0  0  0
    6.7390   -2.7967   23.6970 O   0  0  0  0  0  0  0  0  0  0  0  0
    6.8844   -1.3927   21.8038 C   0  0  0  0  0  0  0  0  0  0  0  0
    7.4538   -0.8271   20.7275 C   0  0  0  0  0  0  0  0  0  0  0  0
    6.7272   -0.0070   19.7355 C   0  0  0  0  0  0  0  0  0  0  0  0
    5.5130    0.6439   20.0052 C   0  0  0  0  0  0  0  0  0  0  0  0
    4.8717    1.3308   18.9754 C   0  0  0  0  0  0  0  0  0  0  0  0
    5.4578    1.3505   17.7086 C   0  0  0  0  0  0  0  0  0  0  0  0
    6.6273    0.7531   17.4255 N   0  0  0  0  0  0  0  0  0  0  0  0
    7.2376    0.1094   18.4251 C   0  0  0  0  0  0  0  0  0  0  0  0
    8.1870   -0.3571   18.1620 H   0  0  0  0  0  0  0  0  0  0  0  0
    4.9687    1.8704   16.8884 H   0  0  0  0  0  0  0  0  0  0  0  0
    3.9363    1.8486   19.1466 H   0  0  0  0  0  0  0  0  0  0  0  0
    5.0886    0.6310   21.0090 H   0  0  0  0  0  0  0  0  0  0  0  0
    8.5092   -0.9752   20.4614 H   0  0  0  0  0  0  0  0  0  0  0  0
    5.8523   -1.1719   22.0368 H   0  0  0  0  0  0  0  0  0  0  0  0
    9.1343   -2.2312   21.8397 H   0  0  0  0  0  0  0  0  0  0  0  0
    9.8647   -2.0241   24.4815 C   0  0  0  0  0  0  0  0  0  0  0  0
    9.2901   -1.9026   25.7591 C   0  0  0  0  0  0  0  0  0  0  0  0
    9.6893   -0.8834   26.6239 C   0  0  0  0  0  0  0  0  0  0  0  0
   10.6087    0.0699   26.1798 C   0  0  0  0  0  0  0  0  0  0  0  0
   11.1137    0.0263   24.8800 C   0  0  0  0  0  0  0  0  0  0  0  0
   12.3267    1.1608   24.3993 Cl  0  0  0  0  0  0  0  0  0  0  0  0
   10.6808   -0.9804   24.0186 C   0  0  0  0  0  0  0  0  0  0  0  0
   11.0591   -0.9546   22.7265 F   0  0  0  0  0  0  0  0  0  0  0  0
   10.9475    0.8699   26.8127 H   0  0  0  0  0  0  0  0  0  0  0  0
    9.3398   -0.8767   27.6534 H   0  0  0  0  0  0  0  0  0  0  0  0
    8.5292   -2.6175   26.0758 H   0  0  0  0  0  0  0  0  0  0  0  0
   10.5696   -3.4819   23.0853 H   0  0  0  0  0  0  0  0  0  0  0  0
    9.0711   -5.3020   23.5917 H   0  0  0  0  0  0  0  0  0  0  0  0
    8.1614   -4.3197   24.7448 H   0  0  0  0  0  0  0  0  0  0  0  0
    9.8596   -4.7429   25.0918 H   0  0  0  0  0  0  0  0  0  0  0  0
  1  2  1  0
  2  3  1  0
  3  4  1  0
  4  5  2  0
  4  6  1  0
  6  7  2  3
  7  8  1  0
  8  9  2  0
  9 10  1  0
 10 11  2  0
 11 12  1  0
 12 13  2  0
 13 14  1  0
 11 15  1  0
 10 16  1  0
  9 17  1  0
  7 18  1  0
  6 19  1  0
  3 20  1  0
  2 21  1  0
 21 22  2  0
 22 23  1  0
 23 24  2  0
 24 25  1  0
 25 26  1  0
 25 27  2  0
 27 28  1  0
 24 29  1  0
 23 30  1  0
 22 31  1  0
  2 32  1  6
  1 33  1  0
  1 34  1  0
  1 35  1  0
 13  8  1  0
 27 21  1  0
M  END
>  <cnnaffinity>  (1) 
-4.96838

>  <filename>  (1) 
C[C@@H](NC(=O)C=Cc1cccnc1)c1cccc(Cl)c1F

$$$$
