
     RDKit          3D

 29 30  0  0  0  0  0  0  0  0999 V2000
    4.9602    1.8057   16.8906 H   0  0  0  0  0  0  0  0  0  0  0  0
    5.4134    1.3421   17.7659 C   0  0  0  0  0  0  0  0  0  0  0  0
    6.5885    0.7289   17.5636 N   0  0  0  0  0  0  0  0  0  0  0  0
    7.1579    0.1452   18.6268 C   0  0  0  0  0  0  0  0  0  0  0  0
    8.1018   -0.3597   18.4418 H   0  0  0  0  0  0  0  0  0  0  0  0
    6.6153    0.1308   19.9263 C   0  0  0  0  0  0  0  0  0  0  0  0
    7.2742   -0.7174   21.0102 C   0  0  1  0  0  0  0  0  0  0  0  0
    8.7014   -0.8182   20.6668 N   0  0  0  0  0  0  0  0  0  0  0  0
    9.0748    0.1297   20.7081 H   0  0  0  0  0  0  0  0  0  0  0  0
    9.1757   -1.3335   21.4020 H   0  0  0  0  0  0  0  0  0  0  0  0
    7.1542   -0.1197   22.4275 C   0  0  0  0  0  0  0  0  0  0  0  0
    7.8433   -0.6479   23.0982 H   0  0  0  0  0  0  0  0  0  0  0  0
    7.3981    0.9484   22.4441 H   0  0  0  0  0  0  0  0  0  0  0  0
    6.1534   -0.2317   22.8520 H   0  0  0  0  0  0  0  0  0  0  0  0
    6.5931   -2.1317   20.9704 C   0  0  0  0  0  0  0  0  0  0  0  0
    5.5236   -1.9820   21.1670 H   0  0  0  0  0  0  0  0  0  0  0  0
    6.6792   -2.5074   19.9386 H   0  0  0  0  0  0  0  0  0  0  0  0
    7.1862   -3.1321   21.9274 C   0  0  0  0  0  0  0  0  0  0  0  0
    8.3650   -3.7487   21.6617 C   0  0  0  0  0  0  0  0  0  0  0  0
    8.9931   -3.7014   20.7841 H   0  0  0  0  0  0  0  0  0  0  0  0
    8.7704   -4.5074   22.7065 O   0  0  0  0  0  0  0  0  0  0  0  0
    7.8384   -4.3629   23.6804 C   0  0  0  0  0  0  0  0  0  0  0  0
    8.0245   -4.8861   24.6093 H   0  0  0  0  0  0  0  0  0  0  0  0
    6.8440   -3.5383   23.2643 C   0  0  0  0  0  0  0  0  0  0  0  0
    5.9847   -3.2613   23.8635 H   0  0  0  0  0  0  0  0  0  0  0  0
    5.3927    0.7958   20.1144 C   0  0  0  0  0  0  0  0  0  0  0  0
    4.9146    0.8368   21.0963 H   0  0  0  0  0  0  0  0  0  0  0  0
    4.7820    1.3997   19.0125 C   0  0  0  0  0  0  0  0  0  0  0  0
    3.8274    1.9088   19.1020 H   0  0  0  0  0  0  0  0  0  0  0  0
  1  2  1  0
  2  3  2  0
  3  4  1  0
  4  5  1  0
  4  6  2  0
  6  7  1  0
  7  8  1  6
  8  9  1  0
  8 10  1  0
  7 11  1  0
 11 12  1  0
 11 13  1  0
 11 14  1  0
  7 15  1  0
 15 16  1  0
 15 17  1  0
 15 18  1  0
 18 19  2  0
 19 20  1  0
 19 21  1  0
 21 22  1  0
 22 23  1  0
 22 24  2  0
 24 25  1  0
  6 26  1  0
 26 27  1  0
 26 28  2  0
 28 29  1  0
 28  2  1  0
 24 18  1  0
M  END
>  <cnnaffinity>  (1) 
-4.37629

>  <filename>  (1) 
C[C@@](N)(Cc1ccoc1)c1cccnc1

$$$$
