
     RDKit          3D

 43 45  0  0  0  0  0  0  0  0999 V2000
   10.3894   -3.1053   23.5048 C   0  0  0  0  0  0  0  0  0  0  0  0
   10.1807   -1.7989   22.7419 C   0  0  1  0  0  0  0  0  0  0  0  0
    9.2991   -0.9065   23.6881 N   0  0  0  0  0  4  0  0  0  0  0  0
    7.7688   -1.0301   23.5364 C   0  0  0  0  0  0  0  0  0  0  0  0
    6.9884   -0.1882   22.4769 C   0  0  0  0  0  0  0  0  0  0  0  0
    6.1732    0.6353   22.8372 O   0  0  0  0  0  0  0  0  0  0  0  0
    7.2519   -0.5081   21.1625 N   0  0  0  0  0  0  0  0  0  0  0  0
    6.7701    0.0968   19.9688 C   0  0  0  0  0  0  0  0  0  0  0  0
    5.7034    1.0034   19.9602 C   0  0  0  0  0  0  0  0  0  0  0  0
    5.3176    1.5572   18.7313 C   0  0  0  0  0  0  0  0  0  0  0  0
    5.9917    1.1912   17.5627 C   0  0  0  0  0  0  0  0  0  0  0  0
    7.0043    0.3124   17.5565 N   0  0  0  0  0  0  0  0  0  0  0  0
    7.3771   -0.2136   18.7272 C   0  0  0  0  0  0  0  0  0  0  0  0
    8.2049   -0.9200   18.6914 H   0  0  0  0  0  0  0  0  0  0  0  0
    5.7144    1.6110   16.5974 H   0  0  0  0  0  0  0  0  0  0  0  0
    4.5137    2.2831   18.6714 H   0  0  0  0  0  0  0  0  0  0  0  0
    5.2106    1.2545   20.8956 H   0  0  0  0  0  0  0  0  0  0  0  0
    7.9024   -1.2677   21.0403 H   0  0  0  0  0  0  0  0  0  0  0  0
    7.2839   -0.7498   24.4707 H   0  0  0  0  0  0  0  0  0  0  0  0
    7.5101   -2.0805   23.3280 H   0  0  0  0  0  0  0  0  0  0  0  0
    9.6406    0.0833   23.6105 H   0  0  0  0  0  0  0  0  0  0  0  0
    9.6017   -1.2558   24.6347 H   0  0  0  0  0  0  0  0  0  0  0  0
   11.4857   -1.0864   22.4002 C   0  0  0  0  0  0  0  0  0  0  0  0
   12.6804   -1.7828   22.2824 C   0  0  0  0  0  0  0  0  0  0  0  0
   13.9399   -1.1374   22.2553 C   0  0  0  0  0  0  0  0  0  0  0  0
   14.0129    0.2304   22.3191 C   0  0  0  0  0  0  0  0  0  0  0  0
   12.8134    1.0065   22.3022 C   0  0  0  0  0  0  0  0  0  0  0  0
   12.8377    2.4299   22.3831 C   0  0  0  0  0  0  0  0  0  0  0  0
   11.6984    3.1657   22.1599 C   0  0  0  0  0  0  0  0  0  0  0  0
   10.4792    2.5102   21.8429 C   0  0  0  0  0  0  0  0  0  0  0  0
   10.4108    1.1341   21.8231 C   0  0  0  0  0  0  0  0  0  0  0  0
   11.5453    0.3395   22.1823 C   0  0  0  0  0  0  0  0  0  0  0  0
    9.5169    0.6404   21.4480 H   0  0  0  0  0  0  0  0  0  0  0  0
    9.5873    3.0869   21.6247 H   0  0  0  0  0  0  0  0  0  0  0  0
   11.7415    4.2518   22.1701 H   0  0  0  0  0  0  0  0  0  0  0  0
   13.7893    2.9225   22.5786 H   0  0  0  0  0  0  0  0  0  0  0  0
   14.9757    0.7334   22.3138 H   0  0  0  0  0  0  0  0  0  0  0  0
   14.8363   -1.7502   22.2380 H   0  0  0  0  0  0  0  0  0  0  0  0
   12.6884   -2.8613   22.3276 H   0  0  0  0  0  0  0  0  0  0  0  0
    9.5892   -1.9889   21.8355 H   0  0  0  0  0  0  0  0  0  0  0  0
   11.0949   -3.7392   22.9889 H   0  0  0  0  0  0  0  0  0  0  0  0
   10.8127   -2.8854   24.4916 H   0  0  0  0  0  0  0  0  0  0  0  0
    9.4473   -3.6455   23.6204 H   0  0  0  0  0  0  0  0  0  0  0  0
  1  2  1  0
  2  3  1  0
  3  4  1  0
  4  5  1  0
  5  6  2  0
  5  7  1  0
  7  8  1  0
  8  9  2  0
  9 10  1  0
 10 11  2  0
 11 12  1  0
 12 13  2  0
 13 14  1  0
 11 15  1  0
 10 16  1  0
  9 17  1  0
  7 18  1  0
  4 19  1  0
  4 20  1  0
  3 21  1  0
  3 22  1  0
  2 23  1  0
 23 24  2  0
 24 25  1  0
 25 26  2  0
 26 27  1  0
 27 28  2  0
 28 29  1  0
 29 30  2  0
 30 31  1  0
 31 32  2  0
 31 33  1  0
 30 34  1  0
 29 35  1  0
 28 36  1  0
 26 37  1  0
 25 38  1  0
 24 39  1  0
  2 40  1  6
  1 41  1  0
  1 42  1  0
  1 43  1  0
 13  8  1  0
 32 23  1  0
 32 27  1  0
M  CHG  1   3   1
M  END
>  <cnnaffinity>  (1) 
-5.72894

>  <filename>  (1) 
C[C@@H]([NH2+]CC(=O)Nc1cccnc1)c1cccc2ccccc12

$$$$
