
     RDKit          3D

 40 41  0  0  0  0  0  0  0  0999 V2000
    4.9895    1.8152   16.9448 H   0  0  0  0  0  0  0  0  0  0  0  0
    5.4705    1.3019   17.7748 C   0  0  0  0  0  0  0  0  0  0  0  0
    6.6560    0.7240   17.5210 N   0  0  0  0  0  0  0  0  0  0  0  0
    7.2717    0.1090   18.5327 C   0  0  0  0  0  0  0  0  0  0  0  0
    8.2558   -0.2995   18.3140 H   0  0  0  0  0  0  0  0  0  0  0  0
    6.7206   -0.0295   19.8216 C   0  0  0  0  0  0  0  0  0  0  0  0
    7.5285   -0.8193   20.8198 C   0  0  0  0  0  0  0  0  0  0  0  0
    8.7226   -0.9495   20.6487 O   0  0  0  0  0  0  0  0  0  0  0  0
    6.7947   -1.4115   22.0952 C   0  0  1  0  0  0  0  0  0  0  0  0
    5.7473   -1.5264   21.7769 H   0  0  0  0  0  0  0  0  0  0  0  0
    7.3038   -2.6977   22.6357 N   0  0  0  0  0  0  0  0  0  0  0  0
    7.8692   -3.2156   21.9710 H   0  0  0  0  0  0  0  0  0  0  0  0
    6.4209   -3.5996   23.3961 C   0  0  0  0  0  0  0  0  0  0  0  0
    7.0739   -4.3544   23.8526 H   0  0  0  0  0  0  0  0  0  0  0  0
    5.9745   -3.0617   24.2421 H   0  0  0  0  0  0  0  0  0  0  0  0
    5.3219   -4.3053   22.5737 C   0  0  0  0  0  0  0  0  0  0  0  0
    4.7593   -3.5117   22.0623 H   0  0  0  0  0  0  0  0  0  0  0  0
    5.8249   -4.8857   21.7751 H   0  0  0  0  0  0  0  0  0  0  0  0
    4.3735   -5.1506   23.3202 N   0  0  0  0  0  0  0  0  0  0  0  0
    3.2321   -5.4893   22.4541 C   0  0  0  0  0  0  0  0  0  0  0  0
    3.5621   -6.0738   21.5788 H   0  0  0  0  0  0  0  0  0  0  0  0
    2.7687   -4.5703   22.0844 H   0  0  0  0  0  0  0  0  0  0  0  0
    2.1995   -6.3157   23.2144 C   0  0  0  0  0  0  0  0  0  0  0  0
    1.8349   -5.7248   24.0668 H   0  0  0  0  0  0  0  0  0  0  0  0
    1.3446   -6.5556   22.5744 H   0  0  0  0  0  0  0  0  0  0  0  0
    2.7594   -7.5425   23.6712 O   0  0  0  0  0  0  0  0  0  0  0  0
    3.8861   -7.2840   24.5070 C   0  0  0  0  0  0  0  0  0  0  0  0
    4.3051   -8.2598   24.7610 H   0  0  0  0  0  0  0  0  0  0  0  0
    3.5613   -6.7979   25.4400 H   0  0  0  0  0  0  0  0  0  0  0  0
    4.9565   -6.4150   23.8225 C   0  0  0  0  0  0  0  0  0  0  0  0
    5.3947   -7.0142   22.9991 H   0  0  0  0  0  0  0  0  0  0  0  0
    5.7502   -6.1989   24.5476 H   0  0  0  0  0  0  0  0  0  0  0  0
    6.8985   -0.3756   23.2268 C   0  0  0  0  0  0  0  0  0  0  0  0
    7.9518   -0.2762   23.5070 H   0  0  0  0  0  0  0  0  0  0  0  0
    6.3504   -0.7272   24.1070 H   0  0  0  0  0  0  0  0  0  0  0  0
    6.5196    0.6158   22.9496 H   0  0  0  0  0  0  0  0  0  0  0  0
    5.4946    0.6085   20.0794 C   0  0  0  0  0  0  0  0  0  0  0  0
    5.0445    0.6041   21.0733 H   0  0  0  0  0  0  0  0  0  0  0  0
    4.8643    1.2862   19.0353 C   0  0  0  0  0  0  0  0  0  0  0  0
    3.9254    1.8069   19.1889 H   0  0  0  0  0  0  0  0  0  0  0  0
  1  2  1  0
  2  3  2  0
  3  4  1  0
  4  5  1  0
  4  6  2  0
  6  7  1  0
  7  8  2  0
  7  9  1  0
  9 10  1  6
  9 11  1  0
 11 12  1  0
 11 13  1  0
 13 14  1  0
 13 15  1  0
 13 16  1  0
 16 17  1  0
 16 18  1  0
 16 19  1  0
 19 20  1  0
 20 21  1  0
 20 22  1  0
 20 23  1  0
 23 24  1  0
 23 25  1  0
 23 26  1  0
 26 27  1  0
 27 28  1  0
 27 29  1  0
 27 30  1  0
 30 31  1  0
 30 32  1  0
  9 33  1  0
 33 34  1  0
 33 35  1  0
 33 36  1  0
  6 37  1  0
 37 38  1  0
 37 39  2  0
 39 40  1  0
 39  2  1  0
 30 19  1  0
M  END
>  <cnnaffinity>  (1) 
-4.18571

>  <filename>  (1) 
C[C@H](NCCN1CCOCC1)C(=O)c1cccnc1

$$$$
