
     RDKit          3D

 32 33  0  0  0  0  0  0  0  0999 V2000
    6.5717   -4.1388   25.1968 H   0  0  0  0  0  0  0  0  0  0  0  0
    7.0537   -4.0709   24.2226 C   0  0  0  0  0  0  0  0  0  0  0  0
    6.5637   -3.1761   23.3403 N   0  0  0  0  0  0  0  0  0  0  0  0
    7.1575   -3.1189   22.1215 C   0  0  0  0  0  0  0  0  0  0  0  0
    6.5998   -2.1672   21.0997 C   0  0  0  0  0  0  0  0  0  0  0  0
    5.5217   -2.0463   21.2537 H   0  0  0  0  0  0  0  0  0  0  0  0
    6.7467   -2.5647   20.0925 H   0  0  0  0  0  0  0  0  0  0  0  0
    7.2586   -0.7630   21.0882 C   0  0  2  0  0  0  0  0  0  0  0  0
    6.6018    0.0551   19.9757 C   0  0  0  0  0  0  0  0  0  0  0  0
    7.1604    0.0588   18.6846 C   0  0  0  0  0  0  0  0  0  0  0  0
    8.1025   -0.4538   18.4987 H   0  0  0  0  0  0  0  0  0  0  0  0
    6.6042    0.6477   17.6159 N   0  0  0  0  0  0  0  0  0  0  0  0
    5.4451    1.2916   17.8027 C   0  0  0  0  0  0  0  0  0  0  0  0
    5.0148    1.7681   16.9242 H   0  0  0  0  0  0  0  0  0  0  0  0
    4.7961    1.3589   19.0382 C   0  0  0  0  0  0  0  0  0  0  0  0
    3.8576    1.8964   19.1254 H   0  0  0  0  0  0  0  0  0  0  0  0
    5.3830    0.7366   20.1419 C   0  0  0  0  0  0  0  0  0  0  0  0
    4.8924    0.7830   21.1154 H   0  0  0  0  0  0  0  0  0  0  0  0
    8.6691   -0.9432   20.7450 N   0  0  0  0  0  0  0  0  0  0  0  0
    9.0756   -0.0101   20.7053 H   0  0  0  0  0  0  0  0  0  0  0  0
    9.1360   -1.4049   21.5197 H   0  0  0  0  0  0  0  0  0  0  0  0
    7.1545   -0.0714   22.4550 C   0  0  0  0  0  0  0  0  0  0  0  0
    6.1585   -0.1786   22.8928 H   0  0  0  0  0  0  0  0  0  0  0  0
    7.8577   -0.5163   23.1680 H   0  0  0  0  0  0  0  0  0  0  0  0
    7.3898    0.9948   22.3717 H   0  0  0  0  0  0  0  0  0  0  0  0
    8.2780   -3.9261   21.8438 C   0  0  0  0  0  0  0  0  0  0  0  0
    8.7375   -3.8610   20.8585 H   0  0  0  0  0  0  0  0  0  0  0  0
    8.8025   -4.8049   22.7229 N   0  0  0  0  0  0  0  0  0  0  0  0
    8.1692   -4.9009   23.8972 C   0  0  0  0  0  0  0  0  0  0  0  0
    8.7282   -5.9075   24.6618 N   0  0  0  0  0  0  0  0  0  0  0  0
    9.5908   -6.0975   24.1603 H   0  0  0  0  0  0  0  0  0  0  0  0
    8.8988   -5.6474   25.6183 H   0  0  0  0  0  0  0  0  0  0  0  0
  1  2  1  0
  2  3  2  0
  3  4  1  0
  4  5  1  0
  5  6  1  0
  5  7  1  0
  5  8  1  0
  8  9  1  0
  9 10  2  0
 10 11  1  0
 10 12  1  0
 12 13  2  0
 13 14  1  0
 13 15  1  0
 15 16  1  0
 15 17  2  0
 17 18  1  0
  8 19  1  6
 19 20  1  0
 19 21  1  0
  8 22  1  0
 22 23  1  0
 22 24  1  0
 22 25  1  0
  4 26  2  0
 26 27  1  0
 26 28  1  0
 28 29  2  0
 29 30  1  0
 30 31  1  0
 30 32  1  0
 29  2  1  0
 17  9  1  0
M  END
>  <cnnaffinity>  (1) 
-4.99225

>  <filename>  (1) 
C[C@@](N)(Cc1cnc(N)cn1)c1cccnc1

$$$$
