
     RDKit          3D

 35 37  0  0  0  0  0  0  0  0999 V2000
    5.0606    1.7487   16.9336 H   0  0  0  0  0  0  0  0  0  0  0  0
    5.4775    1.2924   17.8302 C   0  0  0  0  0  0  0  0  0  0  0  0
    6.6676    0.6963   17.6859 N   0  0  0  0  0  0  0  0  0  0  0  0
    7.2108    0.1388   18.7757 C   0  0  0  0  0  0  0  0  0  0  0  0
    8.1817   -0.3211   18.6165 H   0  0  0  0  0  0  0  0  0  0  0  0
    6.6100    0.1144   20.0419 C   0  0  0  0  0  0  0  0  0  0  0  0
    7.2575   -0.6469   21.1969 C   0  0  2  0  0  0  0  0  0  0  0  0
    6.8725   -0.1993   22.1263 H   0  0  0  0  0  0  0  0  0  0  0  0
    8.7114   -0.5049   21.2568 N   0  0  0  0  0  0  0  0  0  0  0  0
    9.3083    0.6224   21.8682 C   0  0  0  0  0  0  0  0  0  0  0  0
   10.5721    0.4358   22.5331 C   0  0  0  0  0  0  0  0  0  0  0  0
   10.9647   -0.5736   22.6024 H   0  0  0  0  0  0  0  0  0  0  0  0
   11.2713    1.4798   23.1027 C   0  0  0  0  0  0  0  0  0  0  0  0
   12.2757    1.3640   23.4991 H   0  0  0  0  0  0  0  0  0  0  0  0
   10.6673    2.7500   23.0675 C   0  0  0  0  0  0  0  0  0  0  0  0
    9.4130    2.9823   22.4597 C   0  0  0  0  0  0  0  0  0  0  0  0
    9.2100    4.3877   22.6548 C   0  0  0  0  0  0  0  0  0  0  0  0
    8.3812    5.0131   22.3355 H   0  0  0  0  0  0  0  0  0  0  0  0
   10.2222    4.9500   23.2922 N   0  0  0  0  0  0  0  0  0  0  0  0
   11.0976    3.9515   23.5352 N   0  0  0  0  0  0  0  0  0  0  0  0
   11.9777    4.1350   23.9866 H   0  0  0  0  0  0  0  0  0  0  0  0
    8.7390    1.8966   21.8212 C   0  0  0  0  0  0  0  0  0  0  0  0
    7.8182    2.0328   21.2608 H   0  0  0  0  0  0  0  0  0  0  0  0
    9.5689   -1.4777   20.5961 C   0  0  0  0  0  0  0  0  0  0  0  0
    9.5740   -2.4685   21.0770 H   0  0  0  0  0  0  0  0  0  0  0  0
   10.5915   -1.0973   20.5697 H   0  0  0  0  0  0  0  0  0  0  0  0
    9.2734   -1.6365   19.5523 H   0  0  0  0  0  0  0  0  0  0  0  0
    6.8258   -2.1227   21.1702 C   0  0  0  0  0  0  0  0  0  0  0  0
    7.3971   -2.7067   21.8982 H   0  0  0  0  0  0  0  0  0  0  0  0
    5.7622   -2.2130   21.4049 H   0  0  0  0  0  0  0  0  0  0  0  0
    6.9694   -2.5618   20.1789 H   0  0  0  0  0  0  0  0  0  0  0  0
    5.3600    0.7411   20.1721 C   0  0  0  0  0  0  0  0  0  0  0  0
    4.8442    0.7748   21.1355 H   0  0  0  0  0  0  0  0  0  0  0  0
    4.7860    1.3387   19.0460 C   0  0  0  0  0  0  0  0  0  0  0  0
    3.8322    1.8517   19.0969 H   0  0  0  0  0  0  0  0  0  0  0  0
  1  2  1  0
  2  3  2  0
  3  4  1  0
  4  5  1  0
  4  6  2  0
  6  7  1  0
  7  8  1  1
  7  9  1  0
  9 10  1  0
 10 11  2  0
 11 12  1  0
 11 13  1  0
 13 14  1  0
 13 15  2  0
 15 16  1  0
 16 17  1  0
 17 18  1  0
 17 19  2  0
 19 20  1  0
 20 21  1  0
 16 22  2  0
 22 23  1  0
  9 24  1  0
 24 25  1  0
 24 26  1  0
 24 27  1  0
  7 28  1  0
 28 29  1  0
 28 30  1  0
 28 31  1  0
  6 32  1  0
 32 33  1  0
 32 34  2  0
 34 35  1  0
 34  2  1  0
 22 10  1  0
 20 15  1  0
M  END
>  <cnnaffinity>  (1) 
-4.66739

>  <filename>  (1) 
C[C@H](c1cccnc1)N(C)c1ccc2[nH]ncc2c1

$$$$
