
     RDKit          3D

 28 29  0  0  0  0  0  0  0  0999 V2000
    4.9192    1.7930   16.9852 H   0  0  0  0  0  0  0  0  0  0  0  0
    5.3977    1.2985   17.8270 C   0  0  0  0  0  0  0  0  0  0  0  0
    6.5603    0.6825   17.5646 N   0  0  0  0  0  0  0  0  0  0  0  0
    7.1534    0.0638   18.5905 C   0  0  0  0  0  0  0  0  0  0  0  0
    8.1030   -0.4121   18.3592 H   0  0  0  0  0  0  0  0  0  0  0  0
    6.6433   -0.0152   19.8974 C   0  0  0  0  0  0  0  0  0  0  0  0
    7.4631   -0.7097   20.9811 C   0  0  1  0  0  0  0  0  0  0  0  0
    8.0916   -1.4563   20.4766 H   0  0  0  0  0  0  0  0  0  0  0  0
    8.4050    0.2811   21.6715 C   0  0  0  0  0  0  0  0  0  0  0  0
    9.7928    0.1444   21.5381 C   0  0  0  0  0  0  0  0  0  0  0  0
   10.1809   -0.6862   20.9477 H   0  0  0  0  0  0  0  0  0  0  0  0
   10.6682    1.0442   22.1563 C   0  0  0  0  0  0  0  0  0  0  0  0
   11.7419    0.9077   22.0482 H   0  0  0  0  0  0  0  0  0  0  0  0
   10.1660    2.1066   22.9139 C   0  0  0  0  0  0  0  0  0  0  0  0
   10.8433    2.8067   23.3972 H   0  0  0  0  0  0  0  0  0  0  0  0
    8.7719    2.2684   23.0427 C   0  0  0  0  0  0  0  0  0  0  0  0
    8.2344    3.3616   23.8169 C   0  0  0  0  0  0  0  0  0  0  0  0
    7.8275    4.2447   24.4493 N   0  0  0  0  0  0  0  0  0  0  0  0
    7.9058    1.3550   22.4218 C   0  0  0  0  0  0  0  0  0  0  0  0
    6.8311    1.5091   22.5150 H   0  0  0  0  0  0  0  0  0  0  0  0
    6.5933   -1.4669   21.9891 C   0  0  0  0  0  0  0  0  0  0  0  0
    6.0753   -0.7559   22.6361 H   0  0  0  0  0  0  0  0  0  0  0  0
    7.2029   -2.0969   22.6442 H   0  0  0  0  0  0  0  0  0  0  0  0
    5.8520   -2.0941   21.4788 H   0  0  0  0  0  0  0  0  0  0  0  0
    5.4318    0.6449   20.1506 C   0  0  0  0  0  0  0  0  0  0  0  0
    4.9809    0.6374   21.1462 H   0  0  0  0  0  0  0  0  0  0  0  0
    4.8052    1.3111   19.0935 C   0  0  0  0  0  0  0  0  0  0  0  0
    3.8739    1.8440   19.2479 H   0  0  0  0  0  0  0  0  0  0  0  0
  1  2  1  0
  2  3  2  0
  3  4  1  0
  4  5  1  0
  4  6  2  0
  6  7  1  0
  7  8  1  6
  7  9  1  0
  9 10  2  0
 10 11  1  0
 10 12  1  0
 12 13  1  0
 12 14  2  0
 14 15  1  0
 14 16  1  0
 16 17  1  0
 17 18  3  0
 16 19  2  0
 19 20  1  0
  7 21  1  0
 21 22  1  0
 21 23  1  0
 21 24  1  0
  6 25  1  0
 25 26  1  0
 25 27  2  0
 27 28  1  0
 27  2  1  0
 19  9  1  0
M  END
>  <cnnaffinity>  (1) 
-4.66212

>  <filename>  (1) 
C[C@@H](c1cccnc1)c1cccc(C#N)c1

$$$$
