
     RDKit          3D

 31 32  0  0  0  0  0  0  0  0999 V2000
   10.8214    0.2257   24.3623 H   0  0  0  0  0  0  0  0  0  0  0  0
   10.1273   -0.3260   23.9849 O   0  0  0  0  0  0  0  0  0  0  0  0
    8.9487    0.1727   24.4530 C   0  0  0  0  0  0  0  0  0  0  0  0
    8.9641    1.2475   25.3508 C   0  0  0  0  0  0  0  0  0  0  0  0
    9.9242    1.6775   25.6326 H   0  0  0  0  0  0  0  0  0  0  0  0
    7.7695    1.7453   25.8725 C   0  0  0  0  0  0  0  0  0  0  0  0
    7.7903    2.5874   26.5680 H   0  0  0  0  0  0  0  0  0  0  0  0
    6.5612    1.1529   25.4951 C   0  0  0  0  0  0  0  0  0  0  0  0
    5.6291    1.5193   25.9098 H   0  0  0  0  0  0  0  0  0  0  0  0
    6.5511    0.0820   24.5935 C   0  0  0  0  0  0  0  0  0  0  0  0
    5.6027   -0.3902   24.3403 H   0  0  0  0  0  0  0  0  0  0  0  0
    7.7357   -0.4127   24.0293 C   0  0  0  0  0  0  0  0  0  0  0  0
    7.7011   -1.6286   23.0927 C   0  0  2  0  0  0  0  0  0  0  0  0
    8.7120   -1.7674   22.6991 H   0  0  0  0  0  0  0  0  0  0  0  0
    6.8207   -1.4116   21.8504 C   0  0  0  0  0  0  0  0  0  0  0  0
    5.7878   -1.9786   21.6041 O   0  0  0  0  0  0  0  0  0  0  0  0
    7.4129   -0.5168   20.9875 O   0  0  0  0  0  0  0  0  0  0  0  0
    6.6797    0.0368   19.9319 C   0  0  0  0  0  0  0  0  0  0  0  0
    7.2116    0.0498   18.6271 C   0  0  0  0  0  0  0  0  0  0  0  0
    8.1552   -0.4456   18.4116 H   0  0  0  0  0  0  0  0  0  0  0  0
    6.5852    0.6425   17.5969 N   0  0  0  0  0  0  0  0  0  0  0  0
    5.4228    1.2715   17.8461 C   0  0  0  0  0  0  0  0  0  0  0  0
    4.9567    1.7792   17.0067 H   0  0  0  0  0  0  0  0  0  0  0  0
    4.8193    1.3007   19.1088 C   0  0  0  0  0  0  0  0  0  0  0  0
    3.8847    1.8337   19.2559 H   0  0  0  0  0  0  0  0  0  0  0  0
    5.4534    0.6556   20.1742 C   0  0  0  0  0  0  0  0  0  0  0  0
    5.0210    0.6176   21.1724 H   0  0  0  0  0  0  0  0  0  0  0  0
    7.2705   -2.8962   23.8642 C   0  0  0  0  0  0  0  0  0  0  0  0
    6.2620   -2.7804   24.2793 H   0  0  0  0  0  0  0  0  0  0  0  0
    7.9578   -3.0845   24.6948 H   0  0  0  0  0  0  0  0  0  0  0  0
    7.2642   -3.7745   23.2097 H   0  0  0  0  0  0  0  0  0  0  0  0
  1  2  1  0
  2  3  1  0
  3  4  2  0
  4  5  1  0
  4  6  1  0
  6  7  1  0
  6  8  2  0
  8  9  1  0
  8 10  1  0
 10 11  1  0
 10 12  2  0
 12 13  1  0
 13 14  1  6
 13 15  1  0
 15 16  2  0
 15 17  1  0
 17 18  1  0
 18 19  2  0
 19 20  1  0
 19 21  1  0
 21 22  2  0
 22 23  1  0
 22 24  1  0
 24 25  1  0
 24 26  2  0
 26 27  1  0
 13 28  1  0
 28 29  1  0
 28 30  1  0
 28 31  1  0
 12  3  1  0
 26 18  1  0
M  END
>  <cnnaffinity>  (1) 
-4.55812

>  <filename>  (1) 
C[C@@H](C(=O)Oc1cccnc1)c1ccccc1O

$$$$
