
     RDKit          3D

 31 33  0  0  0  0  0  0  0  0999 V2000
    4.9193    1.7833   16.9941 H   0  0  0  0  0  0  0  0  0  0  0  0
    5.4021    1.2942   17.8365 C   0  0  0  0  0  0  0  0  0  0  0  0
    6.5633    0.6742   17.5794 N   0  0  0  0  0  0  0  0  0  0  0  0
    7.1623    0.0595   18.6064 C   0  0  0  0  0  0  0  0  0  0  0  0
    8.1083   -0.4261   18.3777 H   0  0  0  0  0  0  0  0  0  0  0  0
    6.6514    0.0023   19.9116 C   0  0  0  0  0  0  0  0  0  0  0  0
    7.4668   -0.7433   20.9635 C   0  0  1  0  0  0  0  0  0  0  0  0
    7.5117   -2.0825   20.5287 F   0  0  0  0  0  0  0  0  0  0  0  0
    8.8922   -0.2182   21.0817 C   0  0  0  0  0  0  0  0  0  0  0  0
   10.0089   -1.0542   20.9793 C   0  0  0  0  0  0  0  0  0  0  0  0
    9.8552   -2.1087   20.7693 H   0  0  0  0  0  0  0  0  0  0  0  0
   11.3197   -0.5434   21.1309 C   0  0  0  0  0  0  0  0  0  0  0  0
   12.1595   -1.2260   21.0171 H   0  0  0  0  0  0  0  0  0  0  0  0
   11.5436    0.8036   21.4004 C   0  0  0  0  0  0  0  0  0  0  0  0
   12.5444    1.2238   21.5123 H   0  0  0  0  0  0  0  0  0  0  0  0
   10.4129    1.6285   21.5229 C   0  0  0  0  0  0  0  0  0  0  0  0
    9.0907    1.1496   21.3730 C   0  0  0  0  0  0  0  0  0  0  0  0
    8.2215    2.2842   21.5974 C   0  0  0  0  0  0  0  0  0  0  0  0
    7.1431    2.2829   21.5464 H   0  0  0  0  0  0  0  0  0  0  0  0
    9.0102    3.3605   21.8715 C   0  0  0  0  0  0  0  0  0  0  0  0
    8.7534    4.4071   22.0284 H   0  0  0  0  0  0  0  0  0  0  0  0
   10.3317    2.9557   21.8373 N   0  0  0  0  0  0  0  0  0  0  0  0
   11.1355    3.5542   21.9064 H   0  0  0  0  0  0  0  0  0  0  0  0
    6.8049   -0.8090   22.3347 C   0  0  0  0  0  0  0  0  0  0  0  0
    7.4061   -1.4094   23.0226 H   0  0  0  0  0  0  0  0  0  0  0  0
    6.6682    0.1876   22.7647 H   0  0  0  0  0  0  0  0  0  0  0  0
    5.8456   -1.3067   22.2116 H   0  0  0  0  0  0  0  0  0  0  0  0
    5.4310    0.6441   20.1553 C   0  0  0  0  0  0  0  0  0  0  0  0
    4.9886    0.6448   21.1563 H   0  0  0  0  0  0  0  0  0  0  0  0
    4.8020    1.3105   19.0996 C   0  0  0  0  0  0  0  0  0  0  0  0
    3.8730    1.8452   19.2552 H   0  0  0  0  0  0  0  0  0  0  0  0
  1  2  1  0
  2  3  2  0
  3  4  1  0
  4  5  1  0
  4  6  2  0
  6  7  1  0
  7  8  1  6
  7  9  1  0
  9 10  2  0
 10 11  1  0
 10 12  1  0
 12 13  1  0
 12 14  2  0
 14 15  1  0
 14 16  1  0
 16 17  2  0
 17 18  1  0
 18 19  1  0
 18 20  2  0
 20 21  1  0
 20 22  1  0
 22 23  1  0
  7 24  1  0
 24 25  1  0
 24 26  1  0
 24 27  1  0
  6 28  1  0
 28 29  1  0
 28 30  2  0
 30 31  1  0
 30  2  1  0
 17  9  1  0
 22 16  1  0
M  END
>  <cnnaffinity>  (1) 
-5.20694

>  <filename>  (1) 
C[C@@](F)(c1cccnc1)c1cccc2[nH]ccc12

$$$$
