
     RDKit          3D

 44 47  0  0  0  0  0  0  0  0999 V2000
   13.0849    2.8652   23.5209 C   0  0  0  0  0  0  0  0  0  0  0  0
   12.1324    1.7233   23.2510 C   0  0  2  0  0  0  0  0  0  0  0  0
   11.7496    0.8649   24.4436 C   0  0  0  0  0  0  0  0  0  0  0  0
   12.8693    0.2295   24.9155 F   0  0  0  0  0  0  0  0  0  0  0  0
   11.2524    1.5954   25.4683 F   0  0  0  0  0  0  0  0  0  0  0  0
   11.0264    0.0836   24.1796 H   0  0  0  0  0  0  0  0  0  0  0  0
   12.3273    0.9679   21.9784 C   0  0  0  0  0  0  0  0  0  0  0  0
   11.2245    1.9865   22.0644 C   0  0  1  0  0  0  0  0  0  0  0  0
    9.8276    1.5146   22.0408 C   0  0  0  0  0  0  0  0  0  0  0  0
    9.3572    0.6237   21.1901 N   0  0  0  0  0  0  0  0  0  0  0  0
    8.1460    0.3133   21.7148 C   0  0  0  0  0  0  0  0  0  0  0  0
    7.2990   -0.7014   21.0134 C   0  0  0  0  0  0  0  0  0  0  0  0
    6.5660   -0.0671   19.8493 C   0  0  0  0  0  0  0  0  0  0  0  0
    5.3801    0.6307   20.0934 C   0  0  0  0  0  0  0  0  0  0  0  0
    4.7756    1.3195   19.0421 C   0  0  0  0  0  0  0  0  0  0  0  0
    5.3927    1.3079   17.7874 C   0  0  0  0  0  0  0  0  0  0  0  0
    6.5372    0.6559   17.5351 N   0  0  0  0  0  0  0  0  0  0  0  0
    7.1046   -0.0045   18.5526 C   0  0  0  0  0  0  0  0  0  0  0  0
    8.0561   -0.4914   18.3341 H   0  0  0  0  0  0  0  0  0  0  0  0
    4.9474    1.8425   16.9487 H   0  0  0  0  0  0  0  0  0  0  0  0
    3.8593    1.8760   19.1887 H   0  0  0  0  0  0  0  0  0  0  0  0
    4.9646    0.6549   21.1035 H   0  0  0  0  0  0  0  0  0  0  0  0
    7.9761   -1.4910   20.6780 H   0  0  0  0  0  0  0  0  0  0  0  0
    6.5916   -1.1487   21.7157 H   0  0  0  0  0  0  0  0  0  0  0  0
    7.8188    0.9704   22.8069 N   0  0  0  0  0  0  0  0  0  0  0  0
    8.8936    1.7969   22.9887 N   0  0  0  0  0  0  0  0  0  0  0  0
    8.9541    2.7499   24.0426 C   0  0  0  0  0  0  0  0  0  0  0  0
    9.6155    3.9820   23.8840 C   0  0  0  0  0  0  0  0  0  0  0  0
    9.6314    4.8993   24.9399 C   0  0  0  0  0  0  0  0  0  0  0  0
    9.0218    4.5949   26.1582 C   0  0  0  0  0  0  0  0  0  0  0  0
    8.3716    3.3558   26.3132 C   0  0  0  0  0  0  0  0  0  0  0  0
    7.7227    3.0295   27.5634 C   0  0  0  0  0  0  0  0  0  0  0  0
    7.2141    2.7835   28.5741 N   0  0  0  0  0  0  0  0  0  0  0  0
    8.3262    2.4430   25.2527 C   0  0  0  0  0  0  0  0  0  0  0  0
    7.8156    1.4911   25.3543 H   0  0  0  0  0  0  0  0  0  0  0  0
    9.0457    5.3059   26.9785 H   0  0  0  0  0  0  0  0  0  0  0  0
   10.1205    5.8626   24.8082 H   0  0  0  0  0  0  0  0  0  0  0  0
   10.0801    4.2509   22.9398 H   0  0  0  0  0  0  0  0  0  0  0  0
   11.3618    2.9342   21.5368 H   0  0  0  0  0  0  0  0  0  0  0  0
   13.2559    1.2047   21.4974 H   0  0  0  0  0  0  0  0  0  0  0  0
   12.0027   -0.0703   21.8854 H   0  0  0  0  0  0  0  0  0  0  0  0
   13.5909    3.2025   22.6056 H   0  0  0  0  0  0  0  0  0  0  0  0
   13.8707    2.5139   24.1776 H   0  0  0  0  0  0  0  0  0  0  0  0
   12.5595    3.7157   23.9787 H   0  0  0  0  0  0  0  0  0  0  0  0
  2  1  1  1
  2  3  1  0
  3  4  1  0
  3  5  1  0
  3  6  1  0
  2  7  1  0
  7  8  1  0
  8  9  1  0
  9 10  2  0
 10 11  1  0
 11 12  1  0
 12 13  1  0
 13 14  2  0
 14 15  1  0
 15 16  2  0
 16 17  1  0
 17 18  2  0
 18 19  1  0
 16 20  1  0
 15 21  1  0
 14 22  1  0
 12 23  1  0
 12 24  1  0
 11 25  2  0
 25 26  1  0
 26 27  1  0
 27 28  2  0
 28 29  1  0
 29 30  2  0
 30 31  1  0
 31 32  1  0
 32 33  3  0
 31 34  2  0
 34 35  1  0
 30 36  1  0
 29 37  1  0
 28 38  1  0
  8 39  1  6
  7 40  1  0
  7 41  1  0
  1 42  1  0
  1 43  1  0
  1 44  1  0
  8  2  1  0
 26  9  1  0
 34 27  1  0
 18 13  1  0
M  END
>  <cnnaffinity>  (1) 
-5.92373

>  <filename>  (1) 
C[C@]1(C(F)F)C[C@H]1c1nc(Cc2cccnc2)nn1-c1cccc(C#N)c1

$$$$
