
     RDKit          3D

 33 34  0  0  0  0  0  0  0  0999 V2000
    6.2473   -1.4607   22.0845 H   0  0  0  0  0  0  0  0  0  0  0  0
    6.6342   -1.8927   21.3010 O   0  0  0  0  0  0  0  0  0  0  0  0
    7.3702   -0.7573   20.9356 C   0  0  1  0  0  0  0  0  0  0  0  0
    8.3558   -1.0543   20.5417 H   0  0  0  0  0  0  0  0  0  0  0  0
    6.6456    0.0473   19.9019 C   0  0  0  0  0  0  0  0  0  0  0  0
    7.1652    0.0709   18.6131 C   0  0  0  0  0  0  0  0  0  0  0  0
    8.1129   -0.4311   18.3969 H   0  0  0  0  0  0  0  0  0  0  0  0
    6.5844    0.6778   17.5705 N   0  0  0  0  0  0  0  0  0  0  0  0
    5.4194    1.3011   17.8033 C   0  0  0  0  0  0  0  0  0  0  0  0
    4.9613    1.8060   16.9552 H   0  0  0  0  0  0  0  0  0  0  0  0
    4.8002    1.3244   19.0579 C   0  0  0  0  0  0  0  0  0  0  0  0
    3.8588    1.8449   19.1865 H   0  0  0  0  0  0  0  0  0  0  0  0
    5.4227    0.6968   20.1325 C   0  0  0  0  0  0  0  0  0  0  0  0
    4.9765    0.7262   21.1290 H   0  0  0  0  0  0  0  0  0  0  0  0
    7.4304   -0.0221   22.1814 N   0  0  0  0  0  0  0  0  0  0  0  0
    7.7148    0.9355   22.0131 H   0  0  0  0  0  0  0  0  0  0  0  0
    8.3069   -0.5585   23.2336 C   0  0  1  0  0  0  0  0  0  0  0  0
    7.9945   -1.5958   23.4445 H   0  0  0  0  0  0  0  0  0  0  0  0
    9.7897   -0.6171   22.8348 C   0  0  0  0  0  0  0  0  0  0  0  0
   10.4188   -1.8700   22.7193 C   0  0  0  0  0  0  0  0  0  0  0  0
    9.8437   -2.7773   22.8999 H   0  0  0  0  0  0  0  0  0  0  0  0
   11.7683   -1.9644   22.3767 C   0  0  0  0  0  0  0  0  0  0  0  0
   12.2465   -2.9351   22.3606 H   0  0  0  0  0  0  0  0  0  0  0  0
   12.5141   -0.8105   22.1231 C   0  0  0  0  0  0  0  0  0  0  0  0
   13.5615   -0.8881   21.8474 H   0  0  0  0  0  0  0  0  0  0  0  0
   11.9055    0.4430   22.2404 C   0  0  0  0  0  0  0  0  0  0  0  0
   12.4835    1.3469   22.0659 H   0  0  0  0  0  0  0  0  0  0  0  0
   10.5588    0.5423   22.6044 C   0  0  0  0  0  0  0  0  0  0  0  0
   10.1183    1.5316   22.7206 H   0  0  0  0  0  0  0  0  0  0  0  0
    8.0778    0.2553   24.5021 C   0  0  0  0  0  0  0  0  0  0  0  0
    8.6401   -0.1690   25.3405 H   0  0  0  0  0  0  0  0  0  0  0  0
    8.4089    1.2906   24.3609 H   0  0  0  0  0  0  0  0  0  0  0  0
    7.0153    0.2647   24.7644 H   0  0  0  0  0  0  0  0  0  0  0  0
  1  2  1  0
  2  3  1  0
  3  4  1  6
  3  5  1  0
  5  6  2  0
  6  7  1  0
  6  8  1  0
  8  9  2  0
  9 10  1  0
  9 11  1  0
 11 12  1  0
 11 13  2  0
 13 14  1  0
  3 15  1  0
 15 16  1  0
 15 17  1  0
 17 18  1  1
 17 19  1  0
 19 20  2  0
 20 21  1  0
 20 22  1  0
 22 23  1  0
 22 24  2  0
 24 25  1  0
 24 26  1  0
 26 27  1  0
 26 28  2  0
 28 29  1  0
 17 30  1  0
 30 31  1  0
 30 32  1  0
 30 33  1  0
 13  5  1  0
 28 19  1  0
M  END
>  <cnnaffinity>  (1) 
-4.31494

>  <filename>  (1) 
C[C@@H](N[C@@H](O)c1cccnc1)c1ccccc1

$$$$
