
     RDKit          3D

 33 35  0  0  0  0  0  0  0  0999 V2000
    6.6708   -1.9166   21.4482 C   0  0  0  0  0  0  0  0  0  0  0  0
    7.5215   -0.8085   20.8427 C   0  0  2  0  0  0  0  0  0  0  0  0
    7.8725    0.2011   21.8378 N   0  0  0  0  0  0  0  0  0  0  0  0
    8.5520   -0.0800   23.0201 C   0  0  0  0  0  0  0  0  0  0  0  0
    9.3909   -1.1869   22.9935 C   0  0  0  0  0  0  0  0  0  0  0  0
   10.0403   -1.5946   24.1484 C   0  0  0  0  0  0  0  0  0  0  0  0
    9.8820   -0.9613   25.3132 N   0  0  0  0  0  0  0  0  0  0  0  0
    9.0871    0.1273   25.3456 C   0  0  0  0  0  0  0  0  0  0  0  0
    8.8693    0.7125   26.5874 C   0  0  0  0  0  0  0  0  0  0  0  0
    8.0633    1.8486   26.6883 C   0  0  0  0  0  0  0  0  0  0  0  0
    7.6185    2.6463   28.3641 Br  0  0  0  0  0  0  0  0  0  0  0  0
    7.4951    2.3804   25.5335 C   0  0  0  0  0  0  0  0  0  0  0  0
    7.6189    1.7906   24.3312 N   0  0  0  0  0  0  0  0  0  0  0  0
    8.4014    0.6661   24.2226 C   0  0  0  0  0  0  0  0  0  0  0  0
    6.8694    3.2575   25.6462 H   0  0  0  0  0  0  0  0  0  0  0  0
    9.3084    0.2464   27.4629 H   0  0  0  0  0  0  0  0  0  0  0  0
   10.6820   -2.4649   24.1096 H   0  0  0  0  0  0  0  0  0  0  0  0
    9.5267   -1.7285   22.0644 H   0  0  0  0  0  0  0  0  0  0  0  0
    7.2224    0.9838   21.8803 H   0  0  0  0  0  0  0  0  0  0  0  0
    6.7267   -0.0556   19.8227 C   0  0  0  0  0  0  0  0  0  0  0  0
    5.5110    0.5745   20.1231 C   0  0  0  0  0  0  0  0  0  0  0  0
    4.8765    1.2685   19.0966 C   0  0  0  0  0  0  0  0  0  0  0  0
    5.4511    1.3072   17.8219 C   0  0  0  0  0  0  0  0  0  0  0  0
    6.6141    0.6939   17.5387 N   0  0  0  0  0  0  0  0  0  0  0  0
    7.2384    0.0397   18.5301 C   0  0  0  0  0  0  0  0  0  0  0  0
    8.1851   -0.4444   18.3127 H   0  0  0  0  0  0  0  0  0  0  0  0
    4.9420    1.8530   17.0336 H   0  0  0  0  0  0  0  0  0  0  0  0
    3.9458    1.7939   19.2756 H   0  0  0  0  0  0  0  0  0  0  0  0
    5.0836    0.5412   21.1261 H   0  0  0  0  0  0  0  0  0  0  0  0
    8.4234   -1.2450   20.3930 H   0  0  0  0  0  0  0  0  0  0  0  0
    7.2352   -2.4562   22.2134 H   0  0  0  0  0  0  0  0  0  0  0  0
    5.7757   -1.4976   21.9098 H   0  0  0  0  0  0  0  0  0  0  0  0
    6.3643   -2.6189   20.6679 H   0  0  0  0  0  0  0  0  0  0  0  0
  1  2  1  0
  2  3  1  0
  3  4  1  0
  4  5  2  0
  5  6  1  0
  6  7  2  0
  7  8  1  0
  8  9  2  0
  9 10  1  0
 10 11  1  0
 10 12  2  0
 12 13  1  0
 13 14  2  0
 12 15  1  0
  9 16  1  0
  6 17  1  0
  5 18  1  0
  3 19  1  0
  2 20  1  0
 20 21  2  0
 21 22  1  0
 22 23  2  0
 23 24  1  0
 24 25  2  0
 25 26  1  0
 23 27  1  0
 22 28  1  0
 21 29  1  0
  2 30  1  6
  1 31  1  0
  1 32  1  0
  1 33  1  0
 14  4  1  0
 25 20  1  0
 14  8  1  0
M  END
>  <cnnaffinity>  (1) 
-5.69769

>  <filename>  (1) 
C[C@H](Nc1ccnc2cc(Br)cnc12)c1cccnc1

$$$$
