
     RDKit          3D

 36 37  0  0  0  0  0  0  0  0999 V2000
    5.0393    1.6660   16.9682 H   0  0  0  0  0  0  0  0  0  0  0  0
    5.4849    1.1788   17.8349 C   0  0  0  0  0  0  0  0  0  0  0  0
    6.6240    0.5014   17.6172 N   0  0  0  0  0  0  0  0  0  0  0  0
    7.1990   -0.0878   18.6723 C   0  0  0  0  0  0  0  0  0  0  0  0
    8.1288   -0.6185   18.4611 H   0  0  0  0  0  0  0  0  0  0  0  0
    6.7013   -0.0527   19.9890 C   0  0  0  0  0  0  0  0  0  0  0  0
    7.4941   -0.7189   21.1066 C   0  0  2  0  0  0  0  0  0  0  0  0
    8.5585   -0.5913   20.8704 H   0  0  0  0  0  0  0  0  0  0  0  0
    7.3752   -2.5519   21.1251 S   0  0  0  0  0  0  0  0  0  0  0  0
    5.5758   -2.8200   21.1426 C   0  0  0  0  0  0  0  0  0  0  0  0
    5.1979   -2.4323   20.1905 H   0  0  0  0  0  0  0  0  0  0  0  0
    5.1106   -2.2557   21.9544 H   0  0  0  0  0  0  0  0  0  0  0  0
    5.2736   -4.2208   21.2885 N   0  0  0  0  0  0  0  0  0  0  0  0
    5.9532   -4.7494   20.7532 H   0  0  0  0  0  0  0  0  0  0  0  0
    5.2531   -4.7288   22.6655 C   0  0  0  0  0  0  0  0  0  0  0  0
    5.0922   -5.8121   22.5830 H   0  0  0  0  0  0  0  0  0  0  0  0
    6.2277   -4.5887   23.1714 H   0  0  0  0  0  0  0  0  0  0  0  0
    4.1637   -4.1347   23.5546 C   0  0  0  0  0  0  0  0  0  0  0  0
    4.4259   -3.0538   24.4204 C   0  0  0  0  0  0  0  0  0  0  0  0
    5.4321   -2.6325   24.4802 H   0  0  0  0  0  0  0  0  0  0  0  0
    3.4022   -2.4609   25.1692 C   0  0  0  0  0  0  0  0  0  0  0  0
    3.6110   -1.5845   25.7758 H   0  0  0  0  0  0  0  0  0  0  0  0
    2.1006   -2.9667   25.1110 C   0  0  0  0  0  0  0  0  0  0  0  0
    1.3045   -2.4976   25.6862 H   0  0  0  0  0  0  0  0  0  0  0  0
    1.8400   -4.0882   24.3168 C   0  0  0  0  0  0  0  0  0  0  0  0
    0.8407   -4.5124   24.2974 H   0  0  0  0  0  0  0  0  0  0  0  0
    2.8603   -4.6670   23.5552 C   0  0  0  0  0  0  0  0  0  0  0  0
    2.6399   -5.5289   22.9292 H   0  0  0  0  0  0  0  0  0  0  0  0
    7.2580   -0.1026   22.4884 C   0  0  0  0  0  0  0  0  0  0  0  0
    7.3785    0.9855   22.4312 H   0  0  0  0  0  0  0  0  0  0  0  0
    7.9668   -0.4903   23.2244 H   0  0  0  0  0  0  0  0  0  0  0  0
    6.2483   -0.3095   22.8572 H   0  0  0  0  0  0  0  0  0  0  0  0
    5.4968    0.6460   20.1818 C   0  0  0  0  0  0  0  0  0  0  0  0
    5.0462    0.7256   21.1725 H   0  0  0  0  0  0  0  0  0  0  0  0
    4.8857    1.2717   19.0920 C   0  0  0  0  0  0  0  0  0  0  0  0
    3.9710    1.8428   19.2124 H   0  0  0  0  0  0  0  0  0  0  0  0
  1  2  1  0
  2  3  2  0
  3  4  1  0
  4  5  1  0
  4  6  2  0
  6  7  1  0
  7  8  1  6
  7  9  1  0
  9 10  1  0
 10 11  1  0
 10 12  1  0
 10 13  1  0
 13 14  1  0
 13 15  1  0
 15 16  1  0
 15 17  1  0
 15 18  1  0
 18 19  2  0
 19 20  1  0
 19 21  1  0
 21 22  1  0
 21 23  2  0
 23 24  1  0
 23 25  1  0
 25 26  1  0
 25 27  2  0
 27 28  1  0
  7 29  1  0
 29 30  1  0
 29 31  1  0
 29 32  1  0
  6 33  1  0
 33 34  1  0
 33 35  2  0
 35 36  1  0
 35  2  1  0
 27 18  1  0
M  END
>  <cnnaffinity>  (1) 
-4.24872

>  <filename>  (1) 
C[C@@H](SCNCc1ccccc1)c1cccnc1

$$$$
