
     RDKit          3D

 31 33  0  0  0  0  0  0  0  0999 V2000
    4.9305    1.8184   16.9922 H   0  0  0  0  0  0  0  0  0  0  0  0
    5.3916    1.2955   17.8288 C   0  0  0  0  0  0  0  0  0  0  0  0
    6.5502    0.6757   17.5595 N   0  0  0  0  0  0  0  0  0  0  0  0
    7.1496    0.0276   18.5629 C   0  0  0  0  0  0  0  0  0  0  0  0
    8.1041   -0.4436   18.3262 H   0  0  0  0  0  0  0  0  0  0  0  0
    6.6404   -0.0519   19.8733 C   0  0  0  0  0  0  0  0  0  0  0  0
    7.5782   -0.8945   21.1364 S   0  0  0  0  0  0  0  0  0  0  0  0
    8.5864    0.5395   21.7348 C   0  0  1  0  0  0  0  0  0  0  0  0
    9.0142    0.9855   20.8304 H   0  0  0  0  0  0  0  0  0  0  0  0
    7.7528    1.6292   22.3516 C   0  0  0  0  0  0  0  0  0  0  0  0
    6.8202    1.4552   23.8081 S   0  0  0  0  0  0  0  0  0  0  0  0
    6.1785    3.0695   23.6472 C   0  0  0  0  0  0  0  0  0  0  0  0
    5.3003    3.7096   24.5362 C   0  0  0  0  0  0  0  0  0  0  0  0
    4.9712    3.2135   25.4420 H   0  0  0  0  0  0  0  0  0  0  0  0
    4.8739    4.9963   24.2333 C   0  0  0  0  0  0  0  0  0  0  0  0
    4.1943    5.5095   24.9064 H   0  0  0  0  0  0  0  0  0  0  0  0
    5.3134    5.6353   23.0552 C   0  0  0  0  0  0  0  0  0  0  0  0
    4.9596    6.6356   22.8357 H   0  0  0  0  0  0  0  0  0  0  0  0
    6.1947    5.0065   22.1850 C   0  0  0  0  0  0  0  0  0  0  0  0
    6.5107    5.5043   21.2734 H   0  0  0  0  0  0  0  0  0  0  0  0
    6.6714    3.7107   22.4898 C   0  0  0  0  0  0  0  0  0  0  0  0
    7.6221    2.8635   21.8136 C   0  0  0  0  0  0  0  0  0  0  0  0
    8.2788    3.1365   20.9986 H   0  0  0  0  0  0  0  0  0  0  0  0
    9.7196    0.0697   22.6397 C   0  0  0  0  0  0  0  0  0  0  0  0
    9.3191   -0.3701   23.5557 H   0  0  0  0  0  0  0  0  0  0  0  0
   10.3358   -0.6707   22.1236 H   0  0  0  0  0  0  0  0  0  0  0  0
   10.3558    0.9227   22.9094 H   0  0  0  0  0  0  0  0  0  0  0  0
    5.4301    0.6116   20.1413 C   0  0  0  0  0  0  0  0  0  0  0  0
    5.0300    0.6243   21.1588 H   0  0  0  0  0  0  0  0  0  0  0  0
    4.7961    1.2893   19.0937 C   0  0  0  0  0  0  0  0  0  0  0  0
    3.8728    1.8392   19.2422 H   0  0  0  0  0  0  0  0  0  0  0  0
  1  2  1  0
  2  3  2  0
  3  4  1  0
  4  5  1  0
  4  6  2  0
  6  7  1  0
  7  8  1  0
  8  9  1  6
  8 10  1  0
 10 11  1  0
 11 12  1  0
 12 13  2  0
 13 14  1  0
 13 15  1  0
 15 16  1  0
 15 17  2  0
 17 18  1  0
 17 19  1  0
 19 20  1  0
 19 21  2  0
 21 22  1  0
 22 23  1  0
  8 24  1  0
 24 25  1  0
 24 26  1  0
 24 27  1  0
  6 28  1  0
 28 29  1  0
 28 30  2  0
 30 31  1  0
 30  2  1  0
 22 10  2  0
 21 12  1  0
M  END
>  <cnnaffinity>  (1) 
-4.98297

>  <filename>  (1) 
C[C@@H](Sc1cccnc1)c1cc2ccccc2s1

$$$$
