
     RDKit          3D

 33 35  0  0  0  0  0  0  0  0999 V2000
    4.7207    2.2321   16.8342 H   0  0  0  0  0  0  0  0  0  0  0  0
    5.1525    1.5874   17.5936 C   0  0  0  0  0  0  0  0  0  0  0  0
    6.2430    0.8957   17.2232 N   0  0  0  0  0  0  0  0  0  0  0  0
    6.8482    0.1460   18.1513 C   0  0  0  0  0  0  0  0  0  0  0  0
    7.7385   -0.3951   17.8406 H   0  0  0  0  0  0  0  0  0  0  0  0
    6.3949    0.0432   19.4906 C   0  0  0  0  0  0  0  0  0  0  0  0
    7.0760   -0.6920   20.4896 N   0  0  0  0  0  0  0  0  0  0  0  0
    6.5446   -0.9327   21.3098 H   0  0  0  0  0  0  0  0  0  0  0  0
    8.4412   -0.7876   20.6331 C   0  0  0  0  0  0  0  0  0  0  0  0
    9.2288   -0.2252   19.9049 O   0  0  0  0  0  0  0  0  0  0  0  0
    8.8496   -1.6790   21.7845 C   0  0  2  0  0  0  0  0  0  0  0  0
    8.1306   -2.4930   21.8990 H   0  0  0  0  0  0  0  0  0  0  0  0
    8.7843   -0.8035   22.9711 C   0  0  0  0  0  0  0  0  0  0  0  0
    9.1665    0.4299   23.0182 N   0  0  0  0  0  0  0  0  0  0  0  0
    9.2723    0.7076   24.3317 C   0  0  0  0  0  0  0  0  0  0  0  0
   10.3783    1.6552   24.9448 C   0  0  0  0  0  0  0  0  0  0  0  0
   10.7402    2.4462   24.2642 H   0  0  0  0  0  0  0  0  0  0  0  0
   10.7872    1.2704   26.0772 C   0  0  0  0  0  0  0  0  0  0  0  0
   10.6615    0.5197   26.8835 H   0  0  0  0  0  0  0  0  0  0  0  0
    8.7265   -0.6348   26.5961 C   0  0  0  0  0  0  0  0  0  0  0  0
    8.9446    0.0915   27.4776 H   0  0  0  0  0  0  0  0  0  0  0  0
    8.6128   -0.6656   26.5133 C   0  0  0  0  0  0  0  0  0  0  0  0
    8.1942   -1.6773   27.0729 H   0  0  0  0  0  0  0  0  0  0  0  0
    8.7935   -0.4025   25.1333 C   0  0  0  0  0  0  0  0  0  0  0  0
    8.5517   -1.3742   24.1751 O   0  0  0  0  0  0  0  0  0  0  0  0
   10.2679   -2.2453   21.5984 C   0  0  0  0  0  0  0  0  0  0  0  0
   10.5136   -2.9676   22.3828 H   0  0  0  0  0  0  0  0  0  0  0  0
   11.0194   -1.4462   21.6052 H   0  0  0  0  0  0  0  0  0  0  0  0
   10.2957   -2.7152   20.6194 H   0  0  0  0  0  0  0  0  0  0  0  0
    5.2171    0.7123   19.8381 C   0  0  0  0  0  0  0  0  0  0  0  0
    4.8291    0.6332   20.8539 H   0  0  0  0  0  0  0  0  0  0  0  0
    4.5934    1.5093   18.8739 C   0  0  0  0  0  0  0  0  0  0  0  0
    3.7029    2.0825   19.1081 H   0  0  0  0  0  0  0  0  0  0  0  0
  1  2  1  0
  2  3  2  0
  3  4  1  0
  4  5  1  0
  4  6  2  0
  6  7  1  0
  7  8  1  0
  7  9  1  0
  9 10  2  0
  9 11  1  0
 11 12  1  1
 11 13  1  0
 13 14  2  0
 14 15  1  0
 15 16  2  0
 16 17  1  0
 16 18  1  0
 18 19  1  0
 18 20  2  0
 20 21  1  0
 20 22  1  0
 22 23  1  0
 22 24  2  0
 24 25  1  0
 11 26  1  0
 26 27  1  0
 26 28  1  0
 26 29  1  0
  6 30  1  0
 30 31  1  0
 30 32  2  0
 32 33  1  0
 32  2  1  0
 25 13  1  0
 24 15  1  0
M  END
>  <cnnaffinity>  (1) 
-5.15078

>  <filename>  (1) 
C[C@H](C(=O)Nc1cccnc1)c1nc2ccccc2o1

$$$$
