
     RDKit          3D

 33 34  0  0  0  0  0  0  0  0999 V2000
    4.9197    1.7943   16.9855 H   0  0  0  0  0  0  0  0  0  0  0  0
    5.3952    1.2982   17.8292 C   0  0  0  0  0  0  0  0  0  0  0  0
    6.5589    0.6831   17.5705 N   0  0  0  0  0  0  0  0  0  0  0  0
    7.1571    0.0625   18.5935 C   0  0  0  0  0  0  0  0  0  0  0  0
    8.1081   -0.4160   18.3587 H   0  0  0  0  0  0  0  0  0  0  0  0
    6.6474   -0.0069   19.9007 C   0  0  0  0  0  0  0  0  0  0  0  0
    7.4670   -0.6950   20.9842 C   0  0  1  0  0  0  0  0  0  0  0  0
    8.0966   -1.4446   20.4831 H   0  0  0  0  0  0  0  0  0  0  0  0
    8.3978    0.3078   21.6714 C   0  0  0  0  0  0  0  0  0  0  0  0
    9.7853    0.1692   21.5404 C   0  0  0  0  0  0  0  0  0  0  0  0
   10.1805   -0.6633   20.9591 H   0  0  0  0  0  0  0  0  0  0  0  0
   10.6499    1.0845   22.1455 C   0  0  0  0  0  0  0  0  0  0  0  0
   11.7223    0.9539   22.0432 H   0  0  0  0  0  0  0  0  0  0  0  0
   10.1482    2.1532   22.8886 C   0  0  0  0  0  0  0  0  0  0  0  0
   10.8371    2.8446   23.3722 H   0  0  0  0  0  0  0  0  0  0  0  0
    8.7583    2.3020   23.0140 C   0  0  0  0  0  0  0  0  0  0  0  0
    8.0917    3.6461   23.9961 S   0  0  0  0  0  0  0  0  0  0  0  0
    6.8662    3.1869   24.6405 O   0  0  0  0  0  0  0  0  0  0  0  0
    9.1831    4.2464   24.7493 O   0  0  0  0  0  0  0  0  0  0  0  0
    7.5781    4.8709   22.8401 C   0  0  0  0  0  0  0  0  0  0  0  0
    8.4463    5.1943   22.2739 H   0  0  0  0  0  0  0  0  0  0  0  0
    6.8017    4.4445   22.2108 H   0  0  0  0  0  0  0  0  0  0  0  0
    7.1767    5.6837   23.4455 H   0  0  0  0  0  0  0  0  0  0  0  0
    7.8861    1.3817   22.4150 C   0  0  0  0  0  0  0  0  0  0  0  0
    6.8045    1.4835   22.5151 H   0  0  0  0  0  0  0  0  0  0  0  0
    6.5989   -1.4569   21.9950 C   0  0  0  0  0  0  0  0  0  0  0  0
    7.2097   -2.0931   22.6464 H   0  0  0  0  0  0  0  0  0  0  0  0
    6.0750   -0.7495   22.6425 H   0  0  0  0  0  0  0  0  0  0  0  0
    5.8611   -2.0872   21.4830 H   0  0  0  0  0  0  0  0  0  0  0  0
    5.4314    0.6452   20.1459 C   0  0  0  0  0  0  0  0  0  0  0  0
    4.9795    0.6369   21.1424 H   0  0  0  0  0  0  0  0  0  0  0  0
    4.8016    1.3111   19.0933 C   0  0  0  0  0  0  0  0  0  0  0  0
    3.8731    1.8434   19.2452 H   0  0  0  0  0  0  0  0  0  0  0  0
  1  2  1  0
  2  3  2  0
  3  4  1  0
  4  5  1  0
  4  6  2  0
  6  7  1  0
  7  8  1  6
  7  9  1  0
  9 10  2  0
 10 11  1  0
 10 12  1  0
 12 13  1  0
 12 14  2  0
 14 15  1  0
 14 16  1  0
 16 17  1  0
 17 18  2  0
 17 19  2  0
 17 20  1  0
 20 21  1  0
 20 22  1  0
 20 23  1  0
 16 24  2  0
 24 25  1  0
  7 26  1  0
 26 27  1  0
 26 28  1  0
 26 29  1  0
  6 30  1  0
 30 31  1  0
 30 32  2  0
 32 33  1  0
 32  2  1  0
 24  9  1  0
M  END
>  <cnnaffinity>  (1) 
-4.75053

>  <filename>  (1) 
C[C@@H](c1cccnc1)c1cccc(S(C)(=O)=O)c1

$$$$
