
     RDKit          3D

 29 30  0  0  0  0  0  0  0  0999 V2000
    4.8857    1.9468   16.9022 H   0  0  0  0  0  0  0  0  0  0  0  0
    5.4330    1.4472   17.6953 C   0  0  0  0  0  0  0  0  0  0  0  0
    6.6214    0.8815   17.4147 N   0  0  0  0  0  0  0  0  0  0  0  0
    7.2736    0.2621   18.4193 C   0  0  0  0  0  0  0  0  0  0  0  0
    8.2162   -0.2235   18.1862 H   0  0  0  0  0  0  0  0  0  0  0  0
    6.7666    0.1697   19.7339 C   0  0  0  0  0  0  0  0  0  0  0  0
    7.4345   -0.6748   20.8207 C   0  0  2  0  0  0  0  0  0  0  0  0
    8.4417   -0.9432   20.4970 H   0  0  0  0  0  0  0  0  0  0  0  0
    6.6614   -1.9955   21.0426 C   0  0  0  0  0  0  0  0  0  0  0  0
    5.5519   -2.1332   20.5334 O   0  0  0  0  0  0  0  0  0  0  0  0
    7.2333   -3.1475   21.7683 C   0  0  0  0  0  0  0  0  0  0  0  0
    8.5212   -3.1041   22.3372 C   0  0  0  0  0  0  0  0  0  0  0  0
    9.1200   -2.1986   22.2758 H   0  0  0  0  0  0  0  0  0  0  0  0
    9.0517   -4.2380   22.9703 C   0  0  0  0  0  0  0  0  0  0  0  0
   10.0538   -4.2077   23.3953 H   0  0  0  0  0  0  0  0  0  0  0  0
    8.2944   -5.4171   23.0309 C   0  0  0  0  0  0  0  0  0  0  0  0
    8.6982   -6.3026   23.5122 H   0  0  0  0  0  0  0  0  0  0  0  0
    7.0076   -5.4717   22.4804 C   0  0  0  0  0  0  0  0  0  0  0  0
    5.9768   -7.0883   22.5070 Br  0  0  0  0  0  0  0  0  0  0  0  0
    6.4774   -4.3327   21.8766 C   0  0  0  0  0  0  0  0  0  0  0  0
    5.4582   -4.3679   21.4929 H   0  0  0  0  0  0  0  0  0  0  0  0
    7.5414    0.1187   22.1390 C   0  0  0  0  0  0  0  0  0  0  0  0
    8.0355    1.0837   21.9798 H   0  0  0  0  0  0  0  0  0  0  0  0
    8.1247   -0.4424   22.8759 H   0  0  0  0  0  0  0  0  0  0  0  0
    6.5480    0.3113   22.5589 H   0  0  0  0  0  0  0  0  0  0  0  0
    5.5359    0.7657   20.0096 C   0  0  0  0  0  0  0  0  0  0  0  0
    5.1071    0.6984   21.0077 H   0  0  0  0  0  0  0  0  0  0  0  0
    4.8671    1.4117   18.9727 C   0  0  0  0  0  0  0  0  0  0  0  0
    3.9057    1.8796   19.1459 H   0  0  0  0  0  0  0  0  0  0  0  0
  1  2  1  0
  2  3  2  0
  3  4  1  0
  4  5  1  0
  4  6  2  0
  6  7  1  0
  7  8  1  6
  7  9  1  0
  9 10  2  0
  9 11  1  0
 11 12  2  0
 12 13  1  0
 12 14  1  0
 14 15  1  0
 14 16  2  0
 16 17  1  0
 16 18  1  0
 18 19  1  0
 18 20  2  0
 20 21  1  0
  7 22  1  0
 22 23  1  0
 22 24  1  0
 22 25  1  0
  6 26  1  0
 26 27  1  0
 26 28  2  0
 28 29  1  0
 28  2  1  0
 20 11  1  0
M  END
>  <cnnaffinity>  (1) 
-4.08813

>  <filename>  (1) 
C[C@@H](C(=O)c1cccc(Br)c1)c1cccnc1

$$$$
