
     RDKit          3D

 33 34  0  0  0  0  0  0  0  0999 V2000
    8.2174   -0.3344   24.0933 C   0  0  0  0  0  0  0  0  0  0  0  0
    9.0531   -0.3590   22.8090 C   0  0  1  0  0  0  0  0  0  0  0  0
    8.3238    0.2250   21.6519 N   0  0  0  0  0  4  0  0  0  0  0  0
    7.3955   -0.7042   20.9907 C   0  0  0  0  0  0  0  0  0  0  0  0
    6.6667    0.0377   19.9122 C   0  0  0  0  0  0  0  0  0  0  0  0
    5.4346    0.6607   20.1583 C   0  0  0  0  0  0  0  0  0  0  0  0
    4.8024    1.3127   19.0997 C   0  0  0  0  0  0  0  0  0  0  0  0
    5.4048    1.2972   17.8358 C   0  0  0  0  0  0  0  0  0  0  0  0
    6.5686    0.6843   17.5788 N   0  0  0  0  0  0  0  0  0  0  0  0
    7.1756    0.0838   18.6058 C   0  0  0  0  0  0  0  0  0  0  0  0
    8.1112   -0.4209   18.3687 H   0  0  0  0  0  0  0  0  0  0  0  0
    4.9225    1.7851   16.9904 H   0  0  0  0  0  0  0  0  0  0  0  0
    3.8683    1.8468   19.2508 H   0  0  0  0  0  0  0  0  0  0  0  0
    4.9989    0.6359   21.1619 H   0  0  0  0  0  0  0  0  0  0  0  0
    6.6702   -1.1141   21.7079 H   0  0  0  0  0  0  0  0  0  0  0  0
    7.9437   -1.5609   20.5731 H   0  0  0  0  0  0  0  0  0  0  0  0
    9.0073    0.5968   20.9500 H   0  0  0  0  0  0  0  0  0  0  0  0
    7.7810    1.0592   21.9975 H   0  0  0  0  0  0  0  0  0  0  0  0
   10.4282    0.2703   22.9680 C   0  0  0  0  0  0  0  0  0  0  0  0
   11.5559   -0.5743   22.9428 C   0  0  0  0  0  0  0  0  0  0  0  0
   12.8485   -0.0858   23.1357 C   0  0  0  0  0  0  0  0  0  0  0  0
   13.0458    1.2751   23.3753 C   0  0  0  0  0  0  0  0  0  0  0  0
   11.9499    2.1386   23.4205 C   0  0  0  0  0  0  0  0  0  0  0  0
   10.6649    1.6316   23.2190 C   0  0  0  0  0  0  0  0  0  0  0  0
    9.3491    2.7777   23.2904 Cl  0  0  0  0  0  0  0  0  0  0  0  0
   12.0692    3.2030   23.5941 H   0  0  0  0  0  0  0  0  0  0  0  0
   14.0464    1.6695   23.5176 H   0  0  0  0  0  0  0  0  0  0  0  0
   13.6994   -0.7624   23.0953 H   0  0  0  0  0  0  0  0  0  0  0  0
   11.4032   -1.6381   22.7733 H   0  0  0  0  0  0  0  0  0  0  0  0
    9.2349   -1.4094   22.5660 H   0  0  0  0  0  0  0  0  0  0  0  0
    7.2925   -0.9152   23.9805 H   0  0  0  0  0  0  0  0  0  0  0  0
    8.7972   -0.7754   24.9051 H   0  0  0  0  0  0  0  0  0  0  0  0
    7.9626    0.6887   24.3770 H   0  0  0  0  0  0  0  0  0  0  0  0
  1  2  1  0
  2  3  1  0
  3  4  1  0
  4  5  1  0
  5  6  2  0
  6  7  1  0
  7  8  2  0
  8  9  1  0
  9 10  2  0
 10 11  1  0
  8 12  1  0
  7 13  1  0
  6 14  1  0
  4 15  1  0
  4 16  1  0
  3 17  1  0
  3 18  1  0
  2 19  1  0
 19 20  2  0
 20 21  1  0
 21 22  2  0
 22 23  1  0
 23 24  2  0
 24 25  1  0
 23 26  1  0
 22 27  1  0
 21 28  1  0
 20 29  1  0
  2 30  1  6
  1 31  1  0
  1 32  1  0
  1 33  1  0
 10  5  1  0
 24 19  1  0
M  CHG  1   3   1
M  END
>  <cnnaffinity>  (1) 
-4.98221

>  <filename>  (1) 
C[C@@H]([NH2+]Cc1cccnc1)c1ccccc1Cl

$$$$
