
     RDKit          3D

 33 34  0  0  0  0  0  0  0  0999 V2000
    4.9949    1.8418   16.8296 H   0  0  0  0  0  0  0  0  0  0  0  0
    5.4244    1.3500   17.6985 C   0  0  0  0  0  0  0  0  0  0  0  0
    6.5872    0.7005   17.5063 N   0  0  0  0  0  0  0  0  0  0  0  0
    7.1173    0.0654   18.5599 C   0  0  0  0  0  0  0  0  0  0  0  0
    8.0553   -0.4623   18.3993 H   0  0  0  0  0  0  0  0  0  0  0  0
    6.5197    0.0490   19.8390 C   0  0  0  0  0  0  0  0  0  0  0  0
    7.1175   -0.7669   20.8068 O   0  0  0  0  0  0  0  0  0  0  0  0
    7.0643   -0.5055   22.1468 C   0  0  0  0  0  0  0  0  0  0  0  0
    6.6854    0.5354   22.6251 O   0  0  0  0  0  0  0  0  0  0  0  0
    7.5837   -1.7487   22.9644 C   0  0  1  0  0  0  0  0  0  0  0  0
    7.5696   -2.5854   22.2589 H   0  0  0  0  0  0  0  0  0  0  0  0
    8.9558   -1.6095   23.4856 N   0  0  0  0  0  0  0  0  0  0  0  0
    9.0517   -1.2598   24.4274 H   0  0  0  0  0  0  0  0  0  0  0  0
   10.0653   -1.4033   22.6968 C   0  0  0  0  0  0  0  0  0  0  0  0
   10.2072   -1.9481   21.6200 O   0  0  0  0  0  0  0  0  0  0  0  0
   11.0510   -0.3829   23.3017 C   0  0  0  0  0  0  0  0  0  0  0  0
   12.4177   -0.3881   22.9652 C   0  0  0  0  0  0  0  0  0  0  0  0
   12.8244   -1.0617   22.2163 H   0  0  0  0  0  0  0  0  0  0  0  0
   13.2965    0.4771   23.6318 C   0  0  0  0  0  0  0  0  0  0  0  0
   14.3668    0.4335   23.4465 H   0  0  0  0  0  0  0  0  0  0  0  0
   12.9092    1.3784   24.5418 N   0  0  0  0  0  0  0  0  0  0  0  0
   11.5994    1.4455   24.8011 C   0  0  0  0  0  0  0  0  0  0  0  0
   11.2881    2.1716   25.5408 H   0  0  0  0  0  0  0  0  0  0  0  0
   10.6400    0.6385   24.1925 C   0  0  0  0  0  0  0  0  0  0  0  0
    9.5921    0.8684   24.3811 H   0  0  0  0  0  0  0  0  0  0  0  0
    6.6727   -2.0026   24.1728 C   0  0  0  0  0  0  0  0  0  0  0  0
    6.5437   -1.0689   24.7341 H   0  0  0  0  0  0  0  0  0  0  0  0
    7.1189   -2.7419   24.8459 H   0  0  0  0  0  0  0  0  0  0  0  0
    5.6801   -2.3689   23.8823 H   0  0  0  0  0  0  0  0  0  0  0  0
    5.3235    0.7424   20.0397 C   0  0  0  0  0  0  0  0  0  0  0  0
    4.8517    0.7759   21.0203 H   0  0  0  0  0  0  0  0  0  0  0  0
    4.7645    1.3935   18.9307 C   0  0  0  0  0  0  0  0  0  0  0  0
    3.8270    1.9374   19.0182 H   0  0  0  0  0  0  0  0  0  0  0  0
  1  2  1  0
  2  3  2  0
  3  4  1  0
  4  5  1  0
  4  6  2  0
  6  7  1  0
  7  8  1  0
  8  9  2  0
  8 10  1  0
 10 11  1  6
 10 12  1  0
 12 13  1  0
 12 14  1  0
 14 15  2  0
 14 16  1  0
 16 17  2  0
 17 18  1  0
 17 19  1  0
 19 20  1  0
 19 21  2  0
 21 22  1  0
 22 23  1  0
 22 24  2  0
 24 25  1  0
 10 26  1  0
 26 27  1  0
 26 28  1  0
 26 29  1  0
  6 30  1  0
 30 31  1  0
 30 32  2  0
 32 33  1  0
 32  2  1  0
 24 16  1  0
M  END
>  <cnnaffinity>  (1) 
-4.7658

>  <filename>  (1) 
C[C@H](NC(=O)c1ccncc1)C(=O)Oc1cccnc1

$$$$
