
     RDKit          3D

 34 36  0  0  0  0  0  0  0  0999 V2000
    4.9770    1.7886   16.9866 H   0  0  0  0  0  0  0  0  0  0  0  0
    5.4338    1.2708   17.8278 C   0  0  0  0  0  0  0  0  0  0  0  0
    6.5913    0.6298   17.5900 N   0  0  0  0  0  0  0  0  0  0  0  0
    7.1875    0.0117   18.6208 C   0  0  0  0  0  0  0  0  0  0  0  0
    8.1305   -0.4859   18.3856 H   0  0  0  0  0  0  0  0  0  0  0  0
    6.6724    0.0067   19.9436 C   0  0  0  0  0  0  0  0  0  0  0  0
    7.3431   -0.6297   21.0346 N   0  0  0  0  0  0  0  0  0  0  0  0
    7.8068   -1.5052   20.8535 H   0  0  0  0  0  0  0  0  0  0  0  0
    7.2857   -0.2870   22.3639 C   0  0  0  0  0  0  0  0  0  0  0  0
    6.6737    0.6673   22.8129 O   0  0  0  0  0  0  0  0  0  0  0  0
    7.9707   -1.2605   23.3169 C   0  0  2  0  0  0  0  0  0  0  0  0
    8.5570   -1.9975   22.7605 H   0  0  0  0  0  0  0  0  0  0  0  0
    6.8103   -1.9794   23.9347 C   0  0  0  0  0  0  0  0  0  0  0  0
    6.5721   -3.2517   23.8273 N   0  0  0  0  0  0  0  0  0  0  0  0
    5.4046   -3.4403   24.5643 C   0  0  0  0  0  0  0  0  0  0  0  0
    4.6981   -4.6263   24.8233 C   0  0  0  0  0  0  0  0  0  0  0  0
    5.1064   -5.5603   24.4489 H   0  0  0  0  0  0  0  0  0  0  0  0
    3.5213   -4.5539   25.5668 C   0  0  0  0  0  0  0  0  0  0  0  0
    2.9645   -5.4637   25.7845 H   0  0  0  0  0  0  0  0  0  0  0  0
    3.0424   -3.3049   26.0370 C   0  0  0  0  0  0  0  0  0  0  0  0
    2.0976   -3.2681   26.5714 H   0  0  0  0  0  0  0  0  0  0  0  0
    3.7408   -2.1183   25.8065 C   0  0  0  0  0  0  0  0  0  0  0  0
    3.3556   -1.1604   26.1580 H   0  0  0  0  0  0  0  0  0  0  0  0
    4.9417   -2.2156   25.0871 C   0  0  0  0  0  0  0  0  0  0  0  0
    5.8971   -1.2907   24.6883 N   0  0  0  0  0  0  0  0  0  0  0  0
    5.7690   -0.2998   24.5266 H   0  0  0  0  0  0  0  0  0  0  0  0
    8.8577   -0.5578   24.3733 C   0  0  0  0  0  0  0  0  0  0  0  0
    8.2737    0.2154   24.8879 H   0  0  0  0  0  0  0  0  0  0  0  0
    9.2225   -1.2759   25.1196 H   0  0  0  0  0  0  0  0  0  0  0  0
    9.7281   -0.0859   23.9067 H   0  0  0  0  0  0  0  0  0  0  0  0
    5.4503    0.6545   20.1605 C   0  0  0  0  0  0  0  0  0  0  0  0
    5.0294    0.6721   21.1612 H   0  0  0  0  0  0  0  0  0  0  0  0
    4.8237    1.2889   19.0837 C   0  0  0  0  0  0  0  0  0  0  0  0
    3.8900    1.8206   19.2286 H   0  0  0  0  0  0  0  0  0  0  0  0
  1  2  1  0
  2  3  2  0
  3  4  1  0
  4  5  1  0
  4  6  2  0
  6  7  1  0
  7  8  1  0
  7  9  1  0
  9 10  2  0
  9 11  1  0
 11 12  1  6
 11 13  1  0
 13 14  2  0
 14 15  1  0
 15 16  2  0
 16 17  1  0
 16 18  1  0
 18 19  1  0
 18 20  2  0
 20 21  1  0
 20 22  1  0
 22 23  1  0
 22 24  2  0
 24 25  1  0
 25 26  1  0
 11 27  1  0
 27 28  1  0
 27 29  1  0
 27 30  1  0
  6 31  1  0
 31 32  1  0
 31 33  2  0
 33 34  1  0
 33  2  1  0
 25 13  1  0
 24 15  1  0
M  END
>  <cnnaffinity>  (1) 
-5.21649

>  <filename>  (1) 
C[C@H](C(=O)Nc1cccnc1)c1nc2ccccc2[nH]1

$$$$
