
     RDKit          3D

 33 34  0  0  0  0  0  0  0  0999 V2000
    4.9589    1.7947   16.9917 H   0  0  0  0  0  0  0  0  0  0  0  0
    5.4406    1.2814   17.8228 C   0  0  0  0  0  0  0  0  0  0  0  0
    6.6080    0.6708   17.5577 N   0  0  0  0  0  0  0  0  0  0  0  0
    7.2425    0.0658   18.5732 C   0  0  0  0  0  0  0  0  0  0  0  0
    8.1813   -0.4325   18.3281 H   0  0  0  0  0  0  0  0  0  0  0  0
    6.7331    0.0143   19.8909 C   0  0  0  0  0  0  0  0  0  0  0  0
    7.4313   -0.6253   20.9592 N   0  0  0  0  0  0  0  0  0  0  0  0
    8.3242   -0.2467   21.2645 H   0  0  0  0  0  0  0  0  0  0  0  0
    6.8479   -1.5134   21.8223 C   0  0  0  0  0  0  0  0  0  0  0  0
    5.8160   -2.1092   21.5745 O   0  0  0  0  0  0  0  0  0  0  0  0
    7.6145   -1.8407   23.0983 C   0  0  2  0  0  0  0  0  0  0  0  0
    6.8439   -2.1971   23.7845 H   0  0  0  0  0  0  0  0  0  0  0  0
    8.2241   -0.5946   23.6965 C   0  0  0  0  0  0  0  0  0  0  0  0
    9.3781   -0.1829   23.1634 N   0  0  0  0  0  0  0  0  0  0  0  0
   10.0497    0.8270   23.7551 C   0  0  0  0  0  0  0  0  0  0  0  0
   11.4697    1.1984   23.2710 C   0  0  0  0  0  0  0  0  0  0  0  0
   11.4827    2.4397   22.7412 F   0  0  0  0  0  0  0  0  0  0  0  0
   12.3341    1.2494   24.3106 F   0  0  0  0  0  0  0  0  0  0  0  0
   11.9767    0.3592   22.3655 F   0  0  0  0  0  0  0  0  0  0  0  0
    9.5010    1.5894   24.7969 C   0  0  0  0  0  0  0  0  0  0  0  0
   10.0406    2.4320   25.2205 H   0  0  0  0  0  0  0  0  0  0  0  0
    8.2406    1.2356   25.2759 C   0  0  0  0  0  0  0  0  0  0  0  0
    7.7758    1.8073   26.0786 H   0  0  0  0  0  0  0  0  0  0  0  0
    7.5956    0.1252   24.7244 C   0  0  0  0  0  0  0  0  0  0  0  0
    6.6306   -0.1977   25.0898 H   0  0  0  0  0  0  0  0  0  0  0  0
    8.5999   -3.0027   22.8249 C   0  0  0  0  0  0  0  0  0  0  0  0
    9.1276   -3.3131   23.7337 H   0  0  0  0  0  0  0  0  0  0  0  0
    9.3533   -2.7153   22.0830 H   0  0  0  0  0  0  0  0  0  0  0  0
    8.0431   -3.8603   22.4358 H   0  0  0  0  0  0  0  0  0  0  0  0
    5.5022    0.6297   20.1379 C   0  0  0  0  0  0  0  0  0  0  0  0
    5.0742    0.5672   21.1374 H   0  0  0  0  0  0  0  0  0  0  0  0
    4.8506    1.2889   19.0898 C   0  0  0  0  0  0  0  0  0  0  0  0
    3.9066    1.7982   19.2502 H   0  0  0  0  0  0  0  0  0  0  0  0
  1  2  1  0
  2  3  2  0
  3  4  1  0
  4  5  1  0
  4  6  2  0
  6  7  1  0
  7  8  1  0
  7  9  1  0
  9 10  2  0
  9 11  1  0
 11 12  1  1
 11 13  1  0
 13 14  2  0
 14 15  1  0
 15 16  1  0
 16 17  1  0
 16 18  1  0
 16 19  1  0
 15 20  2  0
 20 21  1  0
 20 22  1  0
 22 23  1  0
 22 24  2  0
 24 25  1  0
 11 26  1  0
 26 27  1  0
 26 28  1  0
 26 29  1  0
  6 30  1  0
 30 31  1  0
 30 32  2  0
 32 33  1  0
 32  2  1  0
 24 13  1  0
M  END
>  <cnnaffinity>  (1) 
-5.63755

>  <filename>  (1) 
C[C@H](C(=O)Nc1cccnc1)c1cccc(C(F)(F)F)n1

$$$$
