
     RDKit          3D

 37 39  0  0  0  0  0  0  0  0999 V2000
    4.9226    1.7807   16.9972 H   0  0  0  0  0  0  0  0  0  0  0  0
    5.4050    1.2905   17.8400 C   0  0  0  0  0  0  0  0  0  0  0  0
    6.5665    0.6724   17.5853 N   0  0  0  0  0  0  0  0  0  0  0  0
    7.1639    0.0470   18.6090 C   0  0  0  0  0  0  0  0  0  0  0  0
    8.1140   -0.4297   18.3822 H   0  0  0  0  0  0  0  0  0  0  0  0
    6.6485   -0.0135   19.9179 C   0  0  0  0  0  0  0  0  0  0  0  0
    7.4795   -0.6743   21.0086 C   0  0  1  0  0  0  0  0  0  0  0  0
    8.1473   -1.8173   20.4032 N   0  0  0  0  0  0  0  0  0  0  0  0
    8.7246   -2.2681   21.1047 H   0  0  0  0  0  0  0  0  0  0  0  0
    7.4333   -2.5177   20.1943 H   0  0  0  0  0  0  0  0  0  0  0  0
    8.5705    0.3030   21.4558 C   0  0  0  0  0  0  0  0  0  0  0  0
    9.1535    0.6343   20.5916 H   0  0  0  0  0  0  0  0  0  0  0  0
    9.2601   -0.1625   22.1675 H   0  0  0  0  0  0  0  0  0  0  0  0
    8.1230    1.1870   21.9203 H   0  0  0  0  0  0  0  0  0  0  0  0
    6.5860   -1.1126   22.2211 C   0  0  0  0  0  0  0  0  0  0  0  0
    6.2302   -0.1977   22.7174 H   0  0  0  0  0  0  0  0  0  0  0  0
    5.7206   -1.6455   21.8138 H   0  0  0  0  0  0  0  0  0  0  0  0
    7.2576   -1.9845   23.2560 C   0  0  0  0  0  0  0  0  0  0  0  0
    8.0038   -1.4034   24.2717 C   0  0  0  0  0  0  0  0  0  0  0  0
    8.0637   -0.3155   24.3300 H   0  0  0  0  0  0  0  0  0  0  0  0
    8.6913   -2.1802   25.2338 C   0  0  0  0  0  0  0  0  0  0  0  0
    9.2524   -1.6816   26.0214 H   0  0  0  0  0  0  0  0  0  0  0  0
    8.6405   -3.5551   25.1775 C   0  0  0  0  0  0  0  0  0  0  0  0
    9.1566   -4.1677   25.9144 H   0  0  0  0  0  0  0  0  0  0  0  0
    7.8935   -4.2032   24.1503 C   0  0  0  0  0  0  0  0  0  0  0  0
    7.8062   -5.6256   24.0567 C   0  0  0  0  0  0  0  0  0  0  0  0
    8.3257   -6.2317   24.8022 H   0  0  0  0  0  0  0  0  0  0  0  0
    7.0642   -6.1741   23.0400 C   0  0  0  0  0  0  0  0  0  0  0  0
    6.9646   -7.2465   22.9125 H   0  0  0  0  0  0  0  0  0  0  0  0
    6.4071   -5.3211   22.1193 C   0  0  0  0  0  0  0  0  0  0  0  0
    5.8119   -5.7712   21.3252 H   0  0  0  0  0  0  0  0  0  0  0  0
    6.4662   -4.0057   22.1526 N   0  0  0  0  0  0  0  0  0  0  0  0
    7.1880   -3.4204   23.1707 C   0  0  0  0  0  0  0  0  0  0  0  0
    5.4371    0.6485   20.1570 C   0  0  0  0  0  0  0  0  0  0  0  0
    4.9913    0.6404   21.1515 H   0  0  0  0  0  0  0  0  0  0  0  0
    4.8097    1.3106   19.1032 C   0  0  0  0  0  0  0  0  0  0  0  0
    3.8787    1.8403   19.2585 H   0  0  0  0  0  0  0  0  0  0  0  0
  1  2  1  0
  2  3  2  0
  3  4  1  0
  4  5  1  0
  4  6  2  0
  6  7  1  0
  7  8  1  6
  8  9  1  0
  8 10  1  0
  7 11  1  0
 11 12  1  0
 11 13  1  0
 11 14  1  0
  7 15  1  0
 15 16  1  0
 15 17  1  0
 15 18  1  0
 18 19  2  0
 19 20  1  0
 19 21  1  0
 21 22  1  0
 21 23  2  0
 23 24  1  0
 23 25  1  0
 25 26  2  0
 26 27  1  0
 26 28  1  0
 28 29  1  0
 28 30  2  0
 30 31  1  0
 30 32  1  0
 32 33  2  0
  6 34  1  0
 34 35  1  0
 34 36  2  0
 36 37  1  0
 36  2  1  0
 33 18  1  0
 33 25  1  0
M  END
>  <cnnaffinity>  (1) 
-5.18268

>  <filename>  (1) 
C[C@@](N)(Cc1cccc2cccnc12)c1cccnc1

$$$$
