
     RDKit          3D

 29 31  0  0  0  0  0  0  0  0999 V2000
   13.1139    0.8268   23.7773 H   0  0  0  0  0  0  0  0  0  0  0  0
   13.0785   -0.0597   23.3823 O   0  0  0  0  0  0  0  0  0  0  0  0
   12.2602    0.1999   22.3575 C   0  0  0  0  0  0  0  0  0  0  0  0
   11.8023    1.3051   22.2225 O   0  0  0  0  0  0  0  0  0  0  0  0
   12.0202   -0.9590   21.4190 C   0  0  2  0  0  0  0  0  0  0  0  0
   11.8667   -0.4941   20.4448 H   0  0  0  0  0  0  0  0  0  0  0  0
   10.6347   -1.4504   21.7392 C   0  0  0  0  0  0  0  0  0  0  0  0
    9.6804   -0.9649   21.0177 N   0  0  0  0  0  0  0  0  0  0  0  0
    8.4937   -1.4089   21.4597 N   0  0  0  0  0  0  0  0  0  0  0  0
    7.1853   -1.1443   21.0990 C   0  0  0  0  0  0  0  0  0  0  0  0
    6.7998   -0.2280   20.0152 C   0  0  0  0  0  0  0  0  0  0  0  0
    7.5402   -0.1360   18.8124 C   0  0  0  0  0  0  0  0  0  0  0  0
    8.5041   -0.6376   18.7404 H   0  0  0  0  0  0  0  0  0  0  0  0
    7.1245    0.5225   17.7256 N   0  0  0  0  0  0  0  0  0  0  0  0
    5.9567    1.1788   17.8146 C   0  0  0  0  0  0  0  0  0  0  0  0
    5.6220    1.6716   16.9051 H   0  0  0  0  0  0  0  0  0  0  0  0
    5.1918    1.2394   18.9835 C   0  0  0  0  0  0  0  0  0  0  0  0
    4.2831    1.8300   18.9977 H   0  0  0  0  0  0  0  0  0  0  0  0
    5.6181    0.5297   20.1051 C   0  0  0  0  0  0  0  0  0  0  0  0
    5.0598    0.5795   21.0431 H   0  0  0  0  0  0  0  0  0  0  0  0
    6.4678   -1.9878   21.9154 C   0  0  0  0  0  0  0  0  0  0  0  0
    5.3925   -2.1179   21.9289 H   0  0  0  0  0  0  0  0  0  0  0  0
    7.2658   -2.7221   22.7624 N   0  0  0  0  0  0  0  0  0  0  0  0
    8.4768   -2.3167   22.4736 C   0  0  0  0  0  0  0  0  0  0  0  0
   10.1281   -2.5520   23.0313 S   0  0  0  0  0  0  0  0  0  0  0  0
   13.1826   -1.9507   21.2784 C   0  0  0  0  0  0  0  0  0  0  0  0
   13.0455   -2.5368   20.3668 H   0  0  0  0  0  0  0  0  0  0  0  0
   14.1262   -1.4067   21.1698 H   0  0  0  0  0  0  0  0  0  0  0  0
   13.2793   -2.6129   22.1401 H   0  0  0  0  0  0  0  0  0  0  0  0
  1  2  1  0
  2  3  1  0
  3  4  2  0
  3  5  1  0
  5  6  1  6
  5  7  1  0
  7  8  2  0
  8  9  1  0
  9 10  1  0
 10 11  1  0
 11 12  2  0
 12 13  1  0
 12 14  1  0
 14 15  2  0
 15 16  1  0
 15 17  1  0
 17 18  1  0
 17 19  2  0
 19 20  1  0
 10 21  2  0
 21 22  1  0
 21 23  1  0
 23 24  2  0
 24 25  1  0
  5 26  1  0
 26 27  1  0
 26 28  1  0
 26 29  1  0
 25  7  1  0
 24  9  1  0
 19 11  1  0
M  END
>  <cnnaffinity>  (1) 
-5.2507

>  <filename>  (1) 
C[C@H](C(=O)O)c1nn2c(-c3cccnc3)cnc2s1

$$$$
