
     RDKit          3D

 34 36  0  0  0  0  0  0  0  0999 V2000
    4.9098    1.7811   16.9995 H   0  0  0  0  0  0  0  0  0  0  0  0
    5.3964    1.2955   17.8428 C   0  0  0  0  0  0  0  0  0  0  0  0
    6.5590    0.6780   17.5706 N   0  0  0  0  0  0  0  0  0  0  0  0
    7.1767    0.0624   18.5847 C   0  0  0  0  0  0  0  0  0  0  0  0
    8.1234   -0.4257   18.3757 H   0  0  0  0  0  0  0  0  0  0  0  0
    6.6728   -0.0026   19.9071 C   0  0  0  0  0  0  0  0  0  0  0  0
    7.3660   -0.6965   20.9377 N   0  0  0  0  0  0  0  0  0  0  0  0
    6.7974   -1.1187   21.6547 H   0  0  0  0  0  0  0  0  0  0  0  0
    8.7314   -0.6295   21.1401 C   0  0  0  0  0  0  0  0  0  0  0  0
    9.4198    0.1018   20.4496 O   0  0  0  0  0  0  0  0  0  0  0  0
    9.3324   -1.5424   22.2339 C   0  0  2  0  0  0  0  0  0  0  0  0
    9.0608   -2.5706   21.9527 H   0  0  0  0  0  0  0  0  0  0  0  0
    8.7215   -1.2521   23.5814 C   0  0  0  0  0  0  0  0  0  0  0  0
    8.1634   -2.1939   24.3679 C   0  0  0  0  0  0  0  0  0  0  0  0
    8.0732   -3.2456   24.1311 H   0  0  0  0  0  0  0  0  0  0  0  0
    7.5712   -1.5975   25.8819 S   0  0  0  0  0  0  0  0  0  0  0  0
    8.0961    0.0154   25.4773 C   0  0  0  0  0  0  0  0  0  0  0  0
    7.9581    1.1757   26.2632 C   0  0  0  0  0  0  0  0  0  0  0  0
    7.4785    1.1207   27.2370 H   0  0  0  0  0  0  0  0  0  0  0  0
    8.4461    2.3790   25.7684 C   0  0  0  0  0  0  0  0  0  0  0  0
    8.3463    3.2859   26.3621 H   0  0  0  0  0  0  0  0  0  0  0  0
    9.0703    2.4389   24.4999 C   0  0  0  0  0  0  0  0  0  0  0  0
    9.4447    3.3896   24.1270 H   0  0  0  0  0  0  0  0  0  0  0  0
    9.2058    1.2976   23.7222 C   0  0  0  0  0  0  0  0  0  0  0  0
    9.6828    1.3446   22.7427 H   0  0  0  0  0  0  0  0  0  0  0  0
    8.7095    0.0587   24.2069 C   0  0  0  0  0  0  0  0  0  0  0  0
   10.8744   -1.4683   22.2759 C   0  0  0  0  0  0  0  0  0  0  0  0
   11.3070   -1.7516   21.3139 H   0  0  0  0  0  0  0  0  0  0  0  0
   11.2226   -0.4569   22.5138 H   0  0  0  0  0  0  0  0  0  0  0  0
   11.2574   -2.1452   23.0428 H   0  0  0  0  0  0  0  0  0  0  0  0
    5.4487    0.6306   20.1668 C   0  0  0  0  0  0  0  0  0  0  0  0
    5.0153    0.6239   21.1691 H   0  0  0  0  0  0  0  0  0  0  0  0
    4.8122    1.3047   19.1149 C   0  0  0  0  0  0  0  0  0  0  0  0
    3.8795    1.8390   19.2677 H   0  0  0  0  0  0  0  0  0  0  0  0
  1  2  1  0
  2  3  2  0
  3  4  1  0
  4  5  1  0
  4  6  2  0
  6  7  1  0
  7  8  1  0
  7  9  1  0
  9 10  2  0
  9 11  1  0
 11 12  1  6
 11 13  1  0
 13 14  2  0
 14 15  1  0
 14 16  1  0
 16 17  1  0
 17 18  2  0
 18 19  1  0
 18 20  1  0
 20 21  1  0
 20 22  2  0
 22 23  1  0
 22 24  1  0
 24 25  1  0
 24 26  2  0
 11 27  1  0
 27 28  1  0
 27 29  1  0
 27 30  1  0
  6 31  1  0
 31 32  1  0
 31 33  2  0
 33 34  1  0
 33  2  1  0
 26 13  1  0
 26 17  1  0
M  END
>  <cnnaffinity>  (1) 
-5.54918

>  <filename>  (1) 
C[C@H](C(=O)Nc1cccnc1)c1csc2ccccc12

$$$$
