
     RDKit          3D

 42 43  0  0  0  0  0  0  0  0999 V2000
    5.7790   -2.6919   21.9868 H   0  0  0  0  0  0  0  0  0  0  0  0
    5.9266   -2.5410   21.0142 O   0  0  0  0  0  0  0  0  0  0  0  0
    7.2420   -2.0359   20.9834 C   0  0  2  0  0  0  0  0  0  0  0  0
    7.6012   -2.1507   19.9603 H   0  0  0  0  0  0  0  0  0  0  0  0
    8.1248   -2.8860   21.9172 C   0  0  0  0  0  0  0  0  0  0  0  0
    8.1144   -3.9167   21.5403 H   0  0  0  0  0  0  0  0  0  0  0  0
    9.1769   -2.5701   21.8700 H   0  0  0  0  0  0  0  0  0  0  0  0
    7.6403   -2.8902   23.3662 C   0  0  0  0  0  0  0  0  0  0  0  0
    7.7102   -1.8654   23.7621 H   0  0  0  0  0  0  0  0  0  0  0  0
    8.3106   -3.5135   23.9818 H   0  0  0  0  0  0  0  0  0  0  0  0
    6.2439   -3.3329   23.4843 N   0  0  0  0  0  0  0  0  0  0  0  0
    5.9511   -4.7574   23.2439 C   0  0  0  0  0  0  0  0  0  0  0  0
    5.9036   -4.9331   22.1603 H   0  0  0  0  0  0  0  0  0  0  0  0
    6.7370   -5.4114   23.6608 H   0  0  0  0  0  0  0  0  0  0  0  0
    4.5832   -5.0164   23.9227 C   0  0  0  0  0  0  0  0  0  0  0  0
    4.6684   -5.8192   24.6673 H   0  0  0  0  0  0  0  0  0  0  0  0
    3.8240   -5.3369   23.2003 H   0  0  0  0  0  0  0  0  0  0  0  0
    4.2024   -3.6714   24.5715 C   0  0  0  0  0  0  0  0  0  0  0  0
    3.5088   -3.1118   23.9374 H   0  0  0  0  0  0  0  0  0  0  0  0
    3.7142   -3.7756   25.5460 H   0  0  0  0  0  0  0  0  0  0  0  0
    5.5218   -2.9036   24.6922 C   0  0  1  0  0  0  0  0  0  0  0  0
    5.3492   -1.8187   24.6445 H   0  0  0  0  0  0  0  0  0  0  0  0
    6.2770   -3.2160   25.9825 C   0  0  0  0  0  0  0  0  0  0  0  0
    7.2164   -2.6545   26.0151 H   0  0  0  0  0  0  0  0  0  0  0  0
    6.5090   -4.2863   26.0361 H   0  0  0  0  0  0  0  0  0  0  0  0
    5.6704   -2.9390   26.8497 H   0  0  0  0  0  0  0  0  0  0  0  0
    7.2772   -0.4879   21.2127 C   0  0  2  0  0  0  0  0  0  0  0  0
    6.6976   -0.2859   22.1255 H   0  0  0  0  0  0  0  0  0  0  0  0
    6.5886    0.2257   20.0361 C   0  0  0  0  0  0  0  0  0  0  0  0
    7.1644    0.2223   18.7525 C   0  0  0  0  0  0  0  0  0  0  0  0
    8.1295   -0.2584   18.5842 H   0  0  0  0  0  0  0  0  0  0  0  0
    6.6192    0.7658   17.6544 N   0  0  0  0  0  0  0  0  0  0  0  0
    5.4257    1.3610   17.7990 C   0  0  0  0  0  0  0  0  0  0  0  0
    4.9932    1.7909   16.8953 H   0  0  0  0  0  0  0  0  0  0  0  0
    4.7500    1.4305   19.0212 C   0  0  0  0  0  0  0  0  0  0  0  0
    3.7882    1.9352   19.0736 H   0  0  0  0  0  0  0  0  0  0  0  0
    5.3423    0.8606   20.1558 C   0  0  0  0  0  0  0  0  0  0  0  0
    4.8460    0.9118   21.1281 H   0  0  0  0  0  0  0  0  0  0  0  0
    8.7045    0.0575   21.4261 C   0  0  0  0  0  0  0  0  0  0  0  0
    8.6755    1.1436   21.5538 H   0  0  0  0  0  0  0  0  0  0  0  0
    9.1612   -0.3616   22.3280 H   0  0  0  0  0  0  0  0  0  0  0  0
    9.3730   -0.1622   20.5838 H   0  0  0  0  0  0  0  0  0  0  0  0
  1  2  1  0
  2  3  1  0
  3  4  1  6
  3  5  1  0
  5  6  1  0
  5  7  1  0
  5  8  1  0
  8  9  1  0
  8 10  1  0
  8 11  1  0
 11 12  1  0
 12 13  1  0
 12 14  1  0
 12 15  1  0
 15 16  1  0
 15 17  1  0
 15 18  1  0
 18 19  1  0
 18 20  1  0
 18 21  1  0
 21 22  1  6
 21 23  1  0
 23 24  1  0
 23 25  1  0
 23 26  1  0
  3 27  1  0
 27 28  1  1
 27 29  1  0
 29 30  2  0
 30 31  1  0
 30 32  1  0
 32 33  2  0
 33 34  1  0
 33 35  1  0
 35 36  1  0
 35 37  2  0
 37 38  1  0
 27 39  1  0
 39 40  1  0
 39 41  1  0
 39 42  1  0
 21 11  1  0
 37 29  1  0
M  END
>  <cnnaffinity>  (1) 
-4.25901

>  <filename>  (1) 
C[C@@H]1CCCN1CC[C@@H](O)[C@@H](C)c1cccnc1

$$$$
