
     RDKit          3D

 33 34  0  0  0  0  0  0  0  0999 V2000
    4.9143    1.7886   16.9900 H   0  0  0  0  0  0  0  0  0  0  0  0
    5.3947    1.2989   17.8316 C   0  0  0  0  0  0  0  0  0  0  0  0
    6.5546    0.6822   17.5614 N   0  0  0  0  0  0  0  0  0  0  0  0
    7.1573    0.0644   18.5827 C   0  0  0  0  0  0  0  0  0  0  0  0
    8.1097   -0.4122   18.3689 H   0  0  0  0  0  0  0  0  0  0  0  0
    6.6428   -0.0047   19.8921 C   0  0  0  0  0  0  0  0  0  0  0  0
    7.3991   -0.7179   20.9919 C   0  0  0  0  0  0  0  0  0  0  0  0
    7.7458   -1.7036   20.6501 H   0  0  0  0  0  0  0  0  0  0  0  0
    6.7549   -0.8821   21.8622 H   0  0  0  0  0  0  0  0  0  0  0  0
    8.6268    0.0487   21.4960 C   0  0  0  0  0  0  0  0  0  0  0  0
    9.5194    0.1675   20.4526 F   0  0  0  0  0  0  0  0  0  0  0  0
    9.2698   -0.7479   22.4119 F   0  0  0  0  0  0  0  0  0  0  0  0
    8.3711    1.4595   22.0653 C   0  0  1  0  0  0  0  0  0  0  0  0
    7.9750    2.0246   21.2130 H   0  0  0  0  0  0  0  0  0  0  0  0
    7.3186    1.4703   23.1674 C   0  0  0  0  0  0  0  0  0  0  0  0
    7.4941    0.7174   24.3388 C   0  0  0  0  0  0  0  0  0  0  0  0
    8.3876    0.1092   24.4638 H   0  0  0  0  0  0  0  0  0  0  0  0
    6.5364    0.7571   25.3556 C   0  0  0  0  0  0  0  0  0  0  0  0
    6.6882    0.1681   26.2569 H   0  0  0  0  0  0  0  0  0  0  0  0
    5.3915    1.5504   25.2223 C   0  0  0  0  0  0  0  0  0  0  0  0
    4.6466    1.5754   26.0151 H   0  0  0  0  0  0  0  0  0  0  0  0
    5.2140    2.3169   24.0636 C   0  0  0  0  0  0  0  0  0  0  0  0
    4.3358    2.9482   23.9533 H   0  0  0  0  0  0  0  0  0  0  0  0
    6.1777    2.2793   23.0498 C   0  0  0  0  0  0  0  0  0  0  0  0
    6.0459    2.8793   22.1494 H   0  0  0  0  0  0  0  0  0  0  0  0
    9.6674    2.1435   22.5308 C   0  0  0  0  0  0  0  0  0  0  0  0
    9.4430    3.1444   22.9100 H   0  0  0  0  0  0  0  0  0  0  0  0
   10.3912    2.2339   21.7148 H   0  0  0  0  0  0  0  0  0  0  0  0
   10.1302    1.5750   23.3439 H   0  0  0  0  0  0  0  0  0  0  0  0
    5.4316    0.6488   20.1503 C   0  0  0  0  0  0  0  0  0  0  0  0
    5.0207    0.6303   21.1623 H   0  0  0  0  0  0  0  0  0  0  0  0
    4.7985    1.3181   19.0982 C   0  0  0  0  0  0  0  0  0  0  0  0
    3.8655    1.8510   19.2495 H   0  0  0  0  0  0  0  0  0  0  0  0
  1  2  1  0
  2  3  2  0
  3  4  1  0
  4  5  1  0
  4  6  2  0
  6  7  1  0
  7  8  1  0
  7  9  1  0
  7 10  1  0
 10 11  1  0
 10 12  1  0
 10 13  1  0
 13 14  1  6
 13 15  1  0
 15 16  2  0
 16 17  1  0
 16 18  1  0
 18 19  1  0
 18 20  2  0
 20 21  1  0
 20 22  1  0
 22 23  1  0
 22 24  2  0
 24 25  1  0
 13 26  1  0
 26 27  1  0
 26 28  1  0
 26 29  1  0
  6 30  1  0
 30 31  1  0
 30 32  2  0
 32 33  1  0
 32  2  1  0
 24 15  1  0
M  END
>  <cnnaffinity>  (1) 
-4.67183

>  <filename>  (1) 
C[C@H](c1ccccc1)C(F)(F)Cc1cccnc1

$$$$
