
     RDKit          3D

 44 46  0  0  0  0  0  0  0  0999 V2000
    8.8706   -2.2838   26.0310 C   0  0  0  0  0  0  0  0  0  0  0  0
    9.1436   -0.8904   25.4953 C   0  0  0  0  0  0  0  0  0  0  0  0
   10.2365   -0.1830   25.8283 C   0  0  0  0  0  0  0  0  0  0  0  0
   10.7458    1.0435   25.1402 C   0  0  0  0  0  0  0  0  0  0  0  0
   12.0240    1.0267   24.5427 C   0  0  0  0  0  0  0  0  0  0  0  0
   12.4968    2.1459   23.8402 C   0  0  0  0  0  0  0  0  0  0  0  0
   11.7153    3.3072   23.7476 C   0  0  0  0  0  0  0  0  0  0  0  0
   10.4673    3.3455   24.3778 C   0  0  0  0  0  0  0  0  0  0  0  0
    9.9870    2.2222   25.0554 C   0  0  0  0  0  0  0  0  0  0  0  0
    9.0125    2.2691   25.5361 H   0  0  0  0  0  0  0  0  0  0  0  0
    9.8435    4.2314   24.3042 H   0  0  0  0  0  0  0  0  0  0  0  0
   12.0715    4.1721   23.1928 H   0  0  0  0  0  0  0  0  0  0  0  0
   13.4734    2.1115   23.3622 H   0  0  0  0  0  0  0  0  0  0  0  0
   12.6202    0.1174   24.5986 H   0  0  0  0  0  0  0  0  0  0  0  0
   10.8485   -0.4940   26.6777 H   0  0  0  0  0  0  0  0  0  0  0  0
    8.0808   -0.3450   24.5706 C   0  0  0  0  0  0  0  0  0  0  0  0
    8.0862   -0.9780   23.2158 N   0  0  0  0  0  4  0  0  0  0  0  0
    9.3544   -0.7238   22.3965 C   0  0  0  0  0  0  0  0  0  0  0  0
    8.8934   -0.6199   20.9348 C   0  0  0  0  0  0  0  0  0  0  0  0
    7.3594   -0.8454   20.9193 C   0  0  0  0  0  0  0  0  0  0  0  0
    6.6252   -0.0638   19.8349 C   0  0  0  0  0  0  0  0  0  0  0  0
    5.4092    0.6016   20.0576 C   0  0  0  0  0  0  0  0  0  0  0  0
    4.8181    1.3118   19.0111 C   0  0  0  0  0  0  0  0  0  0  0  0
    5.4475    1.3229   17.7646 C   0  0  0  0  0  0  0  0  0  0  0  0
    6.5932    0.6731   17.5123 N   0  0  0  0  0  0  0  0  0  0  0  0
    7.1537    0.0081   18.5291 C   0  0  0  0  0  0  0  0  0  0  0  0
    8.0856   -0.5096   18.2951 H   0  0  0  0  0  0  0  0  0  0  0  0
    5.0120    1.8636   16.9285 H   0  0  0  0  0  0  0  0  0  0  0  0
    3.8933    1.8598   19.1542 H   0  0  0  0  0  0  0  0  0  0  0  0
    4.9319    0.5697   21.0395 H   0  0  0  0  0  0  0  0  0  0  0  0
    6.9565   -0.5023   22.3534 C   0  0  0  0  0  0  0  0  0  0  0  0
    6.0023   -0.9438   22.6568 H   0  0  0  0  0  0  0  0  0  0  0  0
    6.8716    0.5874   22.4568 H   0  0  0  0  0  0  0  0  0  0  0  0
    7.1580   -1.9162   20.7703 H   0  0  0  0  0  0  0  0  0  0  0  0
    9.1234    0.3811   20.5472 H   0  0  0  0  0  0  0  0  0  0  0  0
    9.4080   -1.3481   20.2992 H   0  0  0  0  0  0  0  0  0  0  0  0
    9.7892    0.2083   22.7594 H   0  0  0  0  0  0  0  0  0  0  0  0
   10.0728   -1.5297   22.5703 H   0  0  0  0  0  0  0  0  0  0  0  0
    8.0061   -2.0063   23.3728 H   0  0  0  0  0  0  0  0  0  0  0  0
    7.0874   -0.4924   25.0172 H   0  0  0  0  0  0  0  0  0  0  0  0
    8.2158    0.7257   24.4080 H   0  0  0  0  0  0  0  0  0  0  0  0
    8.9876   -2.3564   27.1195 H   0  0  0  0  0  0  0  0  0  0  0  0
    9.5330   -3.0302   25.5770 H   0  0  0  0  0  0  0  0  0  0  0  0
    7.8500   -2.6021   25.7947 H   0  0  0  0  0  0  0  0  0  0  0  0
  1  2  1  0
  2  3  2  3
  3  4  1  0
  4  5  2  0
  5  6  1  0
  6  7  2  0
  7  8  1  0
  8  9  2  0
  9 10  1  0
  8 11  1  0
  7 12  1  0
  6 13  1  0
  5 14  1  0
  3 15  1  0
  2 16  1  0
 16 17  1  0
 17 18  1  0
 18 19  1  0
 19 20  1  0
 20 21  1  0
 21 22  2  0
 22 23  1  0
 23 24  2  0
 24 25  1  0
 25 26  2  0
 26 27  1  0
 24 28  1  0
 23 29  1  0
 22 30  1  0
 20 31  1  0
 31 32  1  0
 31 33  1  0
 20 34  1  0
 19 35  1  0
 19 36  1  0
 18 37  1  0
 18 38  1  0
 17 39  1  0
 16 40  1  0
 16 41  1  0
  1 42  1  0
  1 43  1  0
  1 44  1  0
  9  4  1  0
 31 17  1  0
 26 21  1  0
M  CHG  1  17   1
M  END
>  <cnnaffinity>  (1) 
-5.38864

>  <filename>  (1) 
CC(=Cc1ccccc1)C[NH+]1CCC(c2cccnc2)C1

$$$$
