
     RDKit          3D

 34 35  0  0  0  0  0  0  0  0999 V2000
    6.7917   -1.3207   21.4576 H   0  0  0  0  0  0  0  0  0  0  0  0
    7.4432   -0.6119   20.9417 C   0  0  0  0  0  0  0  0  0  0  0  0
    8.6510   -0.4068   21.4796 C   0  0  0  0  0  0  0  0  0  0  0  0
    9.4462    0.6989   21.0941 N   0  0  0  0  0  0  0  0  0  0  0  0
    8.9576    1.2860   20.4315 H   0  0  0  0  0  0  0  0  0  0  0  0
   10.0671    1.4971   22.0663 C   0  0  0  0  0  0  0  0  0  0  0  0
   10.0255    1.3184   23.2628 O   0  0  0  0  0  0  0  0  0  0  0  0
   10.7460    2.5254   21.4727 N   0  0  0  0  0  0  0  0  0  0  0  0
   10.9991    2.3870   20.5134 H   0  0  0  0  0  0  0  0  0  0  0  0
   11.3518    3.5832   22.1842 C   0  0  0  0  0  0  0  0  0  0  0  0
   10.7392    4.1298   23.3209 C   0  0  0  0  0  0  0  0  0  0  0  0
    9.8520    3.6499   23.7147 H   0  0  0  0  0  0  0  0  0  0  0  0
   11.2747    5.2706   23.9159 C   0  0  0  0  0  0  0  0  0  0  0  0
   10.7911    5.7301   24.7733 H   0  0  0  0  0  0  0  0  0  0  0  0
   12.4469    5.8346   23.4078 C   0  0  0  0  0  0  0  0  0  0  0  0
   13.0757    7.2622   24.1648 Cl  0  0  0  0  0  0  0  0  0  0  0  0
   13.1011    5.2717   22.3084 C   0  0  0  0  0  0  0  0  0  0  0  0
   14.0320    5.7001   21.9458 H   0  0  0  0  0  0  0  0  0  0  0  0
   12.5280    4.1532   21.6924 C   0  0  0  0  0  0  0  0  0  0  0  0
   12.9845    3.7092   20.8184 H   0  0  0  0  0  0  0  0  0  0  0  0
    9.2096   -1.2567   22.5901 C   0  0  0  0  0  0  0  0  0  0  0  0
   10.3007   -1.2560   22.5452 H   0  0  0  0  0  0  0  0  0  0  0  0
    8.8368   -2.2843   22.5478 H   0  0  0  0  0  0  0  0  0  0  0  0
    8.9404   -0.8005   23.5477 H   0  0  0  0  0  0  0  0  0  0  0  0
    6.7812    0.1029   19.8251 C   0  0  0  0  0  0  0  0  0  0  0  0
    7.2845    0.1852   18.5114 C   0  0  0  0  0  0  0  0  0  0  0  0
    8.2278   -0.3062   18.2742 H   0  0  0  0  0  0  0  0  0  0  0  0
    6.6446    0.7838   17.4933 N   0  0  0  0  0  0  0  0  0  0  0  0
    5.4528    1.3423   17.7560 C   0  0  0  0  0  0  0  0  0  0  0  0
    4.9495    1.8168   16.9158 H   0  0  0  0  0  0  0  0  0  0  0  0
    4.8458    1.3146   19.0168 C   0  0  0  0  0  0  0  0  0  0  0  0
    3.8746    1.7778   19.1659 H   0  0  0  0  0  0  0  0  0  0  0  0
    5.5140    0.6754   20.0576 C   0  0  0  0  0  0  0  0  0  0  0  0
    5.0871    0.6211   21.0573 H   0  0  0  0  0  0  0  0  0  0  0  0
  1  2  1  0
  2  3  2  3
  3  4  1  0
  4  5  1  0
  4  6  1  0
  6  7  2  0
  6  8  1  0
  8  9  1  0
  8 10  1  0
 10 11  2  0
 11 12  1  0
 11 13  1  0
 13 14  1  0
 13 15  2  0
 15 16  1  0
 15 17  1  0
 17 18  1  0
 17 19  2  0
 19 20  1  0
  3 21  1  0
 21 22  1  0
 21 23  1  0
 21 24  1  0
  2 25  1  0
 25 26  2  0
 26 27  1  0
 26 28  1  0
 28 29  2  0
 29 30  1  0
 29 31  1  0
 31 32  1  0
 31 33  2  0
 33 34  1  0
 19 10  1  0
 33 25  1  0
M  END
>  <cnnaffinity>  (1) 
-4.85221

>  <filename>  (1) 
CC(=Cc1cccnc1)NC(=O)Nc1ccc(Cl)cc1

$$$$
