
     RDKit          3D

 41 43  0  0  0  0  0  0  0  0999 V2000
    5.0117    1.7503   17.0186 H   0  0  0  0  0  0  0  0  0  0  0  0
    5.4677    1.2425   17.8669 C   0  0  0  0  0  0  0  0  0  0  0  0
    6.6305    0.6137   17.6330 N   0  0  0  0  0  0  0  0  0  0  0  0
    7.2266    0.0035   18.6662 C   0  0  0  0  0  0  0  0  0  0  0  0
    8.1630   -0.5133   18.4747 H   0  0  0  0  0  0  0  0  0  0  0  0
    6.7010    0.0123   19.9706 C   0  0  0  0  0  0  0  0  0  0  0  0
    7.4041   -0.6874   20.9441 O   0  0  0  0  0  0  0  0  0  0  0  0
    7.3832   -0.2906   22.2574 C   0  0  0  0  0  0  0  0  0  0  0  0
    7.1097    0.8229   22.6275 O   0  0  0  0  0  0  0  0  0  0  0  0
    7.8471   -1.4134   23.1589 C   0  0  0  0  0  0  0  0  0  0  0  0
    9.3535   -1.3761   23.3855 C   0  0  0  0  0  0  0  0  0  0  0  0
    9.6065   -2.1979   24.0885 H   0  0  0  0  0  0  0  0  0  0  0  0
   10.1563   -1.5880   22.0897 C   0  0  0  0  0  0  0  0  0  0  0  0
    9.9426   -0.7891   21.3699 H   0  0  0  0  0  0  0  0  0  0  0  0
    9.8496   -2.5213   21.6034 H   0  0  0  0  0  0  0  0  0  0  0  0
   11.6574   -1.6097   22.3842 C   0  0  0  0  0  0  0  0  0  0  0  0
   12.1985   -1.6325   21.4335 H   0  0  0  0  0  0  0  0  0  0  0  0
   11.9033   -2.5581   22.8974 H   0  0  0  0  0  0  0  0  0  0  0  0
   12.0554   -0.4162   23.1640 N   0  0  0  0  0  0  0  0  0  0  0  0
   13.2820    0.1936   23.0669 C   0  0  0  0  0  0  0  0  0  0  0  0
   13.5416    1.2350   23.6494 O   0  0  0  0  0  0  0  0  0  0  0  0
   14.3388   -0.5011   22.2628 C   0  0  0  0  0  0  0  0  0  0  0  0
   14.5160   -1.5119   22.6376 H   0  0  0  0  0  0  0  0  0  0  0  0
   15.2107    0.1263   22.3847 H   0  0  0  0  0  0  0  0  0  0  0  0
   14.0938   -0.5843   21.2071 H   0  0  0  0  0  0  0  0  0  0  0  0
   11.2640   -0.0745   24.3604 C   0  0  0  0  0  0  0  0  0  0  0  0
   11.5877    0.9145   24.6983 H   0  0  0  0  0  0  0  0  0  0  0  0
   11.4619   -0.7857   25.1842 H   0  0  0  0  0  0  0  0  0  0  0  0
    9.7903   -0.0471   24.0239 C   0  0  0  0  0  0  0  0  0  0  0  0
    9.5909    0.7881   23.3386 H   0  0  0  0  0  0  0  0  0  0  0  0
    9.2077    0.1545   24.9282 H   0  0  0  0  0  0  0  0  0  0  0  0
    6.9510   -1.7881   24.3170 C   0  0  0  0  0  0  0  0  0  0  0  0
    5.9958   -1.2728   24.4109 H   0  0  0  0  0  0  0  0  0  0  0  0
    7.4376   -2.0125   25.2674 H   0  0  0  0  0  0  0  0  0  0  0  0
    7.1422   -2.7450   23.1719 C   0  0  0  0  0  0  0  0  0  0  0  0
    7.7614   -3.6214   23.3583 H   0  0  0  0  0  0  0  0  0  0  0  0
    6.3140   -2.9106   22.4875 H   0  0  0  0  0  0  0  0  0  0  0  0
    5.4877    0.6520   20.2120 C   0  0  0  0  0  0  0  0  0  0  0  0
    5.0687    0.6787   21.2152 H   0  0  0  0  0  0  0  0  0  0  0  0
    4.8577    1.2665   19.1250 C   0  0  0  0  0  0  0  0  0  0  0  0
    3.9125    1.7777   19.2509 H   0  0  0  0  0  0  0  0  0  0  0  0
  1  2  1  0
  2  3  2  0
  3  4  1  0
  4  5  1  0
  4  6  2  0
  6  7  1  0
  7  8  1  0
  8  9  2  0
  8 10  1  0
 10 11  1  0
 11 12  1  0
 11 13  1  0
 13 14  1  0
 13 15  1  0
 13 16  1  0
 16 17  1  0
 16 18  1  0
 16 19  1  0
 19 20  1  0
 20 21  2  0
 20 22  1  0
 22 23  1  0
 22 24  1  0
 22 25  1  0
 19 26  1  0
 26 27  1  0
 26 28  1  0
 26 29  1  0
 29 30  1  0
 29 31  1  0
 10 32  1  0
 32 33  1  0
 32 34  1  0
 32 35  1  0
 35 36  1  0
 35 37  1  0
  6 38  1  0
 38 39  1  0
 38 40  2  0
 40 41  1  0
 40  2  1  0
 35 10  1  0
 29 11  1  0
M  END
>  <cnnaffinity>  (1) 
-5.51808

>  <filename>  (1) 
CC(=O)N1CCC(C2(C(=O)Oc3cccnc3)CC2)CC1

$$$$
