
     RDKit          3D

 42 45  0  0  0  0  0  0  0  0999 V2000
    4.9344    1.8038   16.9555 H   0  0  0  0  0  0  0  0  0  0  0  0
    5.4121    1.3049   17.7937 C   0  0  0  0  0  0  0  0  0  0  0  0
    6.5743    0.6860   17.5396 N   0  0  0  0  0  0  0  0  0  0  0  0
    7.2044    0.0933   18.5576 C   0  0  0  0  0  0  0  0  0  0  0  0
    8.1426   -0.4014   18.3115 H   0  0  0  0  0  0  0  0  0  0  0  0
    6.7048    0.0747   19.8716 C   0  0  0  0  0  0  0  0  0  0  0  0
    7.4096   -0.6628   20.9335 C   0  0  0  0  0  0  0  0  0  0  0  0
    8.6280   -1.1911   20.7470 N   0  0  0  0  0  0  0  0  0  0  0  0
    8.8281   -1.8751   21.8976 N   0  0  0  0  0  0  0  0  0  0  0  0
    9.7581   -2.8025   22.3354 C   0  0  0  0  0  0  0  0  0  0  0  0
   10.6885   -2.9194   21.8096 H   0  0  0  0  0  0  0  0  0  0  0  0
    9.2120   -3.3852   23.4381 C   0  0  0  0  0  0  0  0  0  0  0  0
    9.5530   -4.2352   24.0145 H   0  0  0  0  0  0  0  0  0  0  0  0
    8.0046   -2.7545   23.7373 N   0  0  0  0  0  0  0  0  0  0  0  0
    6.9503   -3.1289   24.6771 C   0  0  0  0  0  0  0  0  0  0  0  0
    6.3100   -2.2412   24.7684 H   0  0  0  0  0  0  0  0  0  0  0  0
    7.4783   -3.4747   26.0763 C   0  0  0  0  0  0  0  0  0  0  0  0
    8.0154   -2.6250   26.5136 H   0  0  0  0  0  0  0  0  0  0  0  0
    8.1871   -4.3056   25.9999 H   0  0  0  0  0  0  0  0  0  0  0  0
    6.3343   -3.8922   27.0025 C   0  0  0  0  0  0  0  0  0  0  0  0
    5.6877   -3.0241   27.2168 H   0  0  0  0  0  0  0  0  0  0  0  0
    6.7396   -4.2220   27.9611 H   0  0  0  0  0  0  0  0  0  0  0  0
    5.5466   -4.9762   26.4015 N   0  0  0  0  0  0  0  0  0  0  0  0
    4.9606   -5.9854   27.1328 C   0  0  0  0  0  0  0  0  0  0  0  0
    3.9675   -6.5813   26.7426 O   0  0  0  0  0  0  0  0  0  0  0  0
    5.6195   -6.3556   28.4365 C   0  0  0  0  0  0  0  0  0  0  0  0
    5.4266   -5.5849   29.1882 H   0  0  0  0  0  0  0  0  0  0  0  0
    6.6976   -6.4657   28.3009 H   0  0  0  0  0  0  0  0  0  0  0  0
    5.1850   -7.3012   28.7582 H   0  0  0  0  0  0  0  0  0  0  0  0
    4.9954   -4.6865   25.0714 C   0  0  0  0  0  0  0  0  0  0  0  0
    4.4970   -5.5872   24.7031 H   0  0  0  0  0  0  0  0  0  0  0  0
    4.2274   -3.8989   25.1414 H   0  0  0  0  0  0  0  0  0  0  0  0
    6.1043   -4.2807   24.1134 C   0  0  0  0  0  0  0  0  0  0  0  0
    6.7673   -5.1374   23.9478 H   0  0  0  0  0  0  0  0  0  0  0  0
    5.6815   -4.0045   23.1400 H   0  0  0  0  0  0  0  0  0  0  0  0
    7.7827   -1.8248   22.7492 C   0  0  0  0  0  0  0  0  0  0  0  0
    6.8476   -0.9756   22.1918 C   0  0  0  0  0  0  0  0  0  0  0  0
    5.9290   -0.5759   22.5668 H   0  0  0  0  0  0  0  0  0  0  0  0
    5.4694    0.7032   20.1091 C   0  0  0  0  0  0  0  0  0  0  0  0
    5.0174    0.7015   21.1012 H   0  0  0  0  0  0  0  0  0  0  0  0
    4.8149    1.3282   19.0566 C   0  0  0  0  0  0  0  0  0  0  0  0
    3.8701    1.8391   19.2068 H   0  0  0  0  0  0  0  0  0  0  0  0
  1  2  1  0
  2  3  2  0
  3  4  1  0
  4  5  1  0
  4  6  2  0
  6  7  1  0
  7  8  2  0
  8  9  1  0
  9 10  1  0
 10 11  1  0
 10 12  2  0
 12 13  1  0
 12 14  1  0
 14 15  1  0
 15 16  1  0
 15 17  1  0
 17 18  1  0
 17 19  1  0
 17 20  1  0
 20 21  1  0
 20 22  1  0
 20 23  1  0
 23 24  1  0
 24 25  2  0
 24 26  1  0
 26 27  1  0
 26 28  1  0
 26 29  1  0
 23 30  1  0
 30 31  1  0
 30 32  1  0
 30 33  1  0
 33 34  1  0
 33 35  1  0
 14 36  1  0
 36 37  2  0
 37 38  1  0
  6 39  1  0
 39 40  1  0
 39 41  2  0
 41 42  1  0
 41  2  1  0
 37  7  1  0
 36  9  1  0
 33 15  1  0
M  END
>  <cnnaffinity>  (1) 
-5.54762

>  <filename>  (1) 
CC(=O)N1CCC(n2ccn3nc(-c4cccnc4)cc23)CC1

$$$$
