
     RDKit          3D

 35 36  0  0  0  0  0  0  0  0999 V2000
    4.9650    1.7653   16.9996 H   0  0  0  0  0  0  0  0  0  0  0  0
    5.4301    1.2766   17.8540 C   0  0  0  0  0  0  0  0  0  0  0  0
    6.6005    0.6615   17.6203 N   0  0  0  0  0  0  0  0  0  0  0  0
    7.2184    0.0629   18.6500 C   0  0  0  0  0  0  0  0  0  0  0  0
    8.1529   -0.4337   18.3937 H   0  0  0  0  0  0  0  0  0  0  0  0
    6.6713    0.0526   19.9328 C   0  0  0  0  0  0  0  0  0  0  0  0
    7.4880   -0.8433   21.2279 S   0  0  0  0  0  4  0  0  0  0  0  0
    7.8438   -2.1993   20.7435 O   0  0  0  0  0  0  0  0  0  0  0  0
    9.0115   -0.1265   21.1326 N   0  0  0  0  0  0  0  0  0  0  0  0
    9.5843   -0.9723   21.1199 H   0  0  0  0  0  0  0  0  0  0  0  0
    9.3777    0.8092   22.2104 C   0  0  0  0  0  0  0  0  0  0  0  0
   10.4448    1.0199   22.0623 H   0  0  0  0  0  0  0  0  0  0  0  0
    8.6082    2.1217   22.0018 C   0  0  0  0  0  0  0  0  0  0  0  0
    7.5524    1.8976   21.7984 H   0  0  0  0  0  0  0  0  0  0  0  0
    9.0089    2.6336   21.1233 H   0  0  0  0  0  0  0  0  0  0  0  0
    8.6869    3.0338   23.2184 C   0  0  0  0  0  0  0  0  0  0  0  0
    9.7126    3.3882   23.4034 H   0  0  0  0  0  0  0  0  0  0  0  0
    8.0751    3.9310   23.0560 H   0  0  0  0  0  0  0  0  0  0  0  0
    8.1819    2.3449   24.4239 N   0  0  0  0  0  0  0  0  0  0  0  0
    7.8993    3.1276   25.5142 C   0  0  0  0  0  0  0  0  0  0  0  0
    8.2713    4.2918   25.5771 O   0  0  0  0  0  0  0  0  0  0  0  0
    7.0875    2.5215   26.6440 C   0  0  0  0  0  0  0  0  0  0  0  0
    6.2521    1.9153   26.2833 H   0  0  0  0  0  0  0  0  0  0  0  0
    7.7157    1.8922   27.2840 H   0  0  0  0  0  0  0  0  0  0  0  0
    6.7099    3.3545   27.2370 H   0  0  0  0  0  0  0  0  0  0  0  0
    8.0227    0.8858   24.3989 C   0  0  0  0  0  0  0  0  0  0  0  0
    7.0686    0.6072   23.9214 H   0  0  0  0  0  0  0  0  0  0  0  0
    7.9974    0.5039   25.4255 H   0  0  0  0  0  0  0  0  0  0  0  0
    9.1859    0.2322   23.6421 C   0  0  0  0  0  0  0  0  0  0  0  0
    8.9912   -0.8466   23.5953 H   0  0  0  0  0  0  0  0  0  0  0  0
   10.1108    0.3734   24.2133 H   0  0  0  0  0  0  0  0  0  0  0  0
    5.4496    0.6788   20.1789 C   0  0  0  0  0  0  0  0  0  0  0  0
    5.0035    0.6493   21.1726 H   0  0  0  0  0  0  0  0  0  0  0  0
    4.8186    1.3108   19.1117 C   0  0  0  0  0  0  0  0  0  0  0  0
    3.8763    1.8258   19.2444 H   0  0  0  0  0  0  0  0  0  0  0  0
  1  2  1  0
  2  3  2  0
  3  4  1  0
  4  5  1  0
  4  6  2  0
  6  7  1  0
  7  8  2  0
  7  9  1  1
  9 10  1  0
  9 11  1  0
 11 12  1  0
 11 13  1  0
 13 14  1  0
 13 15  1  0
 13 16  1  0
 16 17  1  0
 16 18  1  0
 16 19  1  0
 19 20  1  0
 20 21  2  0
 20 22  1  0
 22 23  1  0
 22 24  1  0
 22 25  1  0
 19 26  1  0
 26 27  1  0
 26 28  1  0
 26 29  1  0
 29 30  1  0
 29 31  1  0
  6 32  1  0
 32 33  1  0
 32 34  2  0
 34 35  1  0
 34  2  1  0
 29 11  1  0
M  END
>  <cnnaffinity>  (1) 
-4.52714

>  <filename>  (1) 
CC(=O)N1CCC(N[S@@](=O)c2cccnc2)CC1

$$$$
