
     RDKit          3D

 50 54  0  0  0  0  0  0  0  0999 V2000
    5.6171    4.7379   23.7450 C   0  0  0  0  0  0  0  0  0  0  0  0
    7.0373    4.3286   23.4196 C   0  0  0  0  0  0  0  0  0  0  0  0
    7.5976    4.6655   22.3853 O   0  0  0  0  0  0  0  0  0  0  0  0
    7.6756    3.5572   24.3589 N   0  0  0  0  0  0  0  0  0  0  0  0
    7.2615    3.3199   25.7380 C   0  0  0  0  0  0  0  0  0  0  0  0
    8.5660    2.9292   26.4320 C   0  0  0  0  0  0  0  0  0  0  0  0
    9.3358    2.1699   25.3517 C   0  0  0  0  0  0  0  0  0  0  0  0
    8.9266    2.8675   24.0332 C   0  0  1  0  0  0  0  0  0  0  0  0
    8.8434    1.8800   22.8891 C   0  0  0  0  0  0  0  0  0  0  0  0
    7.8165    1.1366   22.5284 N   0  0  0  0  0  0  0  0  0  0  0  0
    8.3600    0.2448   21.6628 C   0  0  0  0  0  0  0  0  0  0  0  0
    7.4878   -0.7256   20.9131 C   0  0  0  0  0  0  0  0  0  0  0  0
    6.6998   -0.0661   19.7880 C   0  0  0  0  0  0  0  0  0  0  0  0
    5.5077    0.6080   20.0820 C   0  0  0  0  0  0  0  0  0  0  0  0
    4.8495    1.2921   19.0599 C   0  0  0  0  0  0  0  0  0  0  0  0
    5.4179    1.2882   17.7831 C   0  0  0  0  0  0  0  0  0  0  0  0
    6.5523    0.6401   17.4743 N   0  0  0  0  0  0  0  0  0  0  0  0
    7.1654   -0.0214   18.4635 C   0  0  0  0  0  0  0  0  0  0  0  0
    8.0896   -0.5405   18.2024 H   0  0  0  0  0  0  0  0  0  0  0  0
    4.9422    1.8250   16.9666 H   0  0  0  0  0  0  0  0  0  0  0  0
    3.9271    1.8313   19.2429 H   0  0  0  0  0  0  0  0  0  0  0  0
    5.1401    0.6125   21.1107 H   0  0  0  0  0  0  0  0  0  0  0  0
    8.1146   -1.5410   20.5401 H   0  0  0  0  0  0  0  0  0  0  0  0
    6.7868   -1.1363   21.6493 H   0  0  0  0  0  0  0  0  0  0  0  0
    9.6688    0.3492   21.5059 N   0  0  0  0  0  0  0  0  0  0  0  0
    9.9702    1.4423   22.2658 N   0  0  0  0  0  0  0  0  0  0  0  0
   11.2684    2.0003   22.3715 C   0  0  0  0  0  0  0  0  0  0  0  0
   11.5164    3.3748   22.3142 C   0  0  0  0  0  0  0  0  0  0  0  0
   12.8248    3.8764   22.4749 C   0  0  0  0  0  0  0  0  0  0  0  0
   13.9029    3.0290   22.7004 C   0  0  0  0  0  0  0  0  0  0  0  0
   13.6693    1.6372   22.7607 C   0  0  0  0  0  0  0  0  0  0  0  0
   12.3684    1.1482   22.5570 C   0  0  0  0  0  0  0  0  0  0  0  0
   12.4923   -0.2185   22.5422 N   0  0  0  0  0  0  0  0  0  0  0  0
   13.8167   -0.4937   22.7045 C   0  0  0  0  0  0  0  0  0  0  0  0
   14.5532    0.5706   22.8527 N   0  0  0  0  0  0  0  0  0  0  0  0
   14.1985   -1.5098   22.7069 H   0  0  0  0  0  0  0  0  0  0  0  0
   11.7607   -0.8234   22.1973 H   0  0  0  0  0  0  0  0  0  0  0  0
   14.9102    3.4212   22.6844 H   0  0  0  0  0  0  0  0  0  0  0  0
   12.9968    4.9451   22.4225 H   0  0  0  0  0  0  0  0  0  0  0  0
   10.7020    4.0645   22.1197 H   0  0  0  0  0  0  0  0  0  0  0  0
    9.6620    3.6342   23.7866 H   0  0  0  0  0  0  0  0  0  0  0  0
   10.4196    2.1742   25.4878 H   0  0  0  0  0  0  0  0  0  0  0  0
    9.0226    1.1190   25.3298 H   0  0  0  0  0  0  0  0  0  0  0  0
    8.3894    2.3202   27.3231 H   0  0  0  0  0  0  0  0  0  0  0  0
    9.1047    3.8334   26.7346 H   0  0  0  0  0  0  0  0  0  0  0  0
    6.7998    4.2125   26.1744 H   0  0  0  0  0  0  0  0  0  0  0  0
    6.5331    2.4988   25.7870 H   0  0  0  0  0  0  0  0  0  0  0  0
    5.6278    5.5467   24.4822 H   0  0  0  0  0  0  0  0  0  0  0  0
    5.1153    5.0922   22.8436 H   0  0  0  0  0  0  0  0  0  0  0  0
    5.0583    3.9012   24.1714 H   0  0  0  0  0  0  0  0  0  0  0  0
  1  2  1  0
  2  3  2  0
  2  4  1  0
  4  5  1  0
  5  6  1  0
  6  7  1  0
  7  8  1  0
  8  9  1  0
  9 10  2  0
 10 11  1  0
 11 12  1  0
 12 13  1  0
 13 14  2  0
 14 15  1  0
 15 16  2  0
 16 17  1  0
 17 18  2  0
 18 19  1  0
 16 20  1  0
 15 21  1  0
 14 22  1  0
 12 23  1  0
 12 24  1  0
 11 25  2  0
 25 26  1  0
 26 27  1  0
 27 28  2  0
 28 29  1  0
 29 30  2  0
 30 31  1  0
 31 32  2  0
 32 33  1  0
 33 34  1  0
 34 35  2  0
 34 36  1  0
 33 37  1  0
 30 38  1  0
 29 39  1  0
 28 40  1  0
  8 41  1  6
  7 42  1  0
  7 43  1  0
  6 44  1  0
  6 45  1  0
  5 46  1  0
  5 47  1  0
  1 48  1  0
  1 49  1  0
  1 50  1  0
  8  4  1  0
 26  9  1  0
 32 27  1  0
 18 13  1  0
 35 31  1  0
M  END
>  <cnnaffinity>  (1) 
-6.51264

>  <filename>  (1) 
CC(=O)N1CCC[C@H]1c1nc(Cc2cccnc2)nn1-c1cccc2nc[nH]c12

$$$$
