
     RDKit          3D

 23 24  0  0  0  0  0  0  0  0999 V2000
    9.0211   -1.5028   22.0148 H   0  0  0  0  0  0  0  0  0  0  0  0
    8.4781   -0.7446   21.4565 C   0  0  0  0  0  0  0  0  0  0  0  0
    7.2532   -1.0133   20.9812 C   0  0  0  0  0  0  0  0  0  0  0  0
    6.6331   -0.1453   19.9363 C   0  0  0  0  0  0  0  0  0  0  0  0
    7.2056   -0.0397   18.6568 C   0  0  0  0  0  0  0  0  0  0  0  0
    8.1436   -0.5508   18.4480 H   0  0  0  0  0  0  0  0  0  0  0  0
    6.6514    0.6331   17.6376 N   0  0  0  0  0  0  0  0  0  0  0  0
    5.4928    1.2659   17.8751 C   0  0  0  0  0  0  0  0  0  0  0  0
    5.0546    1.7966   17.0284 H   0  0  0  0  0  0  0  0  0  0  0  0
    4.8608    1.2715   19.1249 C   0  0  0  0  0  0  0  0  0  0  0  0
    3.9377    1.8238   19.2593 H   0  0  0  0  0  0  0  0  0  0  0  0
    5.4471    0.5595   20.1750 C   0  0  0  0  0  0  0  0  0  0  0  0
    5.0083    0.5473   21.1751 H   0  0  0  0  0  0  0  0  0  0  0  0
    6.4600   -2.1707   21.5525 C   0  0  0  0  0  0  0  0  0  0  0  0
    7.1052   -3.0499   21.6644 H   0  0  0  0  0  0  0  0  0  0  0  0
    6.0492   -1.9526   22.5531 H   0  0  0  0  0  0  0  0  0  0  0  0
    5.6182   -2.4348   20.9034 H   0  0  0  0  0  0  0  0  0  0  0  0
    9.1622    0.5523   21.3676 C   0  0  0  0  0  0  0  0  0  0  0  0
   10.5038    0.6779   21.5340 N   0  0  0  0  0  0  0  0  0  0  0  0
   10.7754    1.9428   21.4425 N   0  0  0  0  0  0  0  0  0  0  0  0
    9.6223    2.5412   21.2428 N   0  0  0  0  0  0  0  0  0  0  0  0
    9.5449    3.5480   21.1574 H   0  0  0  0  0  0  0  0  0  0  0  0
    8.5827    1.7370   21.1632 N   0  0  0  0  0  0  0  0  0  0  0  0
  1  2  1  0
  2  3  2  3
  3  4  1  0
  4  5  2  0
  5  6  1  0
  5  7  1  0
  7  8  2  0
  8  9  1  0
  8 10  1  0
 10 11  1  0
 10 12  2  0
 12 13  1  0
  3 14  1  0
 14 15  1  0
 14 16  1  0
 14 17  1  0
  2 18  1  0
 18 19  1  0
 19 20  2  0
 20 21  1  0
 21 22  1  0
 21 23  1  0
 12  4  1  0
 23 18  2  0
M  END
>  <cnnaffinity>  (1) 
-4.76995

>  <filename>  (1) 
CC(=Cc1nn[nH]n1)c1cccnc1

$$$$
