
     RDKit          3D

 33 35  0  0  0  0  0  0  0  0999 V2000
    6.9341   -2.0419   26.5991 C   0  0  0  0  0  0  0  0  0  0  0  0
    6.9277   -1.3730   25.2311 C   0  0  0  0  0  0  0  0  0  0  0  0
    7.7726   -1.8069   24.2763 C   0  0  0  0  0  0  0  0  0  0  0  0
    7.8486   -1.4810   22.8589 C   0  0  0  0  0  0  0  0  0  0  0  0
    8.8257   -1.8349   22.0792 N   0  0  0  0  0  0  0  0  0  0  0  0
    8.5381   -1.3333   20.8250 N   0  0  0  0  0  0  0  0  0  0  0  0
    7.4022   -0.7249   20.9288 C   0  0  0  0  0  0  0  0  0  0  0  0
    6.6540   -0.0086   19.9021 C   0  0  0  0  0  0  0  0  0  0  0  0
    5.4394    0.6438   20.1570 C   0  0  0  0  0  0  0  0  0  0  0  0
    4.8119    1.3011   19.1038 C   0  0  0  0  0  0  0  0  0  0  0  0
    5.4223    1.2863   17.8445 C   0  0  0  0  0  0  0  0  0  0  0  0
    6.5833    0.6608   17.5876 N   0  0  0  0  0  0  0  0  0  0  0  0
    7.1826    0.0352   18.6042 C   0  0  0  0  0  0  0  0  0  0  0  0
    8.1332   -0.4542   18.3846 H   0  0  0  0  0  0  0  0  0  0  0  0
    4.9563    1.8010   17.0085 H   0  0  0  0  0  0  0  0  0  0  0  0
    3.8763    1.8325   19.2451 H   0  0  0  0  0  0  0  0  0  0  0  0
    5.0045    0.6451   21.1577 H   0  0  0  0  0  0  0  0  0  0  0  0
    6.8964   -0.7890   22.1829 O   0  0  0  0  0  0  0  0  0  0  0  0
    8.5547   -2.5172   24.5323 H   0  0  0  0  0  0  0  0  0  0  0  0
    5.9215   -0.2785   25.0382 C   0  0  0  0  0  0  0  0  0  0  0  0
    6.2635    0.9932   24.5409 C   0  0  0  0  0  0  0  0  0  0  0  0
    5.2709    1.9457   24.2831 C   0  0  0  0  0  0  0  0  0  0  0  0
    3.9350    1.6771   24.6081 C   0  0  0  0  0  0  0  0  0  0  0  0
    3.5988    0.4514   25.1908 C   0  0  0  0  0  0  0  0  0  0  0  0
    4.5794   -0.5182   25.4040 C   0  0  0  0  0  0  0  0  0  0  0  0
    4.3191   -1.4865   25.8311 H   0  0  0  0  0  0  0  0  0  0  0  0
    2.5709    0.2790   25.4967 H   0  0  0  0  0  0  0  0  0  0  0  0
    3.1632    2.4231   24.4372 H   0  0  0  0  0  0  0  0  0  0  0  0
    5.5420    2.9082   23.8649 H   0  0  0  0  0  0  0  0  0  0  0  0
    7.3035    1.2583   24.3685 H   0  0  0  0  0  0  0  0  0  0  0  0
    7.9414   -2.1163   27.0280 H   0  0  0  0  0  0  0  0  0  0  0  0
    6.5212   -3.0599   26.5619 H   0  0  0  0  0  0  0  0  0  0  0  0
    6.3241   -1.4716   27.3064 H   0  0  0  0  0  0  0  0  0  0  0  0
  1  2  1  0
  2  3  2  3
  3  4  1  0
  4  5  2  0
  5  6  1  0
  6  7  2  0
  7  8  1  0
  8  9  2  0
  9 10  1  0
 10 11  2  0
 11 12  1  0
 12 13  2  0
 13 14  1  0
 11 15  1  0
 10 16  1  0
  9 17  1  0
  7 18  1  0
  3 19  1  0
  2 20  1  0
 20 21  2  0
 21 22  1  0
 22 23  2  0
 23 24  1  0
 24 25  2  0
 25 26  1  0
 24 27  1  0
 23 28  1  0
 22 29  1  0
 21 30  1  0
  1 31  1  0
  1 32  1  0
  1 33  1  0
 18  4  1  0
 25 20  1  0
 13  8  1  0
M  END
>  <cnnaffinity>  (1) 
-5.07886

>  <filename>  (1) 
CC(=Cc1nnc(-c2cccnc2)o1)c1ccccc1

$$$$
