
     RDKit          3D

 31 33  0  0  0  0  0  0  0  0999 V2000
    6.6041   -1.3594   21.5860 H   0  0  0  0  0  0  0  0  0  0  0  0
    7.2505   -0.6846   21.0151 C   0  0  0  0  0  0  0  0  0  0  0  0
    8.5230   -0.5134   21.4058 C   0  0  0  0  0  0  0  0  0  0  0  0
    9.1100   -1.3750   22.4741 C   0  0  0  0  0  0  0  0  0  0  0  0
   10.3811   -1.9452   22.2931 C   0  0  0  0  0  0  0  0  0  0  0  0
   10.9561   -1.6618   21.4150 H   0  0  0  0  0  0  0  0  0  0  0  0
   10.9116   -2.8854   23.1989 C   0  0  0  0  0  0  0  0  0  0  0  0
   11.8505   -3.3970   23.0294 H   0  0  0  0  0  0  0  0  0  0  0  0
   10.1712   -3.1578   24.3351 C   0  0  0  0  0  0  0  0  0  0  0  0
    8.9508   -2.5245   24.5795 C   0  0  0  0  0  0  0  0  0  0  0  0
    8.3835   -1.6661   23.6632 C   0  0  0  0  0  0  0  0  0  0  0  0
    7.4241   -1.2120   23.8734 H   0  0  0  0  0  0  0  0  0  0  0  0
    8.4426   -2.9551   25.7728 O   0  0  0  0  0  0  0  0  0  0  0  0
    9.4648   -3.7599   26.3570 C   0  0  0  0  0  0  0  0  0  0  0  0
    9.9301   -3.2236   27.1976 H   0  0  0  0  0  0  0  0  0  0  0  0
    9.0248   -4.6958   26.7089 H   0  0  0  0  0  0  0  0  0  0  0  0
   10.4417   -4.0299   25.3518 O   0  0  0  0  0  0  0  0  0  0  0  0
    9.3865    0.5349   20.7384 C   0  0  0  0  0  0  0  0  0  0  0  0
    8.8094    1.4472   20.5559 H   0  0  0  0  0  0  0  0  0  0  0  0
   10.2786    0.7853   21.3184 H   0  0  0  0  0  0  0  0  0  0  0  0
    9.6762    0.1826   19.7450 H   0  0  0  0  0  0  0  0  0  0  0  0
    6.5754   -0.0125   19.8813 C   0  0  0  0  0  0  0  0  0  0  0  0
    7.1090    0.0441   18.5758 C   0  0  0  0  0  0  0  0  0  0  0  0
    8.0432   -0.4720   18.3638 H   0  0  0  0  0  0  0  0  0  0  0  0
    6.5426    0.6865   17.5475 N   0  0  0  0  0  0  0  0  0  0  0  0
    5.3915    1.3293   17.7880 C   0  0  0  0  0  0  0  0  0  0  0  0
    4.9570    1.8692   16.9478 H   0  0  0  0  0  0  0  0  0  0  0  0
    4.7533    1.3167   19.0352 C   0  0  0  0  0  0  0  0  0  0  0  0
    3.8256    1.8578   19.1642 H   0  0  0  0  0  0  0  0  0  0  0  0
    5.3421    0.6237   20.0916 C   0  0  0  0  0  0  0  0  0  0  0  0
    4.8872    0.6088   21.0836 H   0  0  0  0  0  0  0  0  0  0  0  0
  1  2  1  0
  2  3  2  3
  3  4  1  0
  4  5  2  0
  5  6  1  0
  5  7  1  0
  7  8  1  0
  7  9  2  0
  9 10  1  0
 10 11  2  0
 11 12  1  0
 10 13  1  0
 13 14  1  0
 14 15  1  0
 14 16  1  0
 14 17  1  0
  3 18  1  0
 18 19  1  0
 18 20  1  0
 18 21  1  0
  2 22  1  0
 22 23  2  0
 23 24  1  0
 23 25  1  0
 25 26  2  0
 26 27  1  0
 26 28  1  0
 28 29  1  0
 28 30  2  0
 30 31  1  0
 11  4  1  0
 30 22  1  0
 17  9  1  0
M  END
>  <cnnaffinity>  (1) 
-4.84499

>  <filename>  (1) 
CC(=Cc1cccnc1)c1ccc2c(c1)OCO2

$$$$
