
     RDKit          3D

 34 35  0  0  0  0  0  0  0  0999 V2000
    8.8436   -0.4084   21.1660 C   0  0  0  0  0  0  0  0  0  0  0  0
    7.3791   -0.7347   20.9881 C   0  0  0  0  0  0  0  0  0  0  0  0
    6.7201   -1.6266   21.7511 C   0  0  0  0  0  0  0  0  0  0  0  0
    7.3400   -2.4392   22.8281 C   0  0  0  0  0  0  0  0  0  0  0  0
    8.5103   -2.4526   23.1375 O   0  0  0  0  0  0  0  0  0  0  0  0
    6.4063   -3.2062   23.4451 O   0  0  0  0  0  0  0  0  0  0  0  0
    6.8527   -4.0581   24.5264 C   0  0  0  0  0  0  0  0  0  0  0  0
    5.6725   -4.8327   25.0744 C   0  0  0  0  0  0  0  0  0  0  0  0
    5.1236   -4.5077   26.3242 C   0  0  0  0  0  0  0  0  0  0  0  0
    4.0300   -5.2014   26.8495 C   0  0  0  0  0  0  0  0  0  0  0  0
    3.4668   -6.2593   26.1393 C   0  0  0  0  0  0  0  0  0  0  0  0
    4.0089   -6.6220   24.9034 C   0  0  0  0  0  0  0  0  0  0  0  0
    3.2794   -7.9443   24.0528 Cl  0  0  0  0  0  0  0  0  0  0  0  0
    5.1076   -5.9176   24.3752 C   0  0  0  0  0  0  0  0  0  0  0  0
    5.7656   -6.3884   22.8437 Cl  0  0  0  0  0  0  0  0  0  0  0  0
    2.6143   -6.8168   26.5192 H   0  0  0  0  0  0  0  0  0  0  0  0
    3.6100   -4.9191   27.8099 H   0  0  0  0  0  0  0  0  0  0  0  0
    5.5550   -3.6901   26.8949 H   0  0  0  0  0  0  0  0  0  0  0  0
    7.3054   -3.4525   25.3171 H   0  0  0  0  0  0  0  0  0  0  0  0
    7.6283   -4.7397   24.1628 H   0  0  0  0  0  0  0  0  0  0  0  0
    5.6637   -1.8011   21.5715 H   0  0  0  0  0  0  0  0  0  0  0  0
    6.6381   -0.0118   19.9139 C   0  0  0  0  0  0  0  0  0  0  0  0
    5.4201    0.6417   20.1540 C   0  0  0  0  0  0  0  0  0  0  0  0
    4.8041    1.3150   19.0989 C   0  0  0  0  0  0  0  0  0  0  0  0
    5.4006    1.2944   17.8329 C   0  0  0  0  0  0  0  0  0  0  0  0
    6.5608    0.6716   17.5809 N   0  0  0  0  0  0  0  0  0  0  0  0
    7.1607    0.0632   18.6094 C   0  0  0  0  0  0  0  0  0  0  0  0
    8.1098   -0.4161   18.3826 H   0  0  0  0  0  0  0  0  0  0  0  0
    4.9252    1.7890   16.9862 H   0  0  0  0  0  0  0  0  0  0  0  0
    3.8739    1.8462   19.2463 H   0  0  0  0  0  0  0  0  0  0  0  0
    4.9988    0.6418   21.1609 H   0  0  0  0  0  0  0  0  0  0  0  0
    9.4743   -1.2762   20.9490 H   0  0  0  0  0  0  0  0  0  0  0  0
    9.1344    0.4214   20.5135 H   0  0  0  0  0  0  0  0  0  0  0  0
    9.0680   -0.1371   22.2038 H   0  0  0  0  0  0  0  0  0  0  0  0
  1  2  1  0
  2  3  2  3
  3  4  1  0
  4  5  2  0
  4  6  1  0
  6  7  1  0
  7  8  1  0
  8  9  2  0
  9 10  1  0
 10 11  2  0
 11 12  1  0
 12 13  1  0
 12 14  2  0
 14 15  1  0
 11 16  1  0
 10 17  1  0
  9 18  1  0
  7 19  1  0
  7 20  1  0
  3 21  1  0
  2 22  1  0
 22 23  2  0
 23 24  1  0
 24 25  2  0
 25 26  1  0
 26 27  2  0
 27 28  1  0
 25 29  1  0
 24 30  1  0
 23 31  1  0
  1 32  1  0
  1 33  1  0
  1 34  1  0
 14  8  1  0
 27 22  1  0
M  END
>  <cnnaffinity>  (1) 
-5.27146

>  <filename>  (1) 
CC(=CC(=O)OCc1cccc(Cl)c1Cl)c1cccnc1

$$$$
