
     RDKit          3D

 31 32  0  0  0  0  0  0  0  0999 V2000
    4.9174    1.8778   16.5923 H   0  0  0  0  0  0  0  0  0  0  0  0
    5.3918    1.3879   17.4400 C   0  0  0  0  0  0  0  0  0  0  0  0
    6.5326    0.7344   17.1780 N   0  0  0  0  0  0  0  0  0  0  0  0
    7.1520    0.1500   18.2030 C   0  0  0  0  0  0  0  0  0  0  0  0
    8.1016   -0.3286   17.9619 H   0  0  0  0  0  0  0  0  0  0  0  0
    6.6567    0.1296   19.5125 C   0  0  0  0  0  0  0  0  0  0  0  0
    7.4108   -0.5690   20.5566 C   0  0  0  0  0  0  0  0  0  0  0  0
    6.7659   -1.1106   21.5170 N   0  0  0  0  0  0  0  0  0  0  0  0
    7.4111   -2.2027   22.1134 C   0  0  0  0  0  0  0  0  0  0  0  0
    7.8494   -3.1733   21.5304 O   0  0  0  0  0  0  0  0  0  0  0  0
    7.4600   -1.9506   23.4487 N   0  0  0  0  0  0  0  0  0  0  0  0
    6.9875   -1.0897   23.6478 H   0  0  0  0  0  0  0  0  0  0  0  0
    8.1564   -2.6343   24.4478 C   0  0  0  0  0  0  0  0  0  0  0  0
    8.5593   -3.9670   24.2719 C   0  0  0  0  0  0  0  0  0  0  0  0
    8.3759   -4.4322   23.3126 H   0  0  0  0  0  0  0  0  0  0  0  0
    9.1754   -4.6546   25.3196 C   0  0  0  0  0  0  0  0  0  0  0  0
    9.4391   -5.7065   25.2132 H   0  0  0  0  0  0  0  0  0  0  0  0
    9.4659   -3.9805   26.5109 C   0  0  0  0  0  0  0  0  0  0  0  0
   10.2275   -4.8790   27.7947 Cl  0  0  0  0  0  0  0  0  0  0  0  0
    9.1512   -2.6229   26.6666 C   0  0  0  0  0  0  0  0  0  0  0  0
    9.4817   -2.0801   27.5492 H   0  0  0  0  0  0  0  0  0  0  0  0
    8.4723   -1.9596   25.6372 C   0  0  0  0  0  0  0  0  0  0  0  0
    8.2075   -0.9110   25.7474 H   0  0  0  0  0  0  0  0  0  0  0  0
    8.9241   -0.5208   20.4950 C   0  0  0  0  0  0  0  0  0  0  0  0
    9.2705    0.1193   19.6899 H   0  0  0  0  0  0  0  0  0  0  0  0
    9.3069   -0.1139   21.4350 H   0  0  0  0  0  0  0  0  0  0  0  0
    9.3199   -1.5278   20.3639 H   0  0  0  0  0  0  0  0  0  0  0  0
    5.4553    0.8088   19.7747 C   0  0  0  0  0  0  0  0  0  0  0  0
    5.0507    0.8171   20.7884 H   0  0  0  0  0  0  0  0  0  0  0  0
    4.8294    1.4663   18.7197 C   0  0  0  0  0  0  0  0  0  0  0  0
    3.9253    2.0450   18.8726 H   0  0  0  0  0  0  0  0  0  0  0  0
  1  2  1  0
  2  3  2  0
  3  4  1  0
  4  5  1  0
  4  6  2  0
  6  7  1  0
  7  8  2  3
  8  9  1  0
  9 10  2  0
  9 11  1  0
 11 12  1  0
 11 13  1  0
 13 14  2  0
 14 15  1  0
 14 16  1  0
 16 17  1  0
 16 18  2  0
 18 19  1  0
 18 20  1  0
 20 21  1  0
 20 22  2  0
 22 23  1  0
  7 24  1  0
 24 25  1  0
 24 26  1  0
 24 27  1  0
  6 28  1  0
 28 29  1  0
 28 30  2  0
 30 31  1  0
 30  2  1  0
 22 13  1  0
M  END
>  <cnnaffinity>  (1) 
-4.94997

>  <filename>  (1) 
CC(=NC(=O)Nc1ccc(Cl)cc1)c1cccnc1

$$$$
