
     RDKit          3D

 31 32  0  0  0  0  0  0  0  0999 V2000
    7.1055    0.3477   22.6361 C   0  0  0  0  0  0  0  0  0  0  0  0
    7.0079   -0.3349   21.2908 C   0  0  0  0  0  0  0  0  0  0  0  0
    7.4581   -1.6180   21.0859 C   0  0  0  0  0  0  0  0  0  0  0  0
    8.0214   -2.5419   22.0326 C   0  0  0  0  0  0  0  0  0  0  0  0
    8.6144   -3.4843   21.5338 O   0  0  0  0  0  0  0  0  0  0  0  0
    7.8341   -2.4256   23.3936 N   0  0  0  0  0  0  0  0  0  0  0  0
    8.3905   -3.2800   24.3275 C   0  0  0  0  0  0  0  0  0  0  0  0
    8.9787   -4.4668   23.9246 C   0  0  0  0  0  0  0  0  0  0  0  0
    9.5931   -5.2859   24.8538 C   0  0  0  0  0  0  0  0  0  0  0  0
    9.6402   -4.9745   26.1507 N   0  0  0  0  0  0  0  0  0  0  0  0
    9.0468   -3.8419   26.5492 C   0  0  0  0  0  0  0  0  0  0  0  0
    8.4025   -2.9636   25.6793 C   0  0  0  0  0  0  0  0  0  0  0  0
    7.5884   -1.3747   26.3745 Br  0  0  0  0  0  0  0  0  0  0  0  0
    9.0653   -3.6109   27.6050 H   0  0  0  0  0  0  0  0  0  0  0  0
   10.0272   -6.2194   24.5170 H   0  0  0  0  0  0  0  0  0  0  0  0
    8.9695   -4.7811   22.8952 H   0  0  0  0  0  0  0  0  0  0  0  0
    7.2959   -1.6358   23.7261 H   0  0  0  0  0  0  0  0  0  0  0  0
    7.3785   -2.0117   20.0839 H   0  0  0  0  0  0  0  0  0  0  0  0
    6.4232    0.3228   20.1115 C   0  0  0  0  0  0  0  0  0  0  0  0
    5.3352    1.2003   20.1974 C   0  0  0  0  0  0  0  0  0  0  0  0
    4.8134    1.7205   19.0126 C   0  0  0  0  0  0  0  0  0  0  0  0
    5.3837    1.3779   17.7846 C   0  0  0  0  0  0  0  0  0  0  0  0
    6.4282    0.5384   17.6953 N   0  0  0  0  0  0  0  0  0  0  0  0
    6.9212    0.0165   18.8282 C   0  0  0  0  0  0  0  0  0  0  0  0
    7.7416   -0.6902   18.7293 H   0  0  0  0  0  0  0  0  0  0  0  0
    4.9814    1.8090   16.8736 H   0  0  0  0  0  0  0  0  0  0  0  0
    3.9548    2.3800   19.0188 H   0  0  0  0  0  0  0  0  0  0  0  0
    4.8730    1.4269   21.1568 H   0  0  0  0  0  0  0  0  0  0  0  0
    7.7643   -0.2034   23.3124 H   0  0  0  0  0  0  0  0  0  0  0  0
    6.1248    0.4160   23.1107 H   0  0  0  0  0  0  0  0  0  0  0  0
    7.5015    1.3625   22.5181 H   0  0  0  0  0  0  0  0  0  0  0  0
  1  2  1  0
  2  3  2  3
  3  4  1  0
  4  5  2  0
  4  6  1  0
  6  7  1  0
  7  8  2  0
  8  9  1  0
  9 10  2  0
 10 11  1  0
 11 12  2  0
 12 13  1  0
 11 14  1  0
  9 15  1  0
  8 16  1  0
  6 17  1  0
  3 18  1  0
  2 19  1  0
 19 20  2  0
 20 21  1  0
 21 22  2  0
 22 23  1  0
 23 24  2  0
 24 25  1  0
 22 26  1  0
 21 27  1  0
 20 28  1  0
  1 29  1  0
  1 30  1  0
  1 31  1  0
 12  7  1  0
 24 19  1  0
M  END
>  <cnnaffinity>  (1) 
-5.46934

>  <filename>  (1) 
CC(=CC(=O)Nc1ccncc1Br)c1cccnc1

$$$$
