
     RDKit          3D

 49 51  0  0  0  0  0  0  0  0999 V2000
    9.1915   -2.6411   26.4780 C   0  0  0  0  0  0  0  0  0  0  0  0
    9.2824   -1.1836   26.0664 C   0  0  0  0  0  0  0  0  0  0  0  0
   10.0583   -0.4270   26.6171 O   0  0  0  0  0  0  0  0  0  0  0  0
    8.4449   -0.7738   25.0298 N   0  0  0  0  0  0  0  0  0  0  0  0
    7.6391   -1.6956   24.1933 C   0  0  0  0  0  0  0  0  0  0  0  0
    7.6454   -1.4024   22.7083 C   0  0  0  0  0  0  0  0  0  0  0  0
    6.6376   -0.8404   22.0656 N   0  0  0  0  0  0  0  0  0  0  0  0
    7.1150   -0.6841   20.8105 C   0  0  0  0  0  0  0  0  0  0  0  0
    6.4159    0.0249   19.7495 C   0  0  0  0  0  0  0  0  0  0  0  0
    5.2140    0.7245   19.9438 C   0  0  0  0  0  0  0  0  0  0  0  0
    4.6880    1.4192   18.8594 C   0  0  0  0  0  0  0  0  0  0  0  0
    5.3680    1.3866   17.6350 C   0  0  0  0  0  0  0  0  0  0  0  0
    6.5068    0.7042   17.4386 N   0  0  0  0  0  0  0  0  0  0  0  0
    7.0165    0.0506   18.4830 C   0  0  0  0  0  0  0  0  0  0  0  0
    7.9523   -0.4794   18.3110 H   0  0  0  0  0  0  0  0  0  0  0  0
    4.9871    1.9314   16.7755 H   0  0  0  0  0  0  0  0  0  0  0  0
    3.7776    2.0022   18.9485 H   0  0  0  0  0  0  0  0  0  0  0  0
    4.7228    0.7305   20.9203 H   0  0  0  0  0  0  0  0  0  0  0  0
    8.3288   -1.1725   20.6353 N   0  0  0  0  0  0  0  0  0  0  0  0
    8.6554   -1.6588   21.8514 N   0  0  0  0  0  0  0  0  0  0  0  0
    9.9657   -2.2838   21.9862 C   0  0  0  0  0  0  0  0  0  0  0  0
   11.1013   -1.3488   22.4393 C   0  0  0  0  0  0  0  0  0  0  0  0
   11.1788   -0.0499   21.6407 C   0  0  0  0  0  0  0  0  0  0  0  0
   10.2300    0.4984   21.6263 H   0  0  0  0  0  0  0  0  0  0  0  0
   11.4593   -0.3002   20.6109 H   0  0  0  0  0  0  0  0  0  0  0  0
   11.9611    0.6029   22.0469 H   0  0  0  0  0  0  0  0  0  0  0  0
   12.4324   -2.0865   22.2837 C   0  0  0  0  0  0  0  0  0  0  0  0
   12.7048   -2.2107   21.2261 H   0  0  0  0  0  0  0  0  0  0  0  0
   13.2511   -1.5028   22.7113 H   0  0  0  0  0  0  0  0  0  0  0  0
   12.4090   -3.0759   22.7561 H   0  0  0  0  0  0  0  0  0  0  0  0
   10.9149   -1.1260   23.5014 H   0  0  0  0  0  0  0  0  0  0  0  0
    9.8813   -3.1155   22.6932 H   0  0  0  0  0  0  0  0  0  0  0  0
   10.1921   -2.6810   20.9932 H   0  0  0  0  0  0  0  0  0  0  0  0
    7.9826   -2.7202   24.3484 H   0  0  0  0  0  0  0  0  0  0  0  0
    6.5828   -1.6611   24.4906 H   0  0  0  0  0  0  0  0  0  0  0  0
    8.2474    0.6365   24.8233 C   0  0  0  0  0  0  0  0  0  0  0  0
    9.3406    1.4732   24.5636 C   0  0  0  0  0  0  0  0  0  0  0  0
    9.1293    2.8135   24.2230 C   0  0  0  0  0  0  0  0  0  0  0  0
    7.8275    3.3331   24.1799 C   0  0  0  0  0  0  0  0  0  0  0  0
    6.7378    2.5130   24.4913 C   0  0  0  0  0  0  0  0  0  0  0  0
    6.9475    1.1684   24.8123 C   0  0  0  0  0  0  0  0  0  0  0  0
    6.1101    0.5135   25.0373 H   0  0  0  0  0  0  0  0  0  0  0  0
    5.7231    2.9132   24.4667 H   0  0  0  0  0  0  0  0  0  0  0  0
    7.6666    4.3727   23.9043 H   0  0  0  0  0  0  0  0  0  0  0  0
    9.9811    3.4540   23.9955 H   0  0  0  0  0  0  0  0  0  0  0  0
   10.3412    1.0618   24.6548 H   0  0  0  0  0  0  0  0  0  0  0  0
    9.8117   -2.7674   27.3605 H   0  0  0  0  0  0  0  0  0  0  0  0
    9.5787   -3.2763   25.6764 H   0  0  0  0  0  0  0  0  0  0  0  0
    8.1620   -2.9326   26.7028 H   0  0  0  0  0  0  0  0  0  0  0  0
  1  2  1  0
  2  3  2  0
  2  4  1  0
  4  5  1  0
  5  6  1  0
  6  7  2  0
  7  8  1  0
  8  9  1  0
  9 10  2  0
 10 11  1  0
 11 12  2  0
 12 13  1  0
 13 14  2  0
 14 15  1  0
 12 16  1  0
 11 17  1  0
 10 18  1  0
  8 19  2  0
 19 20  1  0
 20 21  1  0
 21 22  1  0
 22 23  1  0
 23 24  1  0
 23 25  1  0
 23 26  1  0
 22 27  1  0
 27 28  1  0
 27 29  1  0
 27 30  1  0
 22 31  1  0
 21 32  1  0
 21 33  1  0
  5 34  1  0
  5 35  1  0
  4 36  1  0
 36 37  2  0
 37 38  1  0
 38 39  2  0
 39 40  1  0
 40 41  2  0
 41 42  1  0
 40 43  1  0
 39 44  1  0
 38 45  1  0
 37 46  1  0
  1 47  1  0
  1 48  1  0
  1 49  1  0
 20  6  1  0
 41 36  1  0
 14  9  1  0
M  END
>  <cnnaffinity>  (1) 
-6.10346

>  <filename>  (1) 
CC(=O)N(Cc1nc(-c2cccnc2)nn1CC(C)C)c1ccccc1

$$$$
