
     RDKit          3D

 35 36  0  0  0  0  0  0  0  0999 V2000
    4.8670    1.8532   16.9886 H   0  0  0  0  0  0  0  0  0  0  0  0
    5.3648    1.3258   17.7974 C   0  0  0  0  0  0  0  0  0  0  0  0
    6.5147    0.7110   17.4729 N   0  0  0  0  0  0  0  0  0  0  0  0
    7.1760    0.0707   18.4454 C   0  0  0  0  0  0  0  0  0  0  0  0
    8.1047   -0.4294   18.1712 H   0  0  0  0  0  0  0  0  0  0  0  0
    6.7205    0.0057   19.7824 C   0  0  0  0  0  0  0  0  0  0  0  0
    7.4277   -0.6722   20.8061 N   0  0  0  0  0  0  0  0  0  0  0  0
    6.8674   -1.1143   21.5191 H   0  0  0  0  0  0  0  0  0  0  0  0
    8.7924   -0.6770   20.9718 C   0  0  0  0  0  0  0  0  0  0  0  0
    9.5378    0.0564   20.3543 O   0  0  0  0  0  0  0  0  0  0  0  0
    9.3231   -1.6692   22.0778 C   0  0  0  0  0  0  0  0  0  0  0  0
   10.5905   -2.0398   21.7546 F   0  0  0  0  0  0  0  0  0  0  0  0
    8.5688   -2.8185   22.0793 F   0  0  0  0  0  0  0  0  0  0  0  0
    9.2730   -0.9981   23.4483 C   0  0  0  0  0  0  0  0  0  0  0  0
   10.2880   -0.0753   23.7432 C   0  0  0  0  0  0  0  0  0  0  0  0
   11.1278    0.0291   23.0642 H   0  0  0  0  0  0  0  0  0  0  0  0
   10.2014    0.7149   24.8932 C   0  0  0  0  0  0  0  0  0  0  0  0
   10.9869    1.4356   25.1081 H   0  0  0  0  0  0  0  0  0  0  0  0
    9.1081    0.5980   25.7504 C   0  0  0  0  0  0  0  0  0  0  0  0
    9.0059    1.2141   26.6339 H   0  0  0  0  0  0  0  0  0  0  0  0
    8.1222   -0.3635   25.4980 C   0  0  0  0  0  0  0  0  0  0  0  0
    7.0521   -0.5533   26.3954 N   0  0  0  0  0  0  0  0  0  0  0  0
    6.3036   -1.1409   26.0772 H   0  0  0  0  0  0  0  0  0  0  0  0
    6.9640   -0.2012   27.7238 C   0  0  0  0  0  0  0  0  0  0  0  0
    7.7382    0.5262   28.3074 O   0  0  0  0  0  0  0  0  0  0  0  0
    5.7585   -0.8105   28.4134 C   0  0  0  0  0  0  0  0  0  0  0  0
    5.8248   -0.6323   29.4876 H   0  0  0  0  0  0  0  0  0  0  0  0
    4.8360   -0.3646   28.0384 H   0  0  0  0  0  0  0  0  0  0  0  0
    5.6944   -1.8864   28.2463 H   0  0  0  0  0  0  0  0  0  0  0  0
    8.1916   -1.1518   24.3353 C   0  0  0  0  0  0  0  0  0  0  0  0
    7.4087   -1.8817   24.1475 H   0  0  0  0  0  0  0  0  0  0  0  0
    5.5032    0.6172   20.0942 C   0  0  0  0  0  0  0  0  0  0  0  0
    5.1264    0.5684   21.1146 H   0  0  0  0  0  0  0  0  0  0  0  0
    4.8174    1.2990   19.0845 C   0  0  0  0  0  0  0  0  0  0  0  0
    3.8825    1.8116   19.2812 H   0  0  0  0  0  0  0  0  0  0  0  0
  1  2  1  0
  2  3  2  0
  3  4  1  0
  4  5  1  0
  4  6  2  0
  6  7  1  0
  7  8  1  0
  7  9  1  0
  9 10  2  0
  9 11  1  0
 11 12  1  0
 11 13  1  0
 11 14  1  0
 14 15  2  0
 15 16  1  0
 15 17  1  0
 17 18  1  0
 17 19  2  0
 19 20  1  0
 19 21  1  0
 21 22  1  0
 22 23  1  0
 22 24  1  0
 24 25  2  0
 24 26  1  0
 26 27  1  0
 26 28  1  0
 26 29  1  0
 21 30  2  0
 30 31  1  0
  6 32  1  0
 32 33  1  0
 32 34  2  0
 34 35  1  0
 34  2  1  0
 30 14  1  0
M  END
>  <cnnaffinity>  (1) 
-5.74063

>  <filename>  (1) 
CC(=O)Nc1cccc(C(F)(F)C(=O)Nc2cccnc2)c1

$$$$
