
     RDKit          3D

 39 41  0  0  0  0  0  0  0  0999 V2000
    4.9774    1.8744   16.8905 H   0  0  0  0  0  0  0  0  0  0  0  0
    5.4191    1.3514   17.7365 C   0  0  0  0  0  0  0  0  0  0  0  0
    6.5876    0.7317   17.5019 N   0  0  0  0  0  0  0  0  0  0  0  0
    7.1555    0.0875   18.5286 C   0  0  0  0  0  0  0  0  0  0  0  0
    8.1077   -0.4037   18.3149 H   0  0  0  0  0  0  0  0  0  0  0  0
    6.6003    0.0189   19.8239 C   0  0  0  0  0  0  0  0  0  0  0  0
    7.3124   -0.6740   20.9723 C   0  0  2  0  0  0  0  0  0  0  0  0
    8.1394   -1.2481   20.5342 H   0  0  0  0  0  0  0  0  0  0  0  0
    6.4756   -1.7152   21.7339 C   0  0  0  0  0  0  0  0  0  0  0  0
    5.8058   -2.6199   21.2845 O   0  0  0  0  0  0  0  0  0  0  0  0
    6.6506   -1.4890   23.0709 N   0  0  0  0  0  0  0  0  0  0  0  0
    5.9328   -1.9333   23.6287 H   0  0  0  0  0  0  0  0  0  0  0  0
    7.0979   -0.1396   23.3649 C   0  0  0  0  0  0  0  0  0  0  0  0
    7.7602   -0.1323   24.2405 H   0  0  0  0  0  0  0  0  0  0  0  0
    6.2522    0.5365   23.5815 H   0  0  0  0  0  0  0  0  0  0  0  0
    7.8345    0.2963   22.0767 C   0  0  1  0  0  0  0  0  0  0  0  0
    7.5630    1.3358   21.8554 H   0  0  0  0  0  0  0  0  0  0  0  0
    9.3450    0.2268   22.1981 C   0  0  0  0  0  0  0  0  0  0  0  0
    9.9833   -0.9923   22.4903 C   0  0  0  0  0  0  0  0  0  0  0  0
    9.4017   -1.8923   22.6813 H   0  0  0  0  0  0  0  0  0  0  0  0
   11.3744   -1.0702   22.5430 C   0  0  0  0  0  0  0  0  0  0  0  0
   11.8490   -2.0338   22.7302 H   0  0  0  0  0  0  0  0  0  0  0  0
   12.1438    0.0792   22.3507 C   0  0  0  0  0  0  0  0  0  0  0  0
   13.2256    0.0604   22.4070 H   0  0  0  0  0  0  0  0  0  0  0  0
   11.5125    1.3008   22.0858 C   0  0  0  0  0  0  0  0  0  0  0  0
   12.2844    2.4679   21.9260 N   0  0  0  0  0  0  0  0  0  0  0  0
   11.9923    3.1474   21.2469 H   0  0  0  0  0  0  0  0  0  0  0  0
   13.2543    2.8694   22.8023 C   0  0  0  0  0  0  0  0  0  0  0  0
   13.5660    2.2320   23.7888 O   0  0  0  0  0  0  0  0  0  0  0  0
   13.8627    4.2025   22.4399 C   0  0  0  0  0  0  0  0  0  0  0  0
   13.7432    4.4636   21.3829 H   0  0  0  0  0  0  0  0  0  0  0  0
   14.9233    4.1618   22.6717 H   0  0  0  0  0  0  0  0  0  0  0  0
   13.3958    4.9700   23.0636 H   0  0  0  0  0  0  0  0  0  0  0  0
   10.1214    1.3745   21.9912 C   0  0  0  0  0  0  0  0  0  0  0  0
    9.6392    2.3249   21.7688 H   0  0  0  0  0  0  0  0  0  0  0  0
    5.3792    0.6632   20.0390 C   0  0  0  0  0  0  0  0  0  0  0  0
    4.9180    0.6421   21.0292 H   0  0  0  0  0  0  0  0  0  0  0  0
    4.7778    1.3408   18.9783 C   0  0  0  0  0  0  0  0  0  0  0  0
    3.8386    1.8660   19.1062 H   0  0  0  0  0  0  0  0  0  0  0  0
  1  2  1  0
  2  3  2  0
  3  4  1  0
  4  5  1  0
  4  6  2  0
  6  7  1  0
  7  8  1  6
  7  9  1  0
  9 10  2  0
  9 11  1  0
 11 12  1  0
 11 13  1  0
 13 14  1  0
 13 15  1  0
 13 16  1  0
 16 17  1  6
 16 18  1  0
 18 19  2  0
 19 20  1  0
 19 21  1  0
 21 22  1  0
 21 23  2  0
 23 24  1  0
 23 25  1  0
 25 26  1  0
 26 27  1  0
 26 28  1  0
 28 29  2  0
 28 30  1  0
 30 31  1  0
 30 32  1  0
 30 33  1  0
 25 34  2  0
 34 35  1  0
  6 36  1  0
 36 37  1  0
 36 38  2  0
 38 39  1  0
 38  2  1  0
 16  7  1  0
 34 18  1  0
M  END
>  <cnnaffinity>  (1) 
-5.95489

>  <filename>  (1) 
CC(=O)Nc1cccc([C@@H]2CNC(=O)[C@H]2c2cccnc2)c1

$$$$
