
     RDKit          3D

 33 34  0  0  0  0  0  0  0  0999 V2000
    6.4388   -1.0882   21.8366 H   0  0  0  0  0  0  0  0  0  0  0  0
    7.1274   -0.6497   21.1091 C   0  0  0  0  0  0  0  0  0  0  0  0
    8.4373   -0.6234   21.4122 C   0  0  0  0  0  0  0  0  0  0  0  0
    8.9446   -1.4208   22.4478 N   0  0  0  0  0  0  0  0  0  0  0  0
    8.3159   -1.3812   23.7670 C   0  0  0  0  0  0  0  0  0  0  0  0
    9.0015   -0.9875   24.5387 H   0  0  0  0  0  0  0  0  0  0  0  0
    7.4621   -0.6954   23.7446 H   0  0  0  0  0  0  0  0  0  0  0  0
    7.8512   -2.7743   24.1112 C   0  0  0  0  0  0  0  0  0  0  0  0
    7.1063   -3.1149   23.3928 H   0  0  0  0  0  0  0  0  0  0  0  0
    7.4998   -2.9110   25.1313 H   0  0  0  0  0  0  0  0  0  0  0  0
    9.2004   -3.9022   23.8630 S   0  0  0  0  0  0  0  0  0  0  0  0
    8.8667   -4.6805   22.6735 O   0  0  0  0  0  0  0  0  0  0  0  0
    9.5075   -4.5425   25.1308 O   0  0  0  0  0  0  0  0  0  0  0  0
   10.5870   -2.8852   23.4274 C   0  0  0  0  0  0  0  0  0  0  0  0
   11.4190   -3.5599   23.2703 H   0  0  0  0  0  0  0  0  0  0  0  0
   10.7883   -2.2423   24.2791 H   0  0  0  0  0  0  0  0  0  0  0  0
   10.2072   -2.1040   22.1986 C   0  0  0  0  0  0  0  0  0  0  0  0
   11.0050   -1.3921   21.9329 H   0  0  0  0  0  0  0  0  0  0  0  0
   10.0949   -2.7718   21.3337 H   0  0  0  0  0  0  0  0  0  0  0  0
    9.4103    0.3108   20.7303 C   0  0  0  0  0  0  0  0  0  0  0  0
   10.2879    0.4772   21.3570 H   0  0  0  0  0  0  0  0  0  0  0  0
    9.7395   -0.1145   19.7794 H   0  0  0  0  0  0  0  0  0  0  0  0
    8.9455    1.2795   20.5222 H   0  0  0  0  0  0  0  0  0  0  0  0
    6.5025   -0.0550   19.9115 C   0  0  0  0  0  0  0  0  0  0  0  0
    7.0867   -0.0013   18.6218 C   0  0  0  0  0  0  0  0  0  0  0  0
    8.0199   -0.5285   18.4192 H   0  0  0  0  0  0  0  0  0  0  0  0
    6.5728    0.6777   17.5854 N   0  0  0  0  0  0  0  0  0  0  0  0
    5.4162    1.3282   17.7946 C   0  0  0  0  0  0  0  0  0  0  0  0
    5.0247    1.8892   16.9510 H   0  0  0  0  0  0  0  0  0  0  0  0
    4.7174    1.2981   19.0069 C   0  0  0  0  0  0  0  0  0  0  0  0
    3.7853    1.8431   19.1133 H   0  0  0  0  0  0  0  0  0  0  0  0
    5.2578    0.5774   20.0684 C   0  0  0  0  0  0  0  0  0  0  0  0
    4.7685    0.5257   21.0398 H   0  0  0  0  0  0  0  0  0  0  0  0
  1  2  1  0
  2  3  2  3
  3  4  1  0
  4  5  1  0
  5  6  1  0
  5  7  1  0
  5  8  1  0
  8  9  1  0
  8 10  1  0
  8 11  1  0
 11 12  2  0
 11 13  2  0
 11 14  1  0
 14 15  1  0
 14 16  1  0
 14 17  1  0
 17 18  1  0
 17 19  1  0
  3 20  1  0
 20 21  1  0
 20 22  1  0
 20 23  1  0
  2 24  1  0
 24 25  2  0
 25 26  1  0
 25 27  1  0
 27 28  2  0
 28 29  1  0
 28 30  1  0
 30 31  1  0
 30 32  2  0
 32 33  1  0
 17  4  1  0
 32 24  1  0
M  END
>  <cnnaffinity>  (1) 
-4.79648

>  <filename>  (1) 
CC(=Cc1cccnc1)N1CCS(=O)(=O)CC1

$$$$
