
     RDKit          3D

 36 37  0  0  0  0  0  0  0  0999 V2000
    7.4268    0.2145   22.4456 C   0  0  0  0  0  0  0  0  0  0  0  0
    7.1361   -0.4692   21.1374 C   0  0  0  0  0  0  0  0  0  0  0  0
    7.5785   -1.7424   20.9068 C   0  0  0  0  0  0  0  0  0  0  0  0
    8.3914   -2.4672   21.8332 C   0  0  0  0  0  0  0  0  0  0  0  0
    9.5022   -2.8260   21.4979 O   0  0  0  0  0  0  0  0  0  0  0  0
    7.8856   -2.7150   23.0898 N   0  0  0  0  0  0  0  0  0  0  0  0
    8.6116   -3.3450   24.2050 C   0  0  0  0  0  0  0  0  0  0  0  0
    9.1121   -2.2765   25.1885 C   0  0  0  0  0  0  0  0  0  0  0  0
    8.8274   -2.3923   26.3865 O   0  0  0  0  0  0  0  0  0  0  0  0
   10.0057   -1.2003   24.6686 C   0  0  0  0  0  0  0  0  0  0  0  0
   10.2938   -0.0522   25.4356 C   0  0  0  0  0  0  0  0  0  0  0  0
   11.2479    0.8681   25.0011 C   0  0  0  0  0  0  0  0  0  0  0  0
   11.8943    0.6338   23.7920 C   0  0  0  0  0  0  0  0  0  0  0  0
   13.2539    1.8285   23.1706 Br  0  0  0  0  0  0  0  0  0  0  0  0
   11.5081   -0.4720   23.0263 C   0  0  0  0  0  0  0  0  0  0  0  0
   10.5911   -1.3596   23.4562 N   0  0  0  0  0  0  0  0  0  0  0  0
   11.9715   -0.6320   22.0581 H   0  0  0  0  0  0  0  0  0  0  0  0
   11.4821    1.7579   25.5777 H   0  0  0  0  0  0  0  0  0  0  0  0
    9.7911    0.1168   26.3821 H   0  0  0  0  0  0  0  0  0  0  0  0
    9.4738   -3.8973   23.8171 H   0  0  0  0  0  0  0  0  0  0  0  0
    7.9766   -4.0728   24.7292 H   0  0  0  0  0  0  0  0  0  0  0  0
    6.9229   -2.4261   23.2248 H   0  0  0  0  0  0  0  0  0  0  0  0
    7.3371   -2.2189   19.9743 H   0  0  0  0  0  0  0  0  0  0  0  0
    6.4764    0.2088   20.0300 C   0  0  0  0  0  0  0  0  0  0  0  0
    5.2959    0.9402   20.1745 C   0  0  0  0  0  0  0  0  0  0  0  0
    4.7407    1.4852   19.0159 C   0  0  0  0  0  0  0  0  0  0  0  0
    5.3799    1.3264   17.7825 C   0  0  0  0  0  0  0  0  0  0  0  0
    6.5290    0.6453   17.6515 N   0  0  0  0  0  0  0  0  0  0  0  0
    7.0549    0.0958   18.7555 C   0  0  0  0  0  0  0  0  0  0  0  0
    7.9810   -0.4636   18.6589 H   0  0  0  0  0  0  0  0  0  0  0  0
    4.9400    1.7673   16.8950 H   0  0  0  0  0  0  0  0  0  0  0  0
    3.8110    2.0357   19.0490 H   0  0  0  0  0  0  0  0  0  0  0  0
    4.8065    1.0526   21.1421 H   0  0  0  0  0  0  0  0  0  0  0  0
    6.6144    0.0365   23.1577 H   0  0  0  0  0  0  0  0  0  0  0  0
    7.5408    1.2888   22.2902 H   0  0  0  0  0  0  0  0  0  0  0  0
    8.3599   -0.1635   22.8787 H   0  0  0  0  0  0  0  0  0  0  0  0
  1  2  1  0
  2  3  2  3
  3  4  1  0
  4  5  2  0
  4  6  1  0
  6  7  1  0
  7  8  1  0
  8  9  2  0
  8 10  1  0
 10 11  2  0
 11 12  1  0
 12 13  2  0
 13 14  1  0
 13 15  1  0
 15 16  2  0
 15 17  1  0
 12 18  1  0
 11 19  1  0
  7 20  1  0
  7 21  1  0
  6 22  1  0
  3 23  1  0
  2 24  1  0
 24 25  2  0
 25 26  1  0
 26 27  2  0
 27 28  1  0
 28 29  2  0
 29 30  1  0
 27 31  1  0
 26 32  1  0
 25 33  1  0
  1 34  1  0
  1 35  1  0
  1 36  1  0
 16 10  1  0
 29 24  1  0
M  END
>  <cnnaffinity>  (1) 
-5.49284

>  <filename>  (1) 
CC(=CC(=O)NCC(=O)c1ccc(Br)cn1)c1cccnc1

$$$$
