
     RDKit          3D

 51 55  0  0  0  0  0  0  0  0999 V2000
    6.9104    3.0194   29.9159 C   0  0  0  0  0  0  0  0  0  0  0  0
    7.2392    3.8234   28.6719 C   0  0  0  0  0  0  0  0  0  0  0  0
    7.1124    5.0294   28.6052 O   0  0  0  0  0  0  0  0  0  0  0  0
    7.6720    3.0471   27.6318 N   0  0  0  0  0  0  0  0  0  0  0  0
    8.2092    3.4416   26.3934 C   0  0  0  0  0  0  0  0  0  0  0  0
    8.7661    4.7091   26.1694 C   0  0  0  0  0  0  0  0  0  0  0  0
    9.3947    4.9571   24.9437 C   0  0  0  0  0  0  0  0  0  0  0  0
    9.4532    3.9788   23.9492 C   0  0  0  0  0  0  0  0  0  0  0  0
    8.8198    2.7406   24.1610 C   0  0  0  0  0  0  0  0  0  0  0  0
    8.8393    1.7418   23.1449 N   0  0  0  0  0  0  0  0  0  0  0  0
    7.7430    1.0211   22.7750 N   0  0  0  0  0  0  0  0  0  0  0  0
    8.1870    0.3372   21.7385 C   0  0  0  0  0  0  0  0  0  0  0  0
    7.3642   -0.6329   20.9440 C   0  0  0  0  0  0  0  0  0  0  0  0
    6.6419    0.0001   19.7642 C   0  0  0  0  0  0  0  0  0  0  0  0
    5.4656    0.7236   19.9867 C   0  0  0  0  0  0  0  0  0  0  0  0
    4.8565    1.3667   18.9093 C   0  0  0  0  0  0  0  0  0  0  0  0
    5.4440    1.2659   17.6445 C   0  0  0  0  0  0  0  0  0  0  0  0
    6.5646    0.5663   17.4027 N   0  0  0  0  0  0  0  0  0  0  0  0
    7.1375   -0.0436   18.4477 C   0  0  0  0  0  0  0  0  0  0  0  0
    8.0509   -0.6006   18.2342 H   0  0  0  0  0  0  0  0  0  0  0  0
    4.9984    1.7668   16.7874 H   0  0  0  0  0  0  0  0  0  0  0  0
    3.9568    1.9568   19.0425 H   0  0  0  0  0  0  0  0  0  0  0  0
    5.0525    0.7777   20.9967 H   0  0  0  0  0  0  0  0  0  0  0  0
    8.0544   -1.4061   20.5917 H   0  0  0  0  0  0  0  0  0  0  0  0
    6.6494   -1.1009   21.6320 H   0  0  0  0  0  0  0  0  0  0  0  0
    9.4877    0.5385   21.4321 N   0  0  0  0  0  0  0  0  0  0  0  0
    9.8914    1.3881   22.3669 C   0  0  0  0  0  0  0  0  0  0  0  0
   11.3054    1.7335   22.6940 C   0  0  0  0  0  0  0  0  0  0  0  0
   11.6911    1.6868   24.1601 C   0  0  0  0  0  0  0  0  0  0  0  0
   12.6217    0.6446   24.7103 C   0  0  0  0  0  0  0  0  0  0  0  0
   11.1514    0.5858   25.0250 C   0  0  0  0  0  0  0  0  0  0  0  0
   10.5515   -0.1772   24.5300 H   0  0  0  0  0  0  0  0  0  0  0  0
   10.8317    0.8334   26.0347 H   0  0  0  0  0  0  0  0  0  0  0  0
   13.0555   -0.0959   24.0427 H   0  0  0  0  0  0  0  0  0  0  0  0
   13.2919    0.9029   25.5191 H   0  0  0  0  0  0  0  0  0  0  0  0
   11.7439    2.6787   24.6110 H   0  0  0  0  0  0  0  0  0  0  0  0
   12.0859    2.7272   21.8512 C   0  0  0  0  0  0  0  0  0  0  0  0
   12.3020    1.2656   21.6818 C   0  0  0  0  0  0  0  0  0  0  0  0
   13.2191    0.7900   22.0186 H   0  0  0  0  0  0  0  0  0  0  0  0
   11.8234    0.8356   20.8101 H   0  0  0  0  0  0  0  0  0  0  0  0
   12.8430    3.2966   22.3783 H   0  0  0  0  0  0  0  0  0  0  0  0
   11.6138    3.2670   21.0333 H   0  0  0  0  0  0  0  0  0  0  0  0
    8.1972    2.4791   25.3793 C   0  0  0  0  0  0  0  0  0  0  0  0
    7.6797    1.5363   25.5316 H   0  0  0  0  0  0  0  0  0  0  0  0
    9.9681    4.1743   23.0134 H   0  0  0  0  0  0  0  0  0  0  0  0
    9.8246    5.9362   24.7507 H   0  0  0  0  0  0  0  0  0  0  0  0
    8.6710    5.4722   26.9305 H   0  0  0  0  0  0  0  0  0  0  0  0
    7.7259    2.0573   27.8096 H   0  0  0  0  0  0  0  0  0  0  0  0
    5.9700    2.4763   29.7723 H   0  0  0  0  0  0  0  0  0  0  0  0
    7.6982    2.2970   30.1573 H   0  0  0  0  0  0  0  0  0  0  0  0
    6.7865    3.7109   30.7481 H   0  0  0  0  0  0  0  0  0  0  0  0
  1  2  1  0
  2  3  2  0
  2  4  1  0
  4  5  1  0
  5  6  2  0
  6  7  1  0
  7  8  2  0
  8  9  1  0
  9 10  1  0
 10 11  1  0
 11 12  2  0
 12 13  1  0
 13 14  1  0
 14 15  2  0
 15 16  1  0
 16 17  2  0
 17 18  1  0
 18 19  2  0
 19 20  1  0
 17 21  1  0
 16 22  1  0
 15 23  1  0
 13 24  1  0
 13 25  1  0
 12 26  1  0
 26 27  2  0
 27 28  1  0
 28 29  1  0
 29 30  1  0
 30 31  1  0
 31 32  1  0
 31 33  1  0
 30 34  1  0
 30 35  1  0
 29 36  1  0
 28 37  1  0
 37 38  1  0
 38 39  1  0
 38 40  1  0
 37 41  1  0
 37 42  1  0
  9 43  2  0
 43 44  1  0
  8 45  1  0
  7 46  1  0
  6 47  1  0
  4 48  1  0
  1 49  1  0
  1 50  1  0
  1 51  1  0
 43  5  1  0
 27 10  1  0
 38 28  1  0
 19 14  1  0
 31 29  1  0
M  END
>  <cnnaffinity>  (1) 
-5.82683

>  <filename>  (1) 
CC(=O)Nc1cccc(-n2nc(Cc3cccnc3)nc2C2(C3CC3)CC2)c1

$$$$
