
     RDKit          3D

 50 54  0  0  0  0  0  0  0  0999 V2000
    6.7415    4.9533   27.5456 C   0  0  0  0  0  0  0  0  0  0  0  0
    7.4223    3.7049   27.0194 C   0  0  0  0  0  0  0  0  0  0  0  0
    7.5872    2.7286   27.7343 O   0  0  0  0  0  0  0  0  0  0  0  0
    7.8226    3.7178   25.7132 N   0  0  0  0  0  0  0  0  0  0  0  0
    7.6693    4.8258   24.7662 C   0  0  0  0  0  0  0  0  0  0  0  0
    7.6710    4.1141   23.4203 C   0  0  0  0  0  0  0  0  0  0  0  0
    8.6966    2.9850   23.6604 C   0  0  0  0  0  0  0  0  0  0  0  0
    8.6851    1.9124   22.6179 C   0  0  0  0  0  0  0  0  0  0  0  0
    7.6432    1.1410   22.3740 N   0  0  0  0  0  0  0  0  0  0  0  0
    8.0559    0.3710   21.3355 C   0  0  0  0  0  0  0  0  0  0  0  0
    7.1886   -0.6744   20.6938 C   0  0  0  0  0  0  0  0  0  0  0  0
    6.3966   -0.1315   19.5161 C   0  0  0  0  0  0  0  0  0  0  0  0
    5.2276    0.6034   19.7468 C   0  0  0  0  0  0  0  0  0  0  0  0
    4.6420    1.2932   18.6856 C   0  0  0  0  0  0  0  0  0  0  0  0
    5.2554    1.2241   17.4319 C   0  0  0  0  0  0  0  0  0  0  0  0
    6.3341    0.4700   17.1724 N   0  0  0  0  0  0  0  0  0  0  0  0
    6.8745   -0.1992   18.1973 C   0  0  0  0  0  0  0  0  0  0  0  0
    7.7518   -0.8082   17.9711 H   0  0  0  0  0  0  0  0  0  0  0  0
    4.8828    1.8141   16.5997 H   0  0  0  0  0  0  0  0  0  0  0  0
    3.7572    1.9051   18.8202 H   0  0  0  0  0  0  0  0  0  0  0  0
    4.8180    0.6547   20.7564 H   0  0  0  0  0  0  0  0  0  0  0  0
    6.5074   -1.0579   21.4602 H   0  0  0  0  0  0  0  0  0  0  0  0
    7.8416   -1.4949   20.3835 H   0  0  0  0  0  0  0  0  0  0  0  0
    9.2846    0.6141   20.9207 N   0  0  0  0  0  0  0  0  0  0  0  0
    9.7014    1.5991   21.7579 N   0  0  0  0  0  0  0  0  0  0  0  0
   11.0717    2.0101   21.8677 C   0  0  0  0  0  0  0  0  0  0  0  0
   11.6974    2.9568   21.0571 C   0  0  0  0  0  0  0  0  0  0  0  0
   12.8962    3.5830   21.4757 C   0  0  0  0  0  0  0  0  0  0  0  0
   13.5605    3.1750   22.6330 C   0  0  0  0  0  0  0  0  0  0  0  0
   13.0399    2.0694   23.3366 C   0  0  0  0  0  0  0  0  0  0  0  0
   11.8241    1.5047   22.9396 C   0  0  0  0  0  0  0  0  0  0  0  0
   11.6159    0.4514   23.7942 N   0  0  0  0  0  0  0  0  0  0  0  0
   12.6747    0.4253   24.6522 C   0  0  0  0  0  0  0  0  0  0  0  0
   13.5391    1.3610   24.4147 N   0  0  0  0  0  0  0  0  0  0  0  0
   12.7665   -0.3158   25.4375 H   0  0  0  0  0  0  0  0  0  0  0  0
   10.9262   -0.2640   23.6623 H   0  0  0  0  0  0  0  0  0  0  0  0
   14.4648    3.6692   22.9681 H   0  0  0  0  0  0  0  0  0  0  0  0
   13.3536    4.3310   20.8282 H   0  0  0  0  0  0  0  0  0  0  0  0
   11.2771    3.2066   20.0916 H   0  0  0  0  0  0  0  0  0  0  0  0
    8.3096    2.4948   25.0675 C   0  0  0  0  0  0  0  0  0  0  0  0
    9.1445    2.0632   25.6335 H   0  0  0  0  0  0  0  0  0  0  0  0
    7.5146    1.7361   25.0093 H   0  0  0  0  0  0  0  0  0  0  0  0
    9.6979    3.4273   23.7043 H   0  0  0  0  0  0  0  0  0  0  0  0
    6.6874    3.6709   23.2133 H   0  0  0  0  0  0  0  0  0  0  0  0
    7.9363    4.7690   22.5846 H   0  0  0  0  0  0  0  0  0  0  0  0
    6.7491    5.3897   24.9529 H   0  0  0  0  0  0  0  0  0  0  0  0
    8.5182    5.5244   24.8338 H   0  0  0  0  0  0  0  0  0  0  0  0
    5.7475    5.0624   27.0999 H   0  0  0  0  0  0  0  0  0  0  0  0
    6.6282    4.8380   28.6214 H   0  0  0  0  0  0  0  0  0  0  0  0
    7.3091    5.8605   27.3268 H   0  0  0  0  0  0  0  0  0  0  0  0
  1  2  1  0
  2  3  2  0
  2  4  1  0
  4  5  1  0
  5  6  1  0
  6  7  1  0
  7  8  1  0
  8  9  2  0
  9 10  1  0
 10 11  1  0
 11 12  1  0
 12 13  2  0
 13 14  1  0
 14 15  2  0
 15 16  1  0
 16 17  2  0
 17 18  1  0
 15 19  1  0
 14 20  1  0
 13 21  1  0
 11 22  1  0
 11 23  1  0
 10 24  2  0
 24 25  1  0
 25 26  1  0
 26 27  2  0
 27 28  1  0
 28 29  2  0
 29 30  1  0
 30 31  2  0
 31 32  1  0
 32 33  1  0
 33 34  2  0
 33 35  1  0
 32 36  1  0
 29 37  1  0
 28 38  1  0
 27 39  1  0
  7 40  1  0
 40 41  1  0
 40 42  1  0
  7 43  1  0
  6 44  1  0
  6 45  1  0
  5 46  1  0
  5 47  1  0
  1 48  1  0
  1 49  1  0
  1 50  1  0
 40  4  1  0
 25  8  1  0
 31 26  1  0
 17 12  1  0
 34 30  1  0
M  END
>  <cnnaffinity>  (1) 
-6.11564

>  <filename>  (1) 
CC(=O)N1CCC(c2nc(Cc3cccnc3)nn2-c2cccc3nc[nH]c23)C1

$$$$
