
     RDKit          3D

 27 28  0  0  0  0  0  0  0  0999 V2000
    4.9634    1.8004   16.9884 H   0  0  0  0  0  0  0  0  0  0  0  0
    5.4185    1.2863   17.8333 C   0  0  0  0  0  0  0  0  0  0  0  0
    6.5783    0.6534   17.5932 N   0  0  0  0  0  0  0  0  0  0  0  0
    7.1656    0.0214   18.6122 C   0  0  0  0  0  0  0  0  0  0  0  0
    8.1112   -0.4745   18.3964 H   0  0  0  0  0  0  0  0  0  0  0  0
    6.6391   -0.0055   19.9168 C   0  0  0  0  0  0  0  0  0  0  0  0
    7.3813   -0.6958   20.9894 C   0  0  0  0  0  0  0  0  0  0  0  0
    8.1401   -1.6817   20.6734 N   0  0  0  0  0  0  0  0  0  0  0  0
    8.7763   -2.4161   21.6940 C   0  0  0  0  0  0  0  0  0  0  0  0
    8.1029   -3.3064   22.5577 C   0  0  0  0  0  0  0  0  0  0  0  0
    6.7612   -3.3911   22.4776 F   0  0  0  0  0  0  0  0  0  0  0  0
    8.7494   -4.0675   23.5265 C   0  0  0  0  0  0  0  0  0  0  0  0
    8.1490   -4.7593   24.1004 H   0  0  0  0  0  0  0  0  0  0  0  0
   10.1211   -3.8969   23.7273 C   0  0  0  0  0  0  0  0  0  0  0  0
   10.6404   -4.4854   24.4843 H   0  0  0  0  0  0  0  0  0  0  0  0
   10.8325   -3.0094   22.9152 C   0  0  0  0  0  0  0  0  0  0  0  0
   11.8988   -2.8653   23.0068 H   0  0  0  0  0  0  0  0  0  0  0  0
   10.1566   -2.2865   21.9342 C   0  0  0  0  0  0  0  0  0  0  0  0
   10.8469   -1.3822   21.2293 F   0  0  0  0  0  0  0  0  0  0  0  0
    7.2081   -0.2134   22.4131 C   0  0  0  0  0  0  0  0  0  0  0  0
    7.0315    0.8601   22.4518 H   0  0  0  0  0  0  0  0  0  0  0  0
    6.3827   -0.7786   22.8518 H   0  0  0  0  0  0  0  0  0  0  0  0
    8.1065   -0.4400   22.9905 H   0  0  0  0  0  0  0  0  0  0  0  0
    5.4223    0.6573   20.1472 C   0  0  0  0  0  0  0  0  0  0  0  0
    4.9795    0.6712   21.1430 H   0  0  0  0  0  0  0  0  0  0  0  0
    4.7991    1.3069   19.0852 C   0  0  0  0  0  0  0  0  0  0  0  0
    3.8672    1.8442   19.2211 H   0  0  0  0  0  0  0  0  0  0  0  0
  1  2  1  0
  2  3  2  0
  3  4  1  0
  4  5  1  0
  4  6  2  0
  6  7  1  0
  7  8  2  3
  8  9  1  0
  9 10  2  0
 10 11  1  0
 10 12  1  0
 12 13  1  0
 12 14  2  0
 14 15  1  0
 14 16  1  0
 16 17  1  0
 16 18  2  0
 18 19  1  0
  7 20  1  0
 20 21  1  0
 20 22  1  0
 20 23  1  0
  6 24  1  0
 24 25  1  0
 24 26  2  0
 26 27  1  0
 26  2  1  0
 18  9  1  0
M  END
>  <cnnaffinity>  (1) 
-5.04639

>  <filename>  (1) 
CC(=Nc1c(F)cccc1F)c1cccnc1

$$$$
