
     RDKit          3D

 36 36  0  0  0  0  0  0  0  0999 V2000
    5.6878   -1.6549   21.7277 H   0  0  0  0  0  0  0  0  0  0  0  0
    6.7656   -1.5037   21.8025 C   0  0  0  0  0  0  0  0  0  0  0  0
    7.4026   -2.1869   22.7880 O   0  0  0  0  0  0  0  0  0  0  0  0
    6.6114   -3.0341   23.6073 C   0  0  0  0  0  0  0  0  0  0  0  0
    5.8236   -2.4517   24.1116 H   0  0  0  0  0  0  0  0  0  0  0  0
    6.1256   -3.8030   22.9841 H   0  0  0  0  0  0  0  0  0  0  0  0
    7.5675   -3.7062   24.5681 C   0  0  0  0  0  0  0  0  0  0  0  0
    8.2906   -4.2286   23.9350 H   0  0  0  0  0  0  0  0  0  0  0  0
    7.0494   -4.4730   25.1548 H   0  0  0  0  0  0  0  0  0  0  0  0
    8.3479   -2.7738   25.5097 C   0  0  0  0  0  0  0  0  0  0  0  0
    8.8754   -2.0093   24.9193 H   0  0  0  0  0  0  0  0  0  0  0  0
    7.6592   -2.2222   26.1711 H   0  0  0  0  0  0  0  0  0  0  0  0
    9.3094   -3.4825   26.3519 N   0  0  0  0  0  0  0  0  0  0  0  0
   10.3430   -4.2030   25.6155 C   0  0  0  0  0  0  0  0  0  0  0  0
    9.9548   -5.0017   24.9534 H   0  0  0  0  0  0  0  0  0  0  0  0
   11.0529   -4.6506   26.3220 H   0  0  0  0  0  0  0  0  0  0  0  0
   10.9232   -3.5189   24.9859 H   0  0  0  0  0  0  0  0  0  0  0  0
    8.7038   -4.2924   27.3996 C   0  0  0  0  0  0  0  0  0  0  0  0
    8.2269   -5.2297   27.0541 H   0  0  0  0  0  0  0  0  0  0  0  0
    7.9326   -3.7121   27.9168 H   0  0  0  0  0  0  0  0  0  0  0  0
    9.4698   -4.5644   28.1352 H   0  0  0  0  0  0  0  0  0  0  0  0
    7.4277   -0.7147   20.9592 C   0  0  0  0  0  0  0  0  0  0  0  0
    6.6504   -0.0200   19.8975 C   0  0  0  0  0  0  0  0  0  0  0  0
    7.1631    0.0419   18.5880 C   0  0  0  0  0  0  0  0  0  0  0  0
    8.1072   -0.4579   18.3746 H   0  0  0  0  0  0  0  0  0  0  0  0
    6.5744    0.6635   17.5627 N   0  0  0  0  0  0  0  0  0  0  0  0
    5.4155    1.2923   17.8151 C   0  0  0  0  0  0  0  0  0  0  0  0
    4.9557    1.8160   16.9822 H   0  0  0  0  0  0  0  0  0  0  0  0
    4.8066    1.2911   19.0769 C   0  0  0  0  0  0  0  0  0  0  0  0
    3.8733    1.8191   19.2132 H   0  0  0  0  0  0  0  0  0  0  0  0
    5.4170    0.6173   20.1337 C   0  0  0  0  0  0  0  0  0  0  0  0
    4.9711    0.6287   21.1289 H   0  0  0  0  0  0  0  0  0  0  0  0
    8.9363   -0.5492   21.0522 C   0  0  0  0  0  0  0  0  0  0  0  0
    9.2429   -0.5086   22.1053 H   0  0  0  0  0  0  0  0  0  0  0  0
    9.4685   -1.3992   20.6022 H   0  0  0  0  0  0  0  0  0  0  0  0
    9.2633    0.3688   20.5551 H   0  0  0  0  0  0  0  0  0  0  0  0
  1  2  1  0
  2  3  1  0
  3  4  1  0
  4  5  1  0
  4  6  1  0
  4  7  1  0
  7  8  1  0
  7  9  1  0
  7 10  1  0
 10 11  1  0
 10 12  1  0
 10 13  1  0
 13 14  1  0
 14 15  1  0
 14 16  1  0
 14 17  1  0
 13 18  1  0
 18 19  1  0
 18 20  1  0
 18 21  1  0
  2 22  2  3
 22 23  1  0
 23 24  2  0
 24 25  1  0
 24 26  1  0
 26 27  2  0
 27 28  1  0
 27 29  1  0
 29 30  1  0
 29 31  2  0
 31 32  1  0
 22 33  1  0
 33 34  1  0
 33 35  1  0
 33 36  1  0
 31 23  1  0
M  END
>  <cnnaffinity>  (1) 
-3.80951

>  <filename>  (1) 
CC(=COCCCN(C)C)c1cccnc1

$$$$
