
     RDKit          3D

 36 38  0  0  0  0  0  0  0  0999 V2000
    4.9335    1.7960   16.9965 H   0  0  0  0  0  0  0  0  0  0  0  0
    5.3983    1.2896   17.8371 C   0  0  0  0  0  0  0  0  0  0  0  0
    6.5540    0.6599   17.5711 N   0  0  0  0  0  0  0  0  0  0  0  0
    7.1698    0.0417   18.5857 C   0  0  0  0  0  0  0  0  0  0  0  0
    8.1258   -0.4330   18.3646 H   0  0  0  0  0  0  0  0  0  0  0  0
    6.6489   -0.0052   19.8961 C   0  0  0  0  0  0  0  0  0  0  0  0
    7.3272   -0.6932   20.9469 N   0  0  0  0  0  0  0  0  0  0  0  0
    6.7281   -1.6077   21.8015 C   0  0  0  0  0  0  0  0  0  0  0  0
    5.6804   -1.8480   21.7109 H   0  0  0  0  0  0  0  0  0  0  0  0
    7.6692   -2.0657   22.6649 C   0  0  0  0  0  0  0  0  0  0  0  0
    7.5510   -3.0056   23.7854 C   0  0  0  0  0  0  0  0  0  0  0  0
    8.6483   -3.6974   24.3294 C   0  0  0  0  0  0  0  0  0  0  0  0
    9.6395   -3.5376   23.9182 H   0  0  0  0  0  0  0  0  0  0  0  0
    8.4675   -4.6024   25.3813 C   0  0  0  0  0  0  0  0  0  0  0  0
    9.3291   -5.1243   25.7997 H   0  0  0  0  0  0  0  0  0  0  0  0
    7.1855   -4.8374   25.9003 C   0  0  0  0  0  0  0  0  0  0  0  0
    7.0226   -5.5393   26.7169 H   0  0  0  0  0  0  0  0  0  0  0  0
    6.0889   -4.1687   25.3420 C   0  0  0  0  0  0  0  0  0  0  0  0
    4.7877   -4.4078   25.8355 N   0  0  0  0  0  0  0  0  0  0  0  0
    4.6910   -4.6591   26.8010 H   0  0  0  0  0  0  0  0  0  0  0  0
    3.6394   -4.4001   25.0872 C   0  0  0  0  0  0  0  0  0  0  0  0
    3.6389   -4.3354   23.8737 O   0  0  0  0  0  0  0  0  0  0  0  0
    2.3532   -4.4872   25.8845 C   0  0  0  0  0  0  0  0  0  0  0  0
    2.3543   -3.8962   26.8069 H   0  0  0  0  0  0  0  0  0  0  0  0
    1.5680   -4.1206   25.2250 H   0  0  0  0  0  0  0  0  0  0  0  0
    2.1140   -5.5225   26.1448 H   0  0  0  0  0  0  0  0  0  0  0  0
    6.2744   -3.2512   24.3088 C   0  0  0  0  0  0  0  0  0  0  0  0
    5.4036   -2.7383   23.9229 H   0  0  0  0  0  0  0  0  0  0  0  0
    8.8407   -1.4190   22.3037 N   0  0  0  0  0  0  0  0  0  0  0  0
    9.7452   -1.4094   22.7463 H   0  0  0  0  0  0  0  0  0  0  0  0
    8.6487   -0.5262   21.3057 C   0  0  0  0  0  0  0  0  0  0  0  0
    9.8117    0.5265   20.7770 S   0  0  0  0  0  0  0  0  0  0  0  0
    5.4402    0.6440   20.1588 C   0  0  0  0  0  0  0  0  0  0  0  0
    5.0311    0.6325   21.1693 H   0  0  0  0  0  0  0  0  0  0  0  0
    4.8089    1.3092   19.1055 C   0  0  0  0  0  0  0  0  0  0  0  0
    3.8789    1.8402   19.2611 H   0  0  0  0  0  0  0  0  0  0  0  0
  1  2  1  0
  2  3  2  0
  3  4  1  0
  4  5  1  0
  4  6  2  0
  6  7  1  0
  7  8  1  0
  8  9  1  0
  8 10  2  0
 10 11  1  0
 11 12  2  0
 12 13  1  0
 12 14  1  0
 14 15  1  0
 14 16  2  0
 16 17  1  0
 16 18  1  0
 18 19  1  0
 19 20  1  0
 19 21  1  0
 21 22  2  0
 21 23  1  0
 23 24  1  0
 23 25  1  0
 23 26  1  0
 18 27  2  0
 27 28  1  0
 10 29  1  0
 29 30  1  0
 29 31  1  0
 31 32  2  0
  6 33  1  0
 33 34  1  0
 33 35  2  0
 35 36  1  0
 35  2  1  0
 31  7  1  0
 27 11  1  0
M  END
>  <cnnaffinity>  (1) 
-5.85731

>  <filename>  (1) 
CC(=O)Nc1cccc(-c2cn(-c3cccnc3)c(=S)[nH]2)c1

$$$$
