
     RDKit          3D

 35 36  0  0  0  0  0  0  0  0999 V2000
    7.7601   -2.0457   20.7968 C   0  0  0  0  0  0  0  0  0  0  0  0
    7.3666   -0.6159   21.0533 C   0  0  0  0  0  0  0  0  0  0  0  0
    7.5759   -0.0347   22.2454 C   0  0  0  0  0  0  0  0  0  0  0  0
    8.3377   -0.6389   23.3668 C   0  0  0  0  0  0  0  0  0  0  0  0
    9.1518   -1.5422   23.2204 O   0  0  0  0  0  0  0  0  0  0  0  0
    8.0898   -0.1049   24.6338 N   0  0  0  0  0  0  0  0  0  0  0  0
    8.9880   -0.5016   25.7209 C   0  0  0  0  0  0  0  0  0  0  0  0
    9.0944   -1.5904   25.7310 H   0  0  0  0  0  0  0  0  0  0  0  0
    9.9788   -0.0586   25.5853 H   0  0  0  0  0  0  0  0  0  0  0  0
    8.5886   -0.1747   26.6827 H   0  0  0  0  0  0  0  0  0  0  0  0
    6.8911    0.5921   24.9668 C   0  0  0  0  0  0  0  0  0  0  0  0
    5.6411   -0.0112   24.7778 C   0  0  0  0  0  0  0  0  0  0  0  0
    4.4565    0.6854   25.0199 C   0  0  0  0  0  0  0  0  0  0  0  0
    4.5077    1.9879   25.5172 C   0  0  0  0  0  0  0  0  0  0  0  0
    5.7416    2.5758   25.8118 C   0  0  0  0  0  0  0  0  0  0  0  0
    6.9135    1.8707   25.5494 C   0  0  0  0  0  0  0  0  0  0  0  0
    8.0895    2.4361   25.8767 F   0  0  0  0  0  0  0  0  0  0  0  0
    5.8260    3.5532   26.2716 H   0  0  0  0  0  0  0  0  0  0  0  0
    3.5873    2.5291   25.7044 H   0  0  0  0  0  0  0  0  0  0  0  0
    3.5082    0.1989   24.8251 H   0  0  0  0  0  0  0  0  0  0  0  0
    5.6227   -1.0402   24.4361 H   0  0  0  0  0  0  0  0  0  0  0  0
    7.1380    0.9211   22.4975 H   0  0  0  0  0  0  0  0  0  0  0  0
    6.6553    0.1101   19.9641 C   0  0  0  0  0  0  0  0  0  0  0  0
    5.4260    0.7579   20.1701 C   0  0  0  0  0  0  0  0  0  0  0  0
    4.7897    1.3536   19.0827 C   0  0  0  0  0  0  0  0  0  0  0  0
    5.4097    1.3046   17.8295 C   0  0  0  0  0  0  0  0  0  0  0  0
    6.5735    0.6778   17.6032 N   0  0  0  0  0  0  0  0  0  0  0  0
    7.1619    0.0877   18.6497 C   0  0  0  0  0  0  0  0  0  0  0  0
    8.0968   -0.4346   18.4410 H   0  0  0  0  0  0  0  0  0  0  0  0
    4.9523    1.7887   16.9706 H   0  0  0  0  0  0  0  0  0  0  0  0
    3.8346    1.8533   19.1909 H   0  0  0  0  0  0  0  0  0  0  0  0
    4.9747    0.7506   21.1637 H   0  0  0  0  0  0  0  0  0  0  0  0
    8.8067   -2.1175   20.4682 H   0  0  0  0  0  0  0  0  0  0  0  0
    7.6595   -2.6398   21.7102 H   0  0  0  0  0  0  0  0  0  0  0  0
    7.0878   -2.4717   20.0462 H   0  0  0  0  0  0  0  0  0  0  0  0
  1  2  1  0
  2  3  2  3
  3  4  1  0
  4  5  2  0
  4  6  1  0
  6  7  1  0
  7  8  1  0
  7  9  1  0
  7 10  1  0
  6 11  1  0
 11 12  2  0
 12 13  1  0
 13 14  2  0
 14 15  1  0
 15 16  2  0
 16 17  1  0
 15 18  1  0
 14 19  1  0
 13 20  1  0
 12 21  1  0
  3 22  1  0
  2 23  1  0
 23 24  2  0
 24 25  1  0
 25 26  2  0
 26 27  1  0
 27 28  2  0
 28 29  1  0
 26 30  1  0
 25 31  1  0
 24 32  1  0
  1 33  1  0
  1 34  1  0
  1 35  1  0
 16 11  1  0
 28 23  1  0
M  END
>  <cnnaffinity>  (1) 
-4.98335

>  <filename>  (1) 
CC(=CC(=O)N(C)c1ccccc1F)c1cccnc1

$$$$
