
     RDKit          3D

 52 57  0  0  0  0  0  0  0  0999 V2000
   13.2282    7.3063   23.6311 C   0  0  0  0  0  0  0  0  0  0  0  0
   13.2110    5.8106   23.7856 C   0  0  0  0  0  0  0  0  0  0  0  0
   13.4987    5.2491   24.8190 O   0  0  0  0  0  0  0  0  0  0  0  0
   12.7700    5.1521   22.6588 N   0  0  0  0  0  0  0  0  0  0  0  0
   12.5553    3.7562   22.6291 C   0  0  0  0  0  0  0  0  0  0  0  0
   13.6395    2.8993   22.7931 C   0  0  0  0  0  0  0  0  0  0  0  0
   13.4302    1.5194   22.8772 C   0  0  0  0  0  0  0  0  0  0  0  0
   12.1388    1.0009   22.7606 C   0  0  0  0  0  0  0  0  0  0  0  0
   11.0529    1.8668   22.5617 C   0  0  0  0  0  0  0  0  0  0  0  0
    9.7392    1.3243   22.4405 N   0  0  0  0  0  0  0  0  0  0  0  0
    9.4540    0.3033   21.5892 N   0  0  0  0  0  0  0  0  0  0  0  0
    8.1547    0.1535   21.7309 C   0  0  0  0  0  0  0  0  0  0  0  0
    7.3630   -0.7923   20.8730 C   0  0  0  0  0  0  0  0  0  0  0  0
    6.6656   -0.1090   19.6984 C   0  0  0  0  0  0  0  0  0  0  0  0
    5.5606    0.7249   19.9211 C   0  0  0  0  0  0  0  0  0  0  0  0
    4.9494    1.3469   18.8309 C   0  0  0  0  0  0  0  0  0  0  0  0
    5.4926    1.1505   17.5578 C   0  0  0  0  0  0  0  0  0  0  0  0
    6.5567    0.3683   17.3213 N   0  0  0  0  0  0  0  0  0  0  0  0
    7.1139   -0.2448   18.3731 C   0  0  0  0  0  0  0  0  0  0  0  0
    7.9826   -0.8716   18.1639 H   0  0  0  0  0  0  0  0  0  0  0  0
    5.0614    1.6424   16.6881 H   0  0  0  0  0  0  0  0  0  0  0  0
    4.0875    1.9944   18.9562 H   0  0  0  0  0  0  0  0  0  0  0  0
    5.2131    0.8979   20.9422 H   0  0  0  0  0  0  0  0  0  0  0  0
    8.0439   -1.5730   20.5180 H   0  0  0  0  0  0  0  0  0  0  0  0
    6.6201   -1.2617   21.5281 H   0  0  0  0  0  0  0  0  0  0  0  0
    7.5809    0.9691   22.6495 N   0  0  0  0  0  0  0  0  0  0  0  0
    8.5908    1.7154   23.0744 C   0  0  0  0  0  0  0  0  0  0  0  0
    8.5136    2.8596   23.9971 C   0  0  0  0  0  0  0  0  0  0  0  0
    7.2442    3.7317   24.0051 C   0  0  0  0  0  0  0  0  0  0  0  0
    6.9028    5.0982   23.5642 C   0  0  0  0  0  0  0  0  0  0  0  0
    6.1042    3.8883   23.0741 C   0  0  0  0  0  0  0  0  0  0  0  0
    6.3000    3.5038   22.0726 H   0  0  0  0  0  0  0  0  0  0  0  0
    5.1030    3.7156   23.4674 H   0  0  0  0  0  0  0  0  0  0  0  0
    7.5935    5.5761   22.8720 H   0  0  0  0  0  0  0  0  0  0  0  0
    6.4483    5.7346   24.3202 H   0  0  0  0  0  0  0  0  0  0  0  0
    7.5963    3.0003   25.2129 C   0  0  0  0  0  0  0  0  0  0  0  0
    7.9604    3.3552   26.6064 C   0  0  0  0  0  0  0  0  0  0  0  0
    7.2309    2.0515   26.2923 C   0  0  0  0  0  0  0  0  0  0  0  0
    7.7811    1.1114   26.2926 H   0  0  0  0  0  0  0  0  0  0  0  0
    6.1795    1.9958   26.5560 H   0  0  0  0  0  0  0  0  0  0  0  0
    9.0247    3.3358   26.8189 H   0  0  0  0  0  0  0  0  0  0  0  0
    7.3891    4.1397   27.1015 H   0  0  0  0  0  0  0  0  0  0  0  0
    9.4715    3.3365   24.1916 H   0  0  0  0  0  0  0  0  0  0  0  0
   11.2641    3.2502   22.4771 C   0  0  0  0  0  0  0  0  0  0  0  0
   10.4324    3.9243   22.3034 H   0  0  0  0  0  0  0  0  0  0  0  0
   11.9543   -0.0679   22.8128 H   0  0  0  0  0  0  0  0  0  0  0  0
   14.2715    0.8472   23.0254 H   0  0  0  0  0  0  0  0  0  0  0  0
   14.6258    3.3467   22.8047 H   0  0  0  0  0  0  0  0  0  0  0  0
   12.2543    5.6936   21.9883 H   0  0  0  0  0  0  0  0  0  0  0  0
   13.6922    7.6260   22.6942 H   0  0  0  0  0  0  0  0  0  0  0  0
   12.1851    7.5858   23.6472 H   0  0  0  0  0  0  0  0  0  0  0  0
   13.7039    7.7827   24.4868 H   0  0  0  0  0  0  0  0  0  0  0  0
  1  2  1  0
  2  3  2  0
  2  4  1  0
  4  5  1  0
  5  6  2  0
  6  7  1  0
  7  8  2  0
  8  9  1  0
  9 10  1  0
 10 11  1  0
 11 12  2  0
 12 13  1  0
 13 14  1  0
 14 15  2  0
 15 16  1  0
 16 17  2  0
 17 18  1  0
 18 19  2  0
 19 20  1  0
 17 21  1  0
 16 22  1  0
 15 23  1  0
 13 24  1  0
 13 25  1  0
 12 26  1  0
 26 27  2  0
 27 28  1  0
 28 29  1  0
 29 30  1  0
 30 31  1  0
 31 32  1  0
 31 33  1  0
 30 34  1  0
 30 35  1  0
 29 36  1  0
 36 37  1  0
 37 38  1  0
 38 39  1  0
 38 40  1  0
 37 41  1  0
 37 42  1  0
 28 43  1  0
  9 44  2  0
 44 45  1  0
  8 46  1  0
  7 47  1  0
  6 48  1  0
  4 49  1  0
  1 50  1  0
  1 51  1  0
  1 52  1  0
 44  5  1  0
 27 10  1  0
 36 28  1  0
 19 14  1  0
 31 29  1  0
 38 36  1  0
M  END
>  <cnnaffinity>  (1) 
-6.37492

>  <filename>  (1) 
CC(=O)Nc1cccc(-n2nc(Cc3cccnc3)nc2C2C3(CC3)C23CC3)c1

$$$$
