
     RDKit          3D

 33 34  0  0  0  0  0  0  0  0999 V2000
    8.8374   -0.4290   21.1855 C   0  0  0  0  0  0  0  0  0  0  0  0
    7.3686   -0.7379   21.0073 C   0  0  0  0  0  0  0  0  0  0  0  0
    6.7089   -1.6170   21.7848 C   0  0  0  0  0  0  0  0  0  0  0  0
    7.3136   -2.4650   22.8223 C   0  0  0  0  0  0  0  0  0  0  0  0
    8.5046   -2.4880   23.0784 O   0  0  0  0  0  0  0  0  0  0  0  0
    6.4330   -3.3182   23.4647 N   0  0  0  0  0  0  0  0  0  0  0  0
    6.8505   -4.2896   24.3631 C   0  0  0  0  0  0  0  0  0  0  0  0
    5.9967   -4.4941   25.3649 N   0  0  0  0  0  0  0  0  0  0  0  0
    6.3743   -5.4306   26.2852 C   0  0  0  0  0  0  0  0  0  0  0  0
    5.5472   -5.8133   27.5114 C   0  0  0  0  0  0  0  0  0  0  0  0
    4.4443   -5.0964   27.7068 F   0  0  0  0  0  0  0  0  0  0  0  0
    6.3029   -5.7028   28.6283 F   0  0  0  0  0  0  0  0  0  0  0  0
    5.1774   -7.1108   27.4388 F   0  0  0  0  0  0  0  0  0  0  0  0
    7.5714   -6.1521   26.1705 C   0  0  0  0  0  0  0  0  0  0  0  0
    8.3950   -5.9813   25.1198 N   0  0  0  0  0  0  0  0  0  0  0  0
    8.0520   -5.0559   24.2225 C   0  0  0  0  0  0  0  0  0  0  0  0
    8.7172   -4.8859   23.3839 H   0  0  0  0  0  0  0  0  0  0  0  0
    7.8753   -6.8597   26.9371 H   0  0  0  0  0  0  0  0  0  0  0  0
    5.4941   -3.0153   23.6727 H   0  0  0  0  0  0  0  0  0  0  0  0
    5.6594   -1.8057   21.6181 H   0  0  0  0  0  0  0  0  0  0  0  0
    6.6230   -0.0259   19.9243 C   0  0  0  0  0  0  0  0  0  0  0  0
    5.4013    0.6328   20.1489 C   0  0  0  0  0  0  0  0  0  0  0  0
    4.7879    1.3096   19.0918 C   0  0  0  0  0  0  0  0  0  0  0  0
    5.4055    1.2907   17.8353 C   0  0  0  0  0  0  0  0  0  0  0  0
    6.5640    0.6608   17.5900 N   0  0  0  0  0  0  0  0  0  0  0  0
    7.1529    0.0412   18.6207 C   0  0  0  0  0  0  0  0  0  0  0  0
    8.1096   -0.4301   18.4011 H   0  0  0  0  0  0  0  0  0  0  0  0
    4.9497    1.8015   16.9887 H   0  0  0  0  0  0  0  0  0  0  0  0
    3.8608    1.8589   19.2278 H   0  0  0  0  0  0  0  0  0  0  0  0
    4.9675    0.6505   21.1503 H   0  0  0  0  0  0  0  0  0  0  0  0
    9.1235    0.3961   20.5292 H   0  0  0  0  0  0  0  0  0  0  0  0
    9.0548   -0.1474   22.2228 H   0  0  0  0  0  0  0  0  0  0  0  0
    9.4653   -1.3034   20.9764 H   0  0  0  0  0  0  0  0  0  0  0  0
  1  2  1  0
  2  3  2  3
  3  4  1  0
  4  5  2  0
  4  6  1  0
  6  7  1  0
  7  8  2  0
  8  9  1  0
  9 10  1  0
 10 11  1  0
 10 12  1  0
 10 13  1  0
  9 14  2  0
 14 15  1  0
 15 16  2  0
 16 17  1  0
 14 18  1  0
  6 19  1  0
  3 20  1  0
  2 21  1  0
 21 22  2  0
 22 23  1  0
 23 24  2  0
 24 25  1  0
 25 26  2  0
 26 27  1  0
 24 28  1  0
 23 29  1  0
 22 30  1  0
  1 31  1  0
  1 32  1  0
  1 33  1  0
 16  7  1  0
 26 21  1  0
M  END
>  <cnnaffinity>  (1) 
-5.21784

>  <filename>  (1) 
CC(=CC(=O)Nc1cncc(C(F)(F)F)n1)c1cccnc1

$$$$
