
     RDKit          3D

 27 28  0  0  0  0  0  0  0  0999 V2000
    4.9358    1.8000   17.0141 H   0  0  0  0  0  0  0  0  0  0  0  0
    5.4266    1.2815   17.8334 C   0  0  0  0  0  0  0  0  0  0  0  0
    6.5803    0.6334   17.6009 N   0  0  0  0  0  0  0  0  0  0  0  0
    7.1765   -0.0001   18.6246 C   0  0  0  0  0  0  0  0  0  0  0  0
    8.1187   -0.5067   18.4306 H   0  0  0  0  0  0  0  0  0  0  0  0
    6.6391   -0.0014   19.9165 C   0  0  0  0  0  0  0  0  0  0  0  0
    7.3376   -0.7037   20.9757 C   0  0  0  0  0  0  0  0  0  0  0  0
    8.0818   -1.7353   20.6528 N   0  0  0  0  0  0  0  0  0  0  0  0
    8.7164   -2.4422   21.6637 C   0  0  0  0  0  0  0  0  0  0  0  0
   10.1050   -2.4509   21.7130 C   0  0  0  0  0  0  0  0  0  0  0  0
   10.6291   -1.9435   20.9156 H   0  0  0  0  0  0  0  0  0  0  0  0
   10.7821   -3.0949   22.7595 C   0  0  0  0  0  0  0  0  0  0  0  0
   11.8688   -3.0756   22.7855 H   0  0  0  0  0  0  0  0  0  0  0  0
   10.0567   -3.8257   23.7141 C   0  0  0  0  0  0  0  0  0  0  0  0
   10.5851   -4.3748   24.4854 H   0  0  0  0  0  0  0  0  0  0  0  0
    8.6553   -3.8596   23.6534 C   0  0  0  0  0  0  0  0  0  0  0  0
    7.6442   -4.8889   24.9242 Br  0  0  0  0  0  0  0  0  0  0  0  0
    8.0003   -3.1196   22.6535 C   0  0  0  0  0  0  0  0  0  0  0  0
    6.9200   -3.0734   22.6481 H   0  0  0  0  0  0  0  0  0  0  0  0
    7.2104   -0.2296   22.3959 C   0  0  0  0  0  0  0  0  0  0  0  0
    8.1263   -0.4629   22.9462 H   0  0  0  0  0  0  0  0  0  0  0  0
    7.0448    0.8514   22.4305 H   0  0  0  0  0  0  0  0  0  0  0  0
    6.3678   -0.7272   22.8807 H   0  0  0  0  0  0  0  0  0  0  0  0
    5.4390    0.6666   20.1635 C   0  0  0  0  0  0  0  0  0  0  0  0
    4.9907    0.6804   21.1567 H   0  0  0  0  0  0  0  0  0  0  0  0
    4.8294    1.3093   19.0956 C   0  0  0  0  0  0  0  0  0  0  0  0
    3.9002    1.8421   19.2357 H   0  0  0  0  0  0  0  0  0  0  0  0
  1  2  1  0
  2  3  2  0
  3  4  1  0
  4  5  1  0
  4  6  2  0
  6  7  1  0
  7  8  2  3
  8  9  1  0
  9 10  2  0
 10 11  1  0
 10 12  1  0
 12 13  1  0
 12 14  2  0
 14 15  1  0
 14 16  1  0
 16 17  1  0
 16 18  2  0
 18 19  1  0
  7 20  1  0
 20 21  1  0
 20 22  1  0
 20 23  1  0
  6 24  1  0
 24 25  1  0
 24 26  2  0
 26 27  1  0
 26  2  1  0
 18  9  1  0
M  END
>  <cnnaffinity>  (1) 
-4.77484

>  <filename>  (1) 
CC(=Nc1cccc(Br)c1)c1cccnc1

$$$$
