
     RDKit          3D

 31 32  0  0  0  0  0  0  0  0999 V2000
    5.9885   -0.9644   22.2697 H   0  0  0  0  0  0  0  0  0  0  0  0
    7.0421   -1.0810   21.9795 C   0  0  0  0  0  0  0  0  0  0  0  0
    7.4697   -0.6788   20.8461 N   0  0  0  0  0  0  0  0  0  0  0  0
    6.6633   -0.0120   19.8967 C   0  0  0  0  0  0  0  0  0  0  0  0
    7.1628    0.0434   18.5697 C   0  0  0  0  0  0  0  0  0  0  0  0
    8.1121   -0.4514   18.3699 H   0  0  0  0  0  0  0  0  0  0  0  0
    6.5566    0.6670   17.5567 N   0  0  0  0  0  0  0  0  0  0  0  0
    5.3947    1.2966   17.8251 C   0  0  0  0  0  0  0  0  0  0  0  0
    4.9309    1.8236   16.9939 H   0  0  0  0  0  0  0  0  0  0  0  0
    4.8067    1.2972   19.0910 C   0  0  0  0  0  0  0  0  0  0  0  0
    3.8720    1.8240   19.2424 H   0  0  0  0  0  0  0  0  0  0  0  0
    5.4434    0.6349   20.1509 C   0  0  0  0  0  0  0  0  0  0  0  0
    5.0213    0.6594   21.1535 H   0  0  0  0  0  0  0  0  0  0  0  0
    7.9016   -1.7776   22.9742 C   0  0  0  0  0  0  0  0  0  0  0  0
    9.2766   -2.0115   22.7558 C   0  0  0  0  0  0  0  0  0  0  0  0
    9.7314   -1.6747   21.8281 H   0  0  0  0  0  0  0  0  0  0  0  0
   10.0377   -2.6776   23.7206 C   0  0  0  0  0  0  0  0  0  0  0  0
   11.0902   -2.8710   23.5323 H   0  0  0  0  0  0  0  0  0  0  0  0
    9.4565   -3.1142   24.9182 C   0  0  0  0  0  0  0  0  0  0  0  0
   10.0458   -3.6331   25.6715 H   0  0  0  0  0  0  0  0  0  0  0  0
    8.0854   -2.9185   25.1272 C   0  0  0  0  0  0  0  0  0  0  0  0
    7.4766   -3.4067   26.3078 N   0  0  0  0  0  0  0  0  0  0  0  0
    8.0502   -3.4682   27.1325 H   0  0  0  0  0  0  0  0  0  0  0  0
    6.2154   -3.9497   26.3541 C   0  0  0  0  0  0  0  0  0  0  0  0
    5.5405   -4.1277   25.3599 O   0  0  0  0  0  0  0  0  0  0  0  0
    5.7261   -4.2920   27.7407 C   0  0  0  0  0  0  0  0  0  0  0  0
    6.3910   -5.0192   28.2231 H   0  0  0  0  0  0  0  0  0  0  0  0
    5.6641   -3.3829   28.3467 H   0  0  0  0  0  0  0  0  0  0  0  0
    4.7249   -4.7120   27.6208 H   0  0  0  0  0  0  0  0  0  0  0  0
    7.3177   -2.2506   24.1632 C   0  0  0  0  0  0  0  0  0  0  0  0
    6.2559   -2.1474   24.3595 H   0  0  0  0  0  0  0  0  0  0  0  0
  1  2  1  0
  2  3  2  3
  3  4  1  0
  4  5  2  0
  5  6  1  0
  5  7  1  0
  7  8  2  0
  8  9  1  0
  8 10  1  0
 10 11  1  0
 10 12  2  0
 12 13  1  0
  2 14  1  0
 14 15  2  0
 15 16  1  0
 15 17  1  0
 17 18  1  0
 17 19  2  0
 19 20  1  0
 19 21  1  0
 21 22  1  0
 22 23  1  0
 22 24  1  0
 24 25  2  0
 24 26  1  0
 26 27  1  0
 26 28  1  0
 26 29  1  0
 21 30  2  0
 30 31  1  0
 12  4  1  0
 30 14  1  0
M  END
>  <cnnaffinity>  (1) 
-4.60492

>  <filename>  (1) 
CC(=O)Nc1cccc(C=Nc2cccnc2)c1

$$$$
