
     RDKit          3D

 36 37  0  0  0  0  0  0  0  0999 V2000
    4.9370    1.7316   16.8413 H   0  0  0  0  0  0  0  0  0  0  0  0
    5.3647    1.3497   17.7664 C   0  0  0  0  0  0  0  0  0  0  0  0
    6.5746    0.7833   17.6458 N   0  0  0  0  0  0  0  0  0  0  0  0
    7.1402    0.3061   18.7585 C   0  0  0  0  0  0  0  0  0  0  0  0
    8.1196   -0.1546   18.6213 H   0  0  0  0  0  0  0  0  0  0  0  0
    6.5509    0.3568   20.0352 C   0  0  0  0  0  0  0  0  0  0  0  0
    7.2184   -0.3281   21.2122 C   0  0  2  0  0  0  0  0  0  0  0  0
    6.7794   -0.0223   22.1672 H   0  0  0  0  0  0  0  0  0  0  0  0
    8.9419    0.1944   21.2958 Cl  0  0  0  0  0  0  0  0  0  0  0  0
    7.0891   -1.8555   21.0408 C   0  0  0  0  0  0  0  0  0  0  0  0
    7.6254   -2.0768   20.1148 H   0  0  0  0  0  0  0  0  0  0  0  0
    6.0247   -2.0487   20.8328 H   0  0  0  0  0  0  0  0  0  0  0  0
    7.6005   -2.6885   22.1273 N   0  0  0  0  0  0  0  0  0  0  0  0
    6.6069   -3.0907   23.1403 C   0  0  0  0  0  0  0  0  0  0  0  0
    7.1652   -3.4543   24.0149 H   0  0  0  0  0  0  0  0  0  0  0  0
    6.0465   -2.2109   23.4669 H   0  0  0  0  0  0  0  0  0  0  0  0
    5.6408   -4.2151   22.6704 C   0  0  0  0  0  0  0  0  0  0  0  0
    4.9462   -4.4789   23.4723 H   0  0  0  0  0  0  0  0  0  0  0  0
    5.0368   -3.8454   21.8233 H   0  0  0  0  0  0  0  0  0  0  0  0
    6.4107   -5.3927   22.2363 N   0  0  0  0  0  0  0  0  0  0  0  0
    6.2158   -6.7104   22.5987 C   0  0  0  0  0  0  0  0  0  0  0  0
    6.9846   -7.5939   22.2430 O   0  0  0  0  0  0  0  0  0  0  0  0
    4.9937   -7.0585   23.4271 C   0  0  0  0  0  0  0  0  0  0  0  0
    4.0772   -6.8601   22.8622 H   0  0  0  0  0  0  0  0  0  0  0  0
    5.0401   -8.1255   23.6477 H   0  0  0  0  0  0  0  0  0  0  0  0
    4.9533   -6.4967   24.3638 H   0  0  0  0  0  0  0  0  0  0  0  0
    7.4246   -5.0494   21.2235 C   0  0  0  0  0  0  0  0  0  0  0  0
    6.9093   -4.7598   20.2967 H   0  0  0  0  0  0  0  0  0  0  0  0
    8.0101   -5.9424   21.0060 H   0  0  0  0  0  0  0  0  0  0  0  0
    8.3238   -3.8935   21.6984 C   0  0  0  0  0  0  0  0  0  0  0  0
    9.0282   -3.6300   20.9033 H   0  0  0  0  0  0  0  0  0  0  0  0
    8.9250   -4.2425   22.5464 H   0  0  0  0  0  0  0  0  0  0  0  0
    5.2848    0.9518   20.1395 C   0  0  0  0  0  0  0  0  0  0  0  0
    4.7846    1.0316   21.1051 H   0  0  0  0  0  0  0  0  0  0  0  0
    4.6819    1.4532   18.9783 C   0  0  0  0  0  0  0  0  0  0  0  0
    3.7054    1.9260   19.0001 H   0  0  0  0  0  0  0  0  0  0  0  0
  1  2  1  0
  2  3  2  0
  3  4  1  0
  4  5  1  0
  4  6  2  0
  6  7  1  0
  7  8  1  1
  7  9  1  0
  7 10  1  0
 10 11  1  0
 10 12  1  0
 10 13  1  0
 13 14  1  0
 14 15  1  0
 14 16  1  0
 14 17  1  0
 17 18  1  0
 17 19  1  0
 17 20  1  0
 20 21  1  0
 21 22  2  0
 21 23  1  0
 23 24  1  0
 23 25  1  0
 23 26  1  0
 20 27  1  0
 27 28  1  0
 27 29  1  0
 27 30  1  0
 30 31  1  0
 30 32  1  0
  6 33  1  0
 33 34  1  0
 33 35  2  0
 35 36  1  0
 35  2  1  0
 30 13  1  0
M  END
>  <cnnaffinity>  (1) 
-4.7402

>  <filename>  (1) 
CC(=O)N1CCN(C[C@@H](Cl)c2cccnc2)CC1

$$$$
