
     RDKit          3D

 30 31  0  0  0  0  0  0  0  0999 V2000
    5.7121   -1.7381   21.6222 H   0  0  0  0  0  0  0  0  0  0  0  0
    6.7847   -1.6049   21.7510 C   0  0  0  0  0  0  0  0  0  0  0  0
    7.4185   -0.7105   20.9694 C   0  0  0  0  0  0  0  0  0  0  0  0
    6.6422   -0.0029   19.8996 C   0  0  0  0  0  0  0  0  0  0  0  0
    7.1519    0.0620   18.5908 C   0  0  0  0  0  0  0  0  0  0  0  0
    8.1083   -0.4091   18.3695 H   0  0  0  0  0  0  0  0  0  0  0  0
    6.5519    0.6743   17.5633 N   0  0  0  0  0  0  0  0  0  0  0  0
    5.3902    1.2992   17.8181 C   0  0  0  0  0  0  0  0  0  0  0  0
    4.9329    1.8114   16.9744 H   0  0  0  0  0  0  0  0  0  0  0  0
    4.7869    1.3127   19.0816 C   0  0  0  0  0  0  0  0  0  0  0  0
    3.8552    1.8572   19.2216 H   0  0  0  0  0  0  0  0  0  0  0  0
    5.4141    0.6447   20.1353 C   0  0  0  0  0  0  0  0  0  0  0  0
    4.9875    0.6523   21.1398 H   0  0  0  0  0  0  0  0  0  0  0  0
    8.8821   -0.3771   21.1258 C   0  0  0  0  0  0  0  0  0  0  0  0
    9.1271   -0.1995   22.1805 H   0  0  0  0  0  0  0  0  0  0  0  0
    9.5105   -1.2273   20.8354 H   0  0  0  0  0  0  0  0  0  0  0  0
    9.1529    0.5063   20.5404 H   0  0  0  0  0  0  0  0  0  0  0  0
    7.3334   -2.4563   22.8239 C   0  0  0  0  0  0  0  0  0  0  0  0
    8.6645   -2.6222   22.9310 N   0  0  0  0  0  0  0  0  0  0  0  0
    9.1448   -3.3943   23.9083 C   0  0  0  0  0  0  0  0  0  0  0  0
   10.6389   -3.5384   24.0056 C   0  0  0  0  0  0  0  0  0  0  0  0
   10.9142   -4.5945   23.9409 H   0  0  0  0  0  0  0  0  0  0  0  0
   11.1335   -2.9827   23.2059 H   0  0  0  0  0  0  0  0  0  0  0  0
   10.9990   -3.1695   24.9704 H   0  0  0  0  0  0  0  0  0  0  0  0
    8.3148   -4.0493   24.8282 C   0  0  0  0  0  0  0  0  0  0  0  0
    8.7885   -4.6671   25.5821 H   0  0  0  0  0  0  0  0  0  0  0  0
    6.9292   -3.8837   24.7362 C   0  0  0  0  0  0  0  0  0  0  0  0
    6.2664   -4.3622   25.4607 H   0  0  0  0  0  0  0  0  0  0  0  0
    6.4312   -3.0769   23.7144 C   0  0  0  0  0  0  0  0  0  0  0  0
    5.3674   -2.8818   23.6083 H   0  0  0  0  0  0  0  0  0  0  0  0
  1  2  1  0
  2  3  2  3
  3  4  1  0
  4  5  2  0
  5  6  1  0
  5  7  1  0
  7  8  2  0
  8  9  1  0
  8 10  1  0
 10 11  1  0
 10 12  2  0
 12 13  1  0
  3 14  1  0
 14 15  1  0
 14 16  1  0
 14 17  1  0
  2 18  1  0
 18 19  2  0
 19 20  1  0
 20 21  1  0
 21 22  1  0
 21 23  1  0
 21 24  1  0
 20 25  2  0
 25 26  1  0
 25 27  1  0
 27 28  1  0
 27 29  2  0
 29 30  1  0
 12  4  1  0
 29 18  1  0
M  END
>  <cnnaffinity>  (1) 
-4.42627

>  <filename>  (1) 
CC(=Cc1cccc(C)n1)c1cccnc1

$$$$
