
     RDKit          3D

 38 40  0  0  0  0  0  0  0  0999 V2000
    4.9311    1.8032   16.9800 H   0  0  0  0  0  0  0  0  0  0  0  0
    5.3964    1.3041   17.8292 C   0  0  0  0  0  0  0  0  0  0  0  0
    6.5602    0.6829   17.5786 N   0  0  0  0  0  0  0  0  0  0  0  0
    7.1563    0.0539   18.5960 C   0  0  0  0  0  0  0  0  0  0  0  0
    8.1027   -0.4335   18.3660 H   0  0  0  0  0  0  0  0  0  0  0  0
    6.6393    0.0241   19.8988 C   0  0  0  0  0  0  0  0  0  0  0  0
    7.3696   -0.7236   20.9227 C   0  0  0  0  0  0  0  0  0  0  0  0
    7.7294   -1.9636   20.7663 N   0  0  0  0  0  0  0  0  0  0  0  0
    8.2898   -2.2777   21.9600 N   0  0  0  0  0  0  0  0  0  0  0  0
    8.6664   -3.1876   22.1824 H   0  0  0  0  0  0  0  0  0  0  0  0
    8.3199   -1.2757   22.8528 C   0  0  0  0  0  0  0  0  0  0  0  0
    8.9717   -1.4160   24.3840 S   0  0  0  0  0  0  0  0  0  0  0  0
    7.7205   -0.2387   22.1698 N   0  0  0  0  0  0  0  0  0  0  0  0
    7.5746    1.1508   22.6357 C   0  0  0  0  0  0  0  0  0  0  0  0
    7.1134    1.6938   21.7996 H   0  0  0  0  0  0  0  0  0  0  0  0
    8.9307    1.7948   22.9353 C   0  0  0  0  0  0  0  0  0  0  0  0
    9.4331    1.2058   23.7146 H   0  0  0  0  0  0  0  0  0  0  0  0
    9.5540    1.7682   22.0370 H   0  0  0  0  0  0  0  0  0  0  0  0
    8.7499    3.2416   23.3917 C   0  0  0  0  0  0  0  0  0  0  0  0
    8.3754    3.8697   22.5644 H   0  0  0  0  0  0  0  0  0  0  0  0
    9.7049    3.6717   23.7008 H   0  0  0  0  0  0  0  0  0  0  0  0
    7.8338    3.3178   24.5388 N   0  0  0  0  0  0  0  0  0  0  0  0
    8.0806    4.2705   25.5069 C   0  0  0  0  0  0  0  0  0  0  0  0
    8.9528    5.1150   25.3776 O   0  0  0  0  0  0  0  0  0  0  0  0
    7.2555    4.2144   26.7784 C   0  0  0  0  0  0  0  0  0  0  0  0
    7.1731    3.1972   27.1709 H   0  0  0  0  0  0  0  0  0  0  0  0
    7.7620    4.8473   27.5072 H   0  0  0  0  0  0  0  0  0  0  0  0
    6.2458    4.6059   26.6228 H   0  0  0  0  0  0  0  0  0  0  0  0
    6.5243    2.6925   24.3288 C   0  0  0  0  0  0  0  0  0  0  0  0
    5.9507    3.2565   23.5709 H   0  0  0  0  0  0  0  0  0  0  0  0
    5.9480    2.7367   25.2554 H   0  0  0  0  0  0  0  0  0  0  0  0
    6.6776    1.2387   23.8737 C   0  0  0  0  0  0  0  0  0  0  0  0
    5.6940    0.8155   23.6410 H   0  0  0  0  0  0  0  0  0  0  0  0
    7.1226    0.6324   24.6726 H   0  0  0  0  0  0  0  0  0  0  0  0
    5.4191    0.6646   20.1447 C   0  0  0  0  0  0  0  0  0  0  0  0
    4.9818    0.6424   21.1446 H   0  0  0  0  0  0  0  0  0  0  0  0
    4.7865    1.3191   19.0891 C   0  0  0  0  0  0  0  0  0  0  0  0
    3.8567    1.8545   19.2362 H   0  0  0  0  0  0  0  0  0  0  0  0
  1  2  1  0
  2  3  2  0
  3  4  1  0
  4  5  1  0
  4  6  2  0
  6  7  1  0
  7  8  2  0
  8  9  1  0
  9 10  1  0
  9 11  1  0
 11 12  2  0
 11 13  1  0
 13 14  1  0
 14 15  1  0
 14 16  1  0
 16 17  1  0
 16 18  1  0
 16 19  1  0
 19 20  1  0
 19 21  1  0
 19 22  1  0
 22 23  1  0
 23 24  2  0
 23 25  1  0
 25 26  1  0
 25 27  1  0
 25 28  1  0
 22 29  1  0
 29 30  1  0
 29 31  1  0
 29 32  1  0
 32 33  1  0
 32 34  1  0
  6 35  1  0
 35 36  1  0
 35 37  2  0
 37 38  1  0
 37  2  1  0
 13  7  1  0
 32 14  1  0
M  END
>  <cnnaffinity>  (1) 
-5.03216

>  <filename>  (1) 
CC(=O)N1CCC(n2c(-c3cccnc3)n[nH]c2=S)CC1

$$$$
