
     RDKit          3D

 31 33  0  0  0  0  0  0  0  0999 V2000
    7.8910   -1.4970   20.7294 H   0  0  0  0  0  0  0  0  0  0  0  0
    7.4235   -0.5459   20.9935 C   0  0  0  0  0  0  0  0  0  0  0  0
    7.6384   -0.0351   22.2248 C   0  0  0  0  0  0  0  0  0  0  0  0
    8.1822   -0.9367   23.2718 C   0  0  0  0  0  0  0  0  0  0  0  0
    7.7666   -0.7295   24.9642 S   0  0  0  0  0  0  0  0  0  0  0  0
    8.6623   -2.1546   25.4310 C   0  0  0  0  0  0  0  0  0  0  0  0
    8.8065   -2.7137   26.7155 C   0  0  0  0  0  0  0  0  0  0  0  0
    8.3620   -2.2342   27.5814 H   0  0  0  0  0  0  0  0  0  0  0  0
    9.5012   -3.9117   26.8529 C   0  0  0  0  0  0  0  0  0  0  0  0
    9.6206   -4.3648   27.8341 H   0  0  0  0  0  0  0  0  0  0  0  0
   10.0711   -4.5532   25.7295 C   0  0  0  0  0  0  0  0  0  0  0  0
   10.5845   -5.5071   25.8497 H   0  0  0  0  0  0  0  0  0  0  0  0
    9.9760   -3.9670   24.4770 C   0  0  0  0  0  0  0  0  0  0  0  0
   10.4381   -4.4335   23.6197 H   0  0  0  0  0  0  0  0  0  0  0  0
    9.2544   -2.7651   24.3035 C   0  0  0  0  0  0  0  0  0  0  0  0
    8.9612   -2.0385   23.0960 C   0  0  0  0  0  0  0  0  0  0  0  0
    9.3658   -2.3257   22.1315 H   0  0  0  0  0  0  0  0  0  0  0  0
    7.3967    1.4317   22.5304 C   0  0  0  0  0  0  0  0  0  0  0  0
    6.4600    1.6095   23.0721 H   0  0  0  0  0  0  0  0  0  0  0  0
    7.3507    1.9978   21.5951 H   0  0  0  0  0  0  0  0  0  0  0  0
    8.2140    1.8432   23.1290 H   0  0  0  0  0  0  0  0  0  0  0  0
    6.6498    0.0587   19.8825 C   0  0  0  0  0  0  0  0  0  0  0  0
    7.1306   -0.0169   18.5558 C   0  0  0  0  0  0  0  0  0  0  0  0
    8.0259   -0.5994   18.3430 H   0  0  0  0  0  0  0  0  0  0  0  0
    6.5673    0.5904   17.5075 N   0  0  0  0  0  0  0  0  0  0  0  0
    5.4371    1.2851   17.7343 C   0  0  0  0  0  0  0  0  0  0  0  0
    5.0060    1.7949   16.8744 H   0  0  0  0  0  0  0  0  0  0  0  0
    4.8179    1.3501   18.9845 C   0  0  0  0  0  0  0  0  0  0  0  0
    3.8888    1.8946   19.1013 H   0  0  0  0  0  0  0  0  0  0  0  0
    5.4272    0.7237   20.0733 C   0  0  0  0  0  0  0  0  0  0  0  0
    4.9662    0.7218   21.0622 H   0  0  0  0  0  0  0  0  0  0  0  0
  1  2  1  0
  2  3  2  3
  3  4  1  0
  4  5  1  0
  5  6  1  0
  6  7  2  0
  7  8  1  0
  7  9  1  0
  9 10  1  0
  9 11  2  0
 11 12  1  0
 11 13  1  0
 13 14  1  0
 13 15  2  0
 15 16  1  0
 16 17  1  0
  3 18  1  0
 18 19  1  0
 18 20  1  0
 18 21  1  0
  2 22  1  0
 22 23  2  0
 23 24  1  0
 23 25  1  0
 25 26  2  0
 26 27  1  0
 26 28  1  0
 28 29  1  0
 28 30  2  0
 30 31  1  0
 16  4  2  0
 30 22  1  0
 15  6  1  0
M  END
>  <cnnaffinity>  (1) 
-4.87225

>  <filename>  (1) 
CC(=Cc1cccnc1)c1cc2ccccc2s1

$$$$
