
     RDKit          3D

 38 39  0  0  0  0  0  0  0  0999 V2000
    8.8447   -0.4197   21.1697 C   0  0  0  0  0  0  0  0  0  0  0  0
    7.3747   -0.7359   20.9942 C   0  0  0  0  0  0  0  0  0  0  0  0
    6.7172   -1.6207   21.7689 C   0  0  0  0  0  0  0  0  0  0  0  0
    7.3431   -2.4390   22.8324 C   0  0  0  0  0  0  0  0  0  0  0  0
    8.5492   -2.4962   23.0507 O   0  0  0  0  0  0  0  0  0  0  0  0
    6.4564   -3.1633   23.5844 N   0  0  0  0  0  0  0  0  0  0  0  0
    6.8730   -3.7896   24.8416 C   0  0  0  0  0  0  0  0  0  0  0  0
    7.3183   -2.8067   25.9551 C   0  0  0  0  0  0  0  0  0  0  0  0
    6.2160   -1.8614   26.3767 C   0  0  0  0  0  0  0  0  0  0  0  0
    5.2387   -2.2645   27.3007 C   0  0  0  0  0  0  0  0  0  0  0  0
    4.1689   -1.4256   27.6301 C   0  0  0  0  0  0  0  0  0  0  0  0
    4.0781   -0.1713   27.0205 C   0  0  0  0  0  0  0  0  0  0  0  0
    2.7581    0.8879   27.4348 Cl  0  0  0  0  0  0  0  0  0  0  0  0
    5.0309    0.2521   26.0911 C   0  0  0  0  0  0  0  0  0  0  0  0
    6.0930   -0.6004   25.7745 C   0  0  0  0  0  0  0  0  0  0  0  0
    6.8353   -0.3044   25.0331 H   0  0  0  0  0  0  0  0  0  0  0  0
    4.9292    1.2309   25.6330 H   0  0  0  0  0  0  0  0  0  0  0  0
    3.4098   -1.7230   28.3472 H   0  0  0  0  0  0  0  0  0  0  0  0
    5.3152   -3.2535   27.7546 H   0  0  0  0  0  0  0  0  0  0  0  0
    7.6591   -3.3995   26.8151 H   0  0  0  0  0  0  0  0  0  0  0  0
    8.1920   -2.2540   25.5875 H   0  0  0  0  0  0  0  0  0  0  0  0
    7.7215   -4.4518   24.6246 H   0  0  0  0  0  0  0  0  0  0  0  0
    6.0344   -4.4031   25.1943 H   0  0  0  0  0  0  0  0  0  0  0  0
    5.4879   -2.9294   23.4400 H   0  0  0  0  0  0  0  0  0  0  0  0
    5.6520   -1.7714   21.6044 H   0  0  0  0  0  0  0  0  0  0  0  0
    6.6268   -0.0201   19.9171 C   0  0  0  0  0  0  0  0  0  0  0  0
    5.4081    0.6400   20.1475 C   0  0  0  0  0  0  0  0  0  0  0  0
    4.7937    1.3145   19.0915 C   0  0  0  0  0  0  0  0  0  0  0  0
    5.3961    1.2952   17.8295 C   0  0  0  0  0  0  0  0  0  0  0  0
    6.5572    0.6702   17.5845 N   0  0  0  0  0  0  0  0  0  0  0  0
    7.1519    0.0524   18.6120 C   0  0  0  0  0  0  0  0  0  0  0  0
    8.1103   -0.4147   18.3854 H   0  0  0  0  0  0  0  0  0  0  0  0
    4.9394    1.8004   16.9794 H   0  0  0  0  0  0  0  0  0  0  0  0
    3.8673    1.8530   19.2296 H   0  0  0  0  0  0  0  0  0  0  0  0
    4.9873    0.6458   21.1522 H   0  0  0  0  0  0  0  0  0  0  0  0
    9.1136    0.4326   20.5434 H   0  0  0  0  0  0  0  0  0  0  0  0
    9.0902   -0.1861   22.2127 H   0  0  0  0  0  0  0  0  0  0  0  0
    9.4828   -1.2740   20.9189 H   0  0  0  0  0  0  0  0  0  0  0  0
  1  2  1  0
  2  3  2  3
  3  4  1  0
  4  5  2  0
  4  6  1  0
  6  7  1  0
  7  8  1  0
  8  9  1  0
  9 10  2  0
 10 11  1  0
 11 12  2  0
 12 13  1  0
 12 14  1  0
 14 15  2  0
 15 16  1  0
 14 17  1  0
 11 18  1  0
 10 19  1  0
  8 20  1  0
  8 21  1  0
  7 22  1  0
  7 23  1  0
  6 24  1  0
  3 25  1  0
  2 26  1  0
 26 27  2  0
 27 28  1  0
 28 29  2  0
 29 30  1  0
 30 31  2  0
 31 32  1  0
 29 33  1  0
 28 34  1  0
 27 35  1  0
  1 36  1  0
  1 37  1  0
  1 38  1  0
 15  9  1  0
 31 26  1  0
M  END
>  <cnnaffinity>  (1) 
-5.02125

>  <filename>  (1) 
CC(=CC(=O)NCCc1ccc(Cl)cc1)c1cccnc1

$$$$
