
     RDKit          3D

 49 52  0  0  0  0  0  0  0  0999 V2000
    8.3401    7.0860   28.9459 C   0  0  0  0  0  0  0  0  0  0  0  0
    7.9510    6.1080   27.8636 C   0  0  0  0  0  0  0  0  0  0  0  0
    6.8215    5.7036   27.6871 O   0  0  0  0  0  0  0  0  0  0  0  0
    9.0291    5.7576   27.0768 N   0  0  0  0  0  0  0  0  0  0  0  0
    9.0529    4.7721   26.0658 C   0  0  0  0  0  0  0  0  0  0  0  0
    8.2226    3.6545   26.1732 C   0  0  0  0  0  0  0  0  0  0  0  0
    8.2633    2.6932   25.1689 C   0  0  0  0  0  0  0  0  0  0  0  0
    9.1378    2.8436   24.0748 C   0  0  0  0  0  0  0  0  0  0  0  0
    9.1195    1.7823   23.0076 C   0  0  0  0  0  0  0  0  0  0  0  0
    8.0285    1.0632   22.7356 N   0  0  0  0  0  0  0  0  0  0  0  0
    8.3998    0.2892   21.6963 C   0  0  0  0  0  0  0  0  0  0  0  0
    7.4632   -0.6460   20.9849 C   0  0  0  0  0  0  0  0  0  0  0  0
    6.6684   -0.0151   19.8416 C   0  0  0  0  0  0  0  0  0  0  0  0
    5.4515    0.6363   20.0918 C   0  0  0  0  0  0  0  0  0  0  0  0
    4.8067    1.3051   19.0488 C   0  0  0  0  0  0  0  0  0  0  0  0
    5.3940    1.3026   17.7826 C   0  0  0  0  0  0  0  0  0  0  0  0
    6.5347    0.6520   17.5080 N   0  0  0  0  0  0  0  0  0  0  0  0
    7.1425    0.0143   18.5164 C   0  0  0  0  0  0  0  0  0  0  0  0
    8.0690   -0.4979   18.2514 H   0  0  0  0  0  0  0  0  0  0  0  0
    4.9349    1.8456   16.9554 H   0  0  0  0  0  0  0  0  0  0  0  0
    3.8783    1.8415   19.2056 H   0  0  0  0  0  0  0  0  0  0  0  0
    5.0165    0.6287   21.0929 H   0  0  0  0  0  0  0  0  0  0  0  0
    8.0578   -1.4915   20.6235 H   0  0  0  0  0  0  0  0  0  0  0  0
    6.7737   -1.0314   21.7427 H   0  0  0  0  0  0  0  0  0  0  0  0
    9.6626    0.4309   21.3435 N   0  0  0  0  0  0  0  0  0  0  0  0
   10.1350    1.3677   22.1956 N   0  0  0  0  0  0  0  0  0  0  0  0
   11.5320    1.8223   22.0488 C   0  0  0  0  0  0  0  0  0  0  0  0
   12.3624    1.8821   23.3558 C   0  0  0  0  0  0  0  0  0  0  0  0
   13.0535    3.2704   23.3659 C   0  0  0  0  0  0  0  0  0  0  0  0
   12.8478    3.9205   21.9877 C   0  0  0  0  0  0  0  0  0  0  0  0
   11.5898    3.2388   21.4549 C   0  0  0  0  0  0  0  0  0  0  0  0
   10.7505    3.7711   21.9047 H   0  0  0  0  0  0  0  0  0  0  0  0
   11.5124    3.2058   20.3585 H   0  0  0  0  0  0  0  0  0  0  0  0
   13.7104    3.8214   21.3240 H   0  0  0  0  0  0  0  0  0  0  0  0
   12.6943    5.0024   22.0839 H   0  0  0  0  0  0  0  0  0  0  0  0
   14.1076    3.2068   23.6109 H   0  0  0  0  0  0  0  0  0  0  0  0
   12.5633    3.8955   24.1158 H   0  0  0  0  0  0  0  0  0  0  0  0
   13.0890    1.0605   23.3617 H   0  0  0  0  0  0  0  0  0  0  0  0
   11.7401    1.7633   24.2494 H   0  0  0  0  0  0  0  0  0  0  0  0
   11.9910    1.1112   21.3551 H   0  0  0  0  0  0  0  0  0  0  0  0
    9.9450    3.9299   23.9767 N   0  0  0  0  0  0  0  0  0  0  0  0
    9.8995    4.8608   24.9370 C   0  0  0  0  0  0  0  0  0  0  0  0
   10.5539    5.7206   24.8149 H   0  0  0  0  0  0  0  0  0  0  0  0
    7.6087    1.8292   25.2079 H   0  0  0  0  0  0  0  0  0  0  0  0
    7.5551    3.5650   27.0289 H   0  0  0  0  0  0  0  0  0  0  0  0
    9.8764    6.2653   27.2678 H   0  0  0  0  0  0  0  0  0  0  0  0
    8.4202    8.0895   28.5176 H   0  0  0  0  0  0  0  0  0  0  0  0
    9.2979    6.8169   29.3997 H   0  0  0  0  0  0  0  0  0  0  0  0
    7.5688    7.0984   29.7119 H   0  0  0  0  0  0  0  0  0  0  0  0
  1  2  1  0
  2  3  2  0
  2  4  1  0
  4  5  1  0
  5  6  2  0
  6  7  1  0
  7  8  2  0
  8  9  1  0
  9 10  2  0
 10 11  1  0
 11 12  1  0
 12 13  1  0
 13 14  2  0
 14 15  1  0
 15 16  2  0
 16 17  1  0
 17 18  2  0
 18 19  1  0
 16 20  1  0
 15 21  1  0
 14 22  1  0
 12 23  1  0
 12 24  1  0
 11 25  2  0
 25 26  1  0
 26 27  1  0
 27 28  1  0
 28 29  1  0
 29 30  1  0
 30 31  1  0
 31 32  1  0
 31 33  1  0
 30 34  1  0
 30 35  1  0
 29 36  1  0
 29 37  1  0
 28 38  1  0
 28 39  1  0
 27 40  1  0
  8 41  1  0
 41 42  2  0
 42 43  1  0
  7 44  1  0
  6 45  1  0
  4 46  1  0
  1 47  1  0
  1 48  1  0
  1 49  1  0
 42  5  1  0
 26  9  1  0
 31 27  1  0
 18 13  1  0
M  END
>  <cnnaffinity>  (1) 
-5.6685

>  <filename>  (1) 
CC(=O)Nc1ccc(-c2nc(Cc3cccnc3)nn2C2CCCC2)nc1

$$$$
