
     RDKit          3D

 33 34  0  0  0  0  0  0  0  0999 V2000
    5.6680   -1.7558   21.6038 H   0  0  0  0  0  0  0  0  0  0  0  0
    6.7364   -1.5635   21.7818 C   0  0  0  0  0  0  0  0  0  0  0  0
    7.4008   -0.7194   20.9778 C   0  0  0  0  0  0  0  0  0  0  0  0
    6.6533   -0.0006   19.9069 C   0  0  0  0  0  0  0  0  0  0  0  0
    7.1654    0.0705   18.5947 C   0  0  0  0  0  0  0  0  0  0  0  0
    8.1158   -0.4137   18.3690 H   0  0  0  0  0  0  0  0  0  0  0  0
    6.5578    0.6813   17.5721 N   0  0  0  0  0  0  0  0  0  0  0  0
    5.3938    1.2969   17.8322 C   0  0  0  0  0  0  0  0  0  0  0  0
    4.9206    1.7947   16.9883 H   0  0  0  0  0  0  0  0  0  0  0  0
    4.7988    1.3113   19.0992 C   0  0  0  0  0  0  0  0  0  0  0  0
    3.8684    1.8463   19.2453 H   0  0  0  0  0  0  0  0  0  0  0  0
    5.4264    0.6405   20.1503 C   0  0  0  0  0  0  0  0  0  0  0  0
    5.0083    0.6296   21.1563 H   0  0  0  0  0  0  0  0  0  0  0  0
    8.9033   -0.5347   21.0752 C   0  0  0  0  0  0  0  0  0  0  0  0
    9.2271   -0.4294   22.1191 H   0  0  0  0  0  0  0  0  0  0  0  0
    9.2228    0.3522   20.5230 H   0  0  0  0  0  0  0  0  0  0  0  0
    9.4326   -1.4085   20.6713 H   0  0  0  0  0  0  0  0  0  0  0  0
    7.3565   -2.3034   22.8117 N   0  0  0  0  0  0  0  0  0  0  0  0
    7.5372   -1.6916   24.1149 C   0  0  0  0  0  0  0  0  0  0  0  0
    8.4691   -2.0660   24.5682 H   0  0  0  0  0  0  0  0  0  0  0  0
    7.6406   -0.6068   23.9849 H   0  0  0  0  0  0  0  0  0  0  0  0
    6.3408   -1.9770   25.0069 C   0  0  0  0  0  0  0  0  0  0  0  0
    5.4171   -1.5435   24.6283 H   0  0  0  0  0  0  0  0  0  0  0  0
    6.4869   -1.7037   26.0516 H   0  0  0  0  0  0  0  0  0  0  0  0
    6.0582   -3.7215   25.0582 S   0  0  0  0  0  0  0  0  0  0  0  0
    7.2045   -4.2878   25.7609 O   0  0  0  0  0  0  0  0  0  0  0  0
    4.6850   -3.9224   25.4978 O   0  0  0  0  0  0  0  0  0  0  0  0
    6.1544   -4.3409   23.4033 C   0  0  0  0  0  0  0  0  0  0  0  0
    6.1988   -5.4221   23.5394 H   0  0  0  0  0  0  0  0  0  0  0  0
    5.2169   -4.0507   22.9284 H   0  0  0  0  0  0  0  0  0  0  0  0
    7.3753   -3.7473   22.7273 C   0  0  0  0  0  0  0  0  0  0  0  0
    8.3045   -4.1187   23.1872 H   0  0  0  0  0  0  0  0  0  0  0  0
    7.3986   -4.0362   21.6691 H   0  0  0  0  0  0  0  0  0  0  0  0
  1  2  1  0
  2  3  2  3
  3  4  1  0
  4  5  2  0
  5  6  1  0
  5  7  1  0
  7  8  2  0
  8  9  1  0
  8 10  1  0
 10 11  1  0
 10 12  2  0
 12 13  1  0
  3 14  1  0
 14 15  1  0
 14 16  1  0
 14 17  1  0
  2 18  1  0
 18 19  1  0
 19 20  1  0
 19 21  1  0
 19 22  1  0
 22 23  1  0
 22 24  1  0
 22 25  1  0
 25 26  2  0
 25 27  2  0
 25 28  1  0
 28 29  1  0
 28 30  1  0
 28 31  1  0
 31 32  1  0
 31 33  1  0
 12  4  1  0
 31 18  1  0
M  END
>  <cnnaffinity>  (1) 
-4.59326

>  <filename>  (1) 
CC(=CN1CCS(=O)(=O)CC1)c1cccnc1

$$$$
