
     RDKit          3D

 31 32  0  0  0  0  0  0  0  0999 V2000
    5.0972    1.8425   17.0679 H   0  0  0  0  0  0  0  0  0  0  0  0
    5.5127    1.2296   17.8676 C   0  0  0  0  0  0  0  0  0  0  0  0
    6.6303    0.5473   17.5749 N   0  0  0  0  0  0  0  0  0  0  0  0
    7.1812   -0.1920   18.5440 C   0  0  0  0  0  0  0  0  0  0  0  0
    8.0698   -0.7669   18.2830 H   0  0  0  0  0  0  0  0  0  0  0  0
    6.6649   -0.2668   19.8510 C   0  0  0  0  0  0  0  0  0  0  0  0
    7.3760   -0.9543   20.8875 N   0  0  0  0  0  0  0  0  0  0  0  0
    8.5708   -0.5646   21.4800 C   0  0  0  0  0  0  0  0  0  0  0  0
    9.2865    0.6683   21.0386 C   0  0  0  0  0  0  0  0  0  0  0  0
    9.6849    0.4874   20.0345 H   0  0  0  0  0  0  0  0  0  0  0  0
    8.5318    1.4486   20.9040 H   0  0  0  0  0  0  0  0  0  0  0  0
   10.3785    1.1720   21.9761 C   0  0  0  0  0  0  0  0  0  0  0  0
   10.6612    2.1874   21.6838 H   0  0  0  0  0  0  0  0  0  0  0  0
   10.0074    1.2295   23.0095 H   0  0  0  0  0  0  0  0  0  0  0  0
   11.5648    0.3332   21.8924 N   0  0  0  0  0  0  0  0  0  0  0  0
   11.3765   -0.6521   21.8084 H   0  0  0  0  0  0  0  0  0  0  0  0
   12.7314    0.6635   22.5448 C   0  0  0  0  0  0  0  0  0  0  0  0
   12.8695    1.6984   23.1685 O   0  0  0  0  0  0  0  0  0  0  0  0
   13.8615   -0.3377   22.3932 C   0  0  0  0  0  0  0  0  0  0  0  0
   14.3905   -0.1928   21.4433 H   0  0  0  0  0  0  0  0  0  0  0  0
   14.5770   -0.1382   23.1933 H   0  0  0  0  0  0  0  0  0  0  0  0
   13.5382   -1.3837   22.4371 H   0  0  0  0  0  0  0  0  0  0  0  0
    8.9110   -1.3812   22.4329 N   0  0  0  0  0  0  0  0  0  0  0  0
    7.8910   -2.2927   22.4596 N   0  0  0  0  0  0  0  0  0  0  0  0
    7.7998   -3.0102   23.1637 H   0  0  0  0  0  0  0  0  0  0  0  0
    6.9191   -2.0729   21.5559 C   0  0  0  0  0  0  0  0  0  0  0  0
    5.5487   -2.9814   21.3216 S   0  0  0  0  0  0  0  0  0  0  0  0
    5.4594    0.3793   20.1308 C   0  0  0  0  0  0  0  0  0  0  0  0
    5.0027    0.2743   21.1179 H   0  0  0  0  0  0  0  0  0  0  0  0
    4.8862    1.1584   19.1182 C   0  0  0  0  0  0  0  0  0  0  0  0
    3.9798    1.7252   19.2867 H   0  0  0  0  0  0  0  0  0  0  0  0
  1  2  1  0
  2  3  2  0
  3  4  1  0
  4  5  1  0
  4  6  2  0
  6  7  1  0
  7  8  1  0
  8  9  1  0
  9 10  1  0
  9 11  1  0
  9 12  1  0
 12 13  1  0
 12 14  1  0
 12 15  1  0
 15 16  1  0
 15 17  1  0
 17 18  2  0
 17 19  1  0
 19 20  1  0
 19 21  1  0
 19 22  1  0
  8 23  2  0
 23 24  1  0
 24 25  1  0
 24 26  1  0
 26 27  2  0
  6 28  1  0
 28 29  1  0
 28 30  2  0
 30 31  1  0
 30  2  1  0
 26  7  1  0
M  END
>  <cnnaffinity>  (1) 
-4.70076

>  <filename>  (1) 
CC(=O)NCCc1n[nH]c(=S)n1-c1cccnc1

$$$$
