
     RDKit          3D

 37 40  0  0  0  0  0  0  0  0999 V2000
    4.9450    1.7734   16.9799 H   0  0  0  0  0  0  0  0  0  0  0  0
    5.4078    1.2891   17.8382 C   0  0  0  0  0  0  0  0  0  0  0  0
    6.5692    0.6613   17.6040 N   0  0  0  0  0  0  0  0  0  0  0  0
    7.1597    0.0843   18.6561 C   0  0  0  0  0  0  0  0  0  0  0  0
    8.1028   -0.4119   18.4391 H   0  0  0  0  0  0  0  0  0  0  0  0
    6.6562    0.1037   19.9753 C   0  0  0  0  0  0  0  0  0  0  0  0
    7.4334   -0.5900   21.0256 C   0  0  0  0  0  0  0  0  0  0  0  0
    8.2852   -1.6205   20.8531 C   0  0  0  0  0  0  0  0  0  0  0  0
    8.6685   -1.9818   19.9210 H   0  0  0  0  0  0  0  0  0  0  0  0
    8.8787   -2.3096   22.3334 S   0  0  0  0  0  0  0  0  0  0  0  0
    8.0946   -1.0416   23.2184 C   0  0  0  0  0  0  0  0  0  0  0  0
    8.1261   -0.5447   24.4312 N   0  0  0  0  0  0  0  0  0  0  0  0
    7.3691    0.5821   24.2804 C   0  0  0  0  0  0  0  0  0  0  0  0
    7.1189    1.5473   25.3746 C   0  0  0  0  0  0  0  0  0  0  0  0
    6.3384    2.6954   25.1307 C   0  0  0  0  0  0  0  0  0  0  0  0
    5.9445    2.8709   24.1320 H   0  0  0  0  0  0  0  0  0  0  0  0
    6.0826    3.5961   26.1650 C   0  0  0  0  0  0  0  0  0  0  0  0
    5.4844    4.4801   25.9705 H   0  0  0  0  0  0  0  0  0  0  0  0
    6.5693    3.3717   27.4529 C   0  0  0  0  0  0  0  0  0  0  0  0
    6.3425    4.0396   28.2780 H   0  0  0  0  0  0  0  0  0  0  0  0
    7.3510    2.2335   27.6842 C   0  0  0  0  0  0  0  0  0  0  0  0
    7.8752    1.9705   28.9577 N   0  0  0  0  0  0  0  0  0  0  0  0
    8.7607    1.4953   28.9860 H   0  0  0  0  0  0  0  0  0  0  0  0
    7.2545    2.2662   30.1385 C   0  0  0  0  0  0  0  0  0  0  0  0
    6.1167    2.6873   30.2032 O   0  0  0  0  0  0  0  0  0  0  0  0
    8.1309    2.0281   31.3389 C   0  0  0  0  0  0  0  0  0  0  0  0
    8.1007    0.9677   31.6075 H   0  0  0  0  0  0  0  0  0  0  0  0
    7.7347    2.6127   32.1678 H   0  0  0  0  0  0  0  0  0  0  0  0
    9.1644    2.3244   31.1310 H   0  0  0  0  0  0  0  0  0  0  0  0
    7.6466    1.3369   26.6594 C   0  0  0  0  0  0  0  0  0  0  0  0
    8.2604    0.4644   26.8811 H   0  0  0  0  0  0  0  0  0  0  0  0
    6.8782    0.7883   23.0610 N   0  0  0  0  0  0  0  0  0  0  0  0
    7.3457   -0.2841   22.3858 N   0  0  0  0  0  0  0  0  0  0  0  0
    5.4204    0.7426   20.1939 C   0  0  0  0  0  0  0  0  0  0  0  0
    4.9847    0.7772   21.1961 H   0  0  0  0  0  0  0  0  0  0  0  0
    4.7921    1.3361   19.0946 C   0  0  0  0  0  0  0  0  0  0  0  0
    3.8410    1.8434   19.2024 H   0  0  0  0  0  0  0  0  0  0  0  0
  1  2  1  0
  2  3  2  0
  3  4  1  0
  4  5  1  0
  4  6  2  0
  6  7  1  0
  7  8  2  0
  8  9  1  0
  8 10  1  0
 10 11  1  0
 11 12  2  0
 12 13  1  0
 13 14  1  0
 14 15  2  0
 15 16  1  0
 15 17  1  0
 17 18  1  0
 17 19  2  0
 19 20  1  0
 19 21  1  0
 21 22  1  0
 22 23  1  0
 22 24  1  0
 24 25  2  0
 24 26  1  0
 26 27  1  0
 26 28  1  0
 26 29  1  0
 21 30  2  0
 30 31  1  0
 13 32  2  0
 32 33  1  0
  6 34  1  0
 34 35  1  0
 34 36  2  0
 36 37  1  0
 36  2  1  0
 33  7  1  0
 33 11  1  0
 30 14  1  0
M  END
>  <cnnaffinity>  (1) 
-5.26081

>  <filename>  (1) 
CC(=O)Nc1cccc(-c2nc3scc(-c4cccnc4)n3n2)c1

$$$$
