
     RDKit          3D

 36 37  0  0  0  0  0  0  0  0999 V2000
    6.6498   -1.5184   22.0038 C   0  0  0  0  0  0  0  0  0  0  0  0
    7.3982   -0.6647   21.0187 C   0  0  0  0  0  0  0  0  0  0  0  0
    8.7789   -0.6137   21.0616 C   0  0  0  0  0  0  0  0  0  0  0  0
    9.5949   -1.2441   22.0916 C   0  0  0  0  0  0  0  0  0  0  0  0
   10.7527   -1.5422   21.8474 O   0  0  0  0  0  0  0  0  0  0  0  0
    9.0845   -1.4246   23.3606 N   0  0  0  0  0  0  0  0  0  0  0  0
    9.8267   -1.9136   24.5183 C   0  0  0  0  0  0  0  0  0  0  0  0
    8.8583   -1.7795   25.6612 C   0  0  0  0  0  0  0  0  0  0  0  0
    7.8511   -2.7489   25.8193 C   0  0  0  0  0  0  0  0  0  0  0  0
    6.8771   -2.6049   26.8044 C   0  0  0  0  0  0  0  0  0  0  0  0
    6.8630   -1.4552   27.5913 C   0  0  0  0  0  0  0  0  0  0  0  0
    7.8600   -0.4811   27.4604 C   0  0  0  0  0  0  0  0  0  0  0  0
    7.7216    1.1224   28.4992 Br  0  0  0  0  0  0  0  0  0  0  0  0
    8.8950   -0.6688   26.5257 C   0  0  0  0  0  0  0  0  0  0  0  0
    9.9344    0.2251   26.4499 O   0  0  0  0  0  0  0  0  0  0  0  0
   10.0176    0.6984   27.2994 H   0  0  0  0  0  0  0  0  0  0  0  0
    6.0460   -1.3024   28.2880 H   0  0  0  0  0  0  0  0  0  0  0  0
    6.1233   -3.3790   26.9355 H   0  0  0  0  0  0  0  0  0  0  0  0
    7.8137   -3.6180   25.1690 H   0  0  0  0  0  0  0  0  0  0  0  0
   10.7298   -1.3161   24.6998 H   0  0  0  0  0  0  0  0  0  0  0  0
   10.1290   -2.9622   24.3894 H   0  0  0  0  0  0  0  0  0  0  0  0
    8.1524   -1.0593   23.5272 H   0  0  0  0  0  0  0  0  0  0  0  0
    9.3062   -0.0528   20.3000 H   0  0  0  0  0  0  0  0  0  0  0  0
    6.6824    0.0271   19.9388 C   0  0  0  0  0  0  0  0  0  0  0  0
    5.4174    0.6061   20.1237 C   0  0  0  0  0  0  0  0  0  0  0  0
    4.8321    1.2594   19.0371 C   0  0  0  0  0  0  0  0  0  0  0  0
    5.4955    1.3023   17.8071 C   0  0  0  0  0  0  0  0  0  0  0  0
    6.7017    0.7322   17.6204 N   0  0  0  0  0  0  0  0  0  0  0  0
    7.2765    0.1207   18.6696 C   0  0  0  0  0  0  0  0  0  0  0  0
    8.2475   -0.3465   18.5230 H   0  0  0  0  0  0  0  0  0  0  0  0
    5.0251    1.8166   16.9761 H   0  0  0  0  0  0  0  0  0  0  0  0
    3.8680    1.7504   19.1303 H   0  0  0  0  0  0  0  0  0  0  0  0
    4.9132    0.5689   21.0888 H   0  0  0  0  0  0  0  0  0  0  0  0
    6.3160   -0.9201   22.8544 H   0  0  0  0  0  0  0  0  0  0  0  0
    5.7808   -1.9752   21.5203 H   0  0  0  0  0  0  0  0  0  0  0  0
    7.2932   -2.3241   22.3703 H   0  0  0  0  0  0  0  0  0  0  0  0
  1  2  1  0
  2  3  2  3
  3  4  1  0
  4  5  2  0
  4  6  1  0
  6  7  1  0
  7  8  1  0
  8  9  2  0
  9 10  1  0
 10 11  2  0
 11 12  1  0
 12 13  1  0
 12 14  2  0
 14 15  1  0
 15 16  1  0
 11 17  1  0
 10 18  1  0
  9 19  1  0
  7 20  1  0
  7 21  1  0
  6 22  1  0
  3 23  1  0
  2 24  1  0
 24 25  2  0
 25 26  1  0
 26 27  2  0
 27 28  1  0
 28 29  2  0
 29 30  1  0
 27 31  1  0
 26 32  1  0
 25 33  1  0
  1 34  1  0
  1 35  1  0
  1 36  1  0
 14  8  1  0
 29 24  1  0
M  END
>  <cnnaffinity>  (1) 
-5.16017

>  <filename>  (1) 
CC(=CC(=O)NCc1cccc(Br)c1O)c1cccnc1

$$$$
