
     RDKit          3D

 35 36  0  0  0  0  0  0  0  0999 V2000
    4.9976    1.7567   17.0101 H   0  0  0  0  0  0  0  0  0  0  0  0
    5.4715    1.2709   17.8602 C   0  0  0  0  0  0  0  0  0  0  0  0
    6.6454    0.6612   17.6197 N   0  0  0  0  0  0  0  0  0  0  0  0
    7.2415    0.0381   18.6443 C   0  0  0  0  0  0  0  0  0  0  0  0
    8.1928   -0.4500   18.4300 H   0  0  0  0  0  0  0  0  0  0  0  0
    6.7011   -0.0214   19.9492 C   0  0  0  0  0  0  0  0  0  0  0  0
    7.3350   -0.6891   21.0291 N   0  0  0  0  0  0  0  0  0  0  0  0
    8.3212   -0.6394   21.2025 H   0  0  0  0  0  0  0  0  0  0  0  0
    6.7500   -1.6805   21.7761 C   0  0  0  0  0  0  0  0  0  0  0  0
    5.7472   -2.2988   21.5321 O   0  0  0  0  0  0  0  0  0  0  0  0
    7.6217   -1.8980   22.8386 O   0  0  0  0  0  0  0  0  0  0  0  0
    7.0655   -2.6372   23.9166 N   0  0  0  0  0  0  0  0  0  0  0  0
    7.1927   -4.0518   23.5357 C   0  0  0  0  0  0  0  0  0  0  0  0
    6.6194   -4.1998   22.6181 H   0  0  0  0  0  0  0  0  0  0  0  0
    8.2421   -4.3124   23.3267 H   0  0  0  0  0  0  0  0  0  0  0  0
    6.5991   -4.9161   24.6230 C   0  0  0  0  0  0  0  0  0  0  0  0
    5.5167   -4.7381   24.6827 H   0  0  0  0  0  0  0  0  0  0  0  0
    6.7416   -5.9649   24.3612 H   0  0  0  0  0  0  0  0  0  0  0  0
    7.2307   -4.6591   25.9316 N   0  0  0  0  0  0  0  0  0  0  0  0
    7.1224   -5.6833   26.8558 C   0  0  0  0  0  0  0  0  0  0  0  0
    6.6511   -6.7678   26.5447 O   0  0  0  0  0  0  0  0  0  0  0  0
    7.5883   -5.4159   28.2631 C   0  0  0  0  0  0  0  0  0  0  0  0
    8.6228   -5.0627   28.2792 H   0  0  0  0  0  0  0  0  0  0  0  0
    7.5098   -6.3522   28.8160 H   0  0  0  0  0  0  0  0  0  0  0  0
    6.9414   -4.6671   28.7317 H   0  0  0  0  0  0  0  0  0  0  0  0
    7.3099   -3.2220   26.2923 C   0  0  0  0  0  0  0  0  0  0  0  0
    7.9587   -3.0771   27.1645 H   0  0  0  0  0  0  0  0  0  0  0  0
    6.3137   -2.8211   26.5486 H   0  0  0  0  0  0  0  0  0  0  0  0
    7.8754   -2.3851   25.1260 C   0  0  0  0  0  0  0  0  0  0  0  0
    7.8104   -1.3187   25.3690 H   0  0  0  0  0  0  0  0  0  0  0  0
    8.9425   -2.6235   24.9676 H   0  0  0  0  0  0  0  0  0  0  0  0
    5.4776    0.6185   20.1810 C   0  0  0  0  0  0  0  0  0  0  0  0
    5.0520    0.5897   21.1843 H   0  0  0  0  0  0  0  0  0  0  0  0
    4.8625    1.2846   19.1187 C   0  0  0  0  0  0  0  0  0  0  0  0
    3.9182    1.7989   19.2563 H   0  0  0  0  0  0  0  0  0  0  0  0
  1  2  1  0
  2  3  2  0
  3  4  1  0
  4  5  1  0
  4  6  2  0
  6  7  1  0
  7  8  1  0
  7  9  1  0
  9 10  2  0
  9 11  1  0
 11 12  1  0
 12 13  1  0
 13 14  1  0
 13 15  1  0
 13 16  1  0
 16 17  1  0
 16 18  1  0
 16 19  1  0
 19 20  1  0
 20 21  2  0
 20 22  1  0
 22 23  1  0
 22 24  1  0
 22 25  1  0
 19 26  1  0
 26 27  1  0
 26 28  1  0
 26 29  1  0
 29 30  1  0
 29 31  1  0
  6 32  1  0
 32 33  1  0
 32 34  2  0
 34 35  1  0
 34  2  1  0
 29 12  1  0
M  END
>  <cnnaffinity>  (1) 
-4.58255

>  <filename>  (1) 
CC(=O)N1CCN(OC(=O)Nc2cccnc2)CC1

$$$$
