
     RDKit          3D

 35 36  0  0  0  0  0  0  0  0999 V2000
    8.3458   -0.6857   22.8727 H   0  0  0  0  0  0  0  0  0  0  0  0
    7.8761   -0.0893   22.0952 C   0  0  0  0  0  0  0  0  0  0  0  0
    7.3235   -0.7346   21.0094 C   0  0  0  0  0  0  0  0  0  0  0  0
    7.3529   -2.6462   21.0080 Br  0  0  0  0  0  0  0  0  0  0  0  0
    6.6491   -0.0165   19.9185 C   0  0  0  0  0  0  0  0  0  0  0  0
    7.1764   -0.0048   18.6118 C   0  0  0  0  0  0  0  0  0  0  0  0
    8.1138   -0.5166   18.4037 H   0  0  0  0  0  0  0  0  0  0  0  0
    6.5859    0.6419   17.5878 N   0  0  0  0  0  0  0  0  0  0  0  0
    5.4316    1.2913   17.8302 C   0  0  0  0  0  0  0  0  0  0  0  0
    4.9398    1.8108   17.0145 H   0  0  0  0  0  0  0  0  0  0  0  0
    4.8365    1.3187   19.0961 C   0  0  0  0  0  0  0  0  0  0  0  0
    3.9054    1.8587   19.2330 H   0  0  0  0  0  0  0  0  0  0  0  0
    5.4555    0.6690   20.1643 C   0  0  0  0  0  0  0  0  0  0  0  0
    5.0225    0.6926   21.1641 H   0  0  0  0  0  0  0  0  0  0  0  0
    7.8483    1.3986   22.3112 C   0  0  0  0  0  0  0  0  0  0  0  0
    7.4420    1.9117   21.4325 H   0  0  0  0  0  0  0  0  0  0  0  0
    6.9694    1.6872   23.5359 C   0  0  0  0  0  0  0  0  0  0  0  0
    5.9536    1.3140   23.3688 H   0  0  0  0  0  0  0  0  0  0  0  0
    7.3701    1.1610   24.4072 H   0  0  0  0  0  0  0  0  0  0  0  0
    6.9294    3.1852   23.8348 C   0  0  0  0  0  0  0  0  0  0  0  0
    6.3789    3.7040   23.0428 H   0  0  0  0  0  0  0  0  0  0  0  0
    6.3797    3.3330   24.7703 H   0  0  0  0  0  0  0  0  0  0  0  0
    8.2900    3.7171   23.9454 N   0  0  0  0  0  0  0  0  0  0  0  0
    8.5995    4.6811   24.9014 C   0  0  0  0  0  0  0  0  0  0  0  0
    7.7368    5.1413   25.6406 O   0  0  0  0  0  0  0  0  0  0  0  0
   10.0195    5.1970   25.0319 C   0  0  0  0  0  0  0  0  0  0  0  0
   10.7312    4.3936   24.8327 H   0  0  0  0  0  0  0  0  0  0  0  0
   10.1825    5.5763   26.0435 H   0  0  0  0  0  0  0  0  0  0  0  0
   10.1761    6.0027   24.3078 H   0  0  0  0  0  0  0  0  0  0  0  0
    9.2579    3.3963   22.8909 C   0  0  0  0  0  0  0  0  0  0  0  0
    9.0159    3.9575   21.9843 H   0  0  0  0  0  0  0  0  0  0  0  0
   10.2694    3.6807   23.1859 H   0  0  0  0  0  0  0  0  0  0  0  0
    9.2693    1.9026   22.5815 C   0  0  0  0  0  0  0  0  0  0  0  0
    9.9143    1.7113   21.7178 H   0  0  0  0  0  0  0  0  0  0  0  0
    9.6953    1.3669   23.4332 H   0  0  0  0  0  0  0  0  0  0  0  0
  1  2  1  0
  2  3  2  3
  3  4  1  0
  3  5  1  0
  5  6  2  0
  6  7  1  0
  6  8  1  0
  8  9  2  0
  9 10  1  0
  9 11  1  0
 11 12  1  0
 11 13  2  0
 13 14  1  0
  2 15  1  0
 15 16  1  0
 15 17  1  0
 17 18  1  0
 17 19  1  0
 17 20  1  0
 20 21  1  0
 20 22  1  0
 20 23  1  0
 23 24  1  0
 24 25  2  0
 24 26  1  0
 26 27  1  0
 26 28  1  0
 26 29  1  0
 23 30  1  0
 30 31  1  0
 30 32  1  0
 30 33  1  0
 33 34  1  0
 33 35  1  0
 13  5  1  0
 33 15  1  0
M  END
>  <cnnaffinity>  (1) 
-4.83952

>  <filename>  (1) 
CC(=O)N1CCC(C=C(Br)c2cccnc2)CC1

$$$$
