
     RDKit          3D

 27 28  0  0  0  0  0  0  0  0999 V2000
    5.6507   -1.6330   21.6537 H   0  0  0  0  0  0  0  0  0  0  0  0
    6.7324   -1.5332   21.7837 C   0  0  0  0  0  0  0  0  0  0  0  0
    7.3969   -0.7046   20.9700 C   0  0  0  0  0  0  0  0  0  0  0  0
    6.6586    0.0089   19.8985 C   0  0  0  0  0  0  0  0  0  0  0  0
    7.1717    0.0733   18.5937 C   0  0  0  0  0  0  0  0  0  0  0  0
    8.1166   -0.4224   18.3783 H   0  0  0  0  0  0  0  0  0  0  0  0
    6.5633    0.6791   17.5676 N   0  0  0  0  0  0  0  0  0  0  0  0
    5.4004    1.2948   17.8352 C   0  0  0  0  0  0  0  0  0  0  0  0
    4.9116    1.7808   16.9954 H   0  0  0  0  0  0  0  0  0  0  0  0
    4.8041    1.3152   19.1038 C   0  0  0  0  0  0  0  0  0  0  0  0
    3.8701    1.8459   19.2591 H   0  0  0  0  0  0  0  0  0  0  0  0
    5.4321    0.6455   20.1509 C   0  0  0  0  0  0  0  0  0  0  0  0
    5.0115    0.6329   21.1611 H   0  0  0  0  0  0  0  0  0  0  0  0
    8.8745   -0.4293   21.0987 C   0  0  0  0  0  0  0  0  0  0  0  0
    9.1762   -0.4638   22.1507 H   0  0  0  0  0  0  0  0  0  0  0  0
    9.4599   -1.1820   20.5571 H   0  0  0  0  0  0  0  0  0  0  0  0
    9.1272    0.5541   20.6921 H   0  0  0  0  0  0  0  0  0  0  0  0
    7.3181   -2.3633   22.8540 C   0  0  0  0  0  0  0  0  0  0  0  0
    8.4474   -3.1860   22.6629 C   0  0  0  0  0  0  0  0  0  0  0  0
    8.8958   -3.2485   21.6762 H   0  0  0  0  0  0  0  0  0  0  0  0
    8.9940   -3.9385   23.6272 N   0  0  0  0  0  0  0  0  0  0  0  0
    8.4347   -3.8879   24.8441 C   0  0  0  0  0  0  0  0  0  0  0  0
    8.8754   -4.4933   25.6285 H   0  0  0  0  0  0  0  0  0  0  0  0
    7.3086   -3.1010   25.1225 C   0  0  0  0  0  0  0  0  0  0  0  0
    6.7792   -3.1014   26.3549 F   0  0  0  0  0  0  0  0  0  0  0  0
    6.7272   -2.3344   24.1275 C   0  0  0  0  0  0  0  0  0  0  0  0
    5.8577   -1.7153   24.3355 H   0  0  0  0  0  0  0  0  0  0  0  0
  1  2  1  0
  2  3  2  3
  3  4  1  0
  4  5  2  0
  5  6  1  0
  5  7  1  0
  7  8  2  0
  8  9  1  0
  8 10  1  0
 10 11  1  0
 10 12  2  0
 12 13  1  0
  3 14  1  0
 14 15  1  0
 14 16  1  0
 14 17  1  0
  2 18  1  0
 18 19  2  0
 19 20  1  0
 19 21  1  0
 21 22  2  0
 22 23  1  0
 22 24  1  0
 24 25  1  0
 24 26  2  0
 26 27  1  0
 12  4  1  0
 26 18  1  0
M  END
>  <cnnaffinity>  (1) 
-4.62717

>  <filename>  (1) 
CC(=Cc1cncc(F)c1)c1cccnc1

$$$$
