
     RDKit          3D

 37 38  0  0  0  0  0  0  0  0999 V2000
    8.8297   -0.4348   21.1835 C   0  0  0  0  0  0  0  0  0  0  0  0
    7.3544   -0.7443   21.0132 C   0  0  0  0  0  0  0  0  0  0  0  0
    6.6966   -1.6188   21.8005 C   0  0  0  0  0  0  0  0  0  0  0  0
    7.3200   -2.4965   22.8182 C   0  0  0  0  0  0  0  0  0  0  0  0
    8.5107   -2.5171   23.0699 O   0  0  0  0  0  0  0  0  0  0  0  0
    6.4368   -3.3578   23.4468 N   0  0  0  0  0  0  0  0  0  0  0  0
    6.8771   -4.3112   24.3535 C   0  0  0  0  0  0  0  0  0  0  0  0
    6.0258   -4.5166   25.3545 N   0  0  0  0  0  0  0  0  0  0  0  0
    6.4034   -5.4053   26.3066 C   0  0  0  0  0  0  0  0  0  0  0  0
    5.4625   -5.7580   27.4869 C   0  0  0  0  0  0  0  0  0  0  0  0
    4.5749   -6.9709   27.2521 C   0  0  0  0  0  0  0  0  0  0  0  0
    3.9538   -7.1156   28.1397 H   0  0  0  0  0  0  0  0  0  0  0  0
    3.9250   -6.8389   26.3854 H   0  0  0  0  0  0  0  0  0  0  0  0
    5.1955   -7.8584   27.1028 H   0  0  0  0  0  0  0  0  0  0  0  0
    6.2258   -6.0486   28.6049 F   0  0  0  0  0  0  0  0  0  0  0  0
    4.6962   -4.6939   27.8396 F   0  0  0  0  0  0  0  0  0  0  0  0
    7.6038   -6.1201   26.2356 C   0  0  0  0  0  0  0  0  0  0  0  0
    8.4252   -5.9616   25.1198 C   0  0  0  0  0  0  0  0  0  0  0  0
    8.0653   -5.0254   24.1669 C   0  0  0  0  0  0  0  0  0  0  0  0
    8.6759   -4.7982   23.3113 H   0  0  0  0  0  0  0  0  0  0  0  0
    9.3365   -6.5461   24.9974 H   0  0  0  0  0  0  0  0  0  0  0  0
    7.8954   -6.7865   27.0359 H   0  0  0  0  0  0  0  0  0  0  0  0
    5.5573   -2.9821   23.7622 H   0  0  0  0  0  0  0  0  0  0  0  0
    5.6327   -1.7854   21.6606 H   0  0  0  0  0  0  0  0  0  0  0  0
    6.6112   -0.0315   19.9367 C   0  0  0  0  0  0  0  0  0  0  0  0
    5.3861    0.6210   20.1554 C   0  0  0  0  0  0  0  0  0  0  0  0
    4.7903    1.2986   19.0926 C   0  0  0  0  0  0  0  0  0  0  0  0
    5.4155    1.2812   17.8415 C   0  0  0  0  0  0  0  0  0  0  0  0
    6.5708    0.6436   17.6005 N   0  0  0  0  0  0  0  0  0  0  0  0
    7.1533    0.0311   18.6383 C   0  0  0  0  0  0  0  0  0  0  0  0
    8.1026   -0.4644   18.4317 H   0  0  0  0  0  0  0  0  0  0  0  0
    4.9683    1.8058   17.0000 H   0  0  0  0  0  0  0  0  0  0  0  0
    3.8695    1.8509   19.2237 H   0  0  0  0  0  0  0  0  0  0  0  0
    4.9399    0.6361   21.1505 H   0  0  0  0  0  0  0  0  0  0  0  0
    9.1475    0.3907   20.5354 H   0  0  0  0  0  0  0  0  0  0  0  0
    9.4369   -1.3236   20.9770 H   0  0  0  0  0  0  0  0  0  0  0  0
    9.0411   -0.1640   22.2253 H   0  0  0  0  0  0  0  0  0  0  0  0
  1  2  1  0
  2  3  2  3
  3  4  1  0
  4  5  2  0
  4  6  1  0
  6  7  1  0
  7  8  2  0
  8  9  1  0
  9 10  1  0
 10 11  1  0
 11 12  1  0
 11 13  1  0
 11 14  1  0
 10 15  1  0
 10 16  1  0
  9 17  2  0
 17 18  1  0
 18 19  2  0
 19 20  1  0
 18 21  1  0
 17 22  1  0
  6 23  1  0
  3 24  1  0
  2 25  1  0
 25 26  2  0
 26 27  1  0
 27 28  2  0
 28 29  1  0
 29 30  2  0
 30 31  1  0
 28 32  1  0
 27 33  1  0
 26 34  1  0
  1 35  1  0
  1 36  1  0
  1 37  1  0
 19  7  1  0
 30 25  1  0
M  END
>  <cnnaffinity>  (1) 
-5.21177

>  <filename>  (1) 
CC(=CC(=O)Nc1cccc(C(C)(F)F)n1)c1cccnc1

$$$$
