
     RDKit          3D

 39 40  0  0  0  0  0  0  0  0999 V2000
    4.7236   -3.4450   23.3274 C   0  0  0  0  0  0  0  0  0  0  0  0
    6.1747   -3.4907   22.8666 C   0  0  0  0  0  0  0  0  0  0  0  0
    6.6419   -2.0930   22.5055 N   0  0  0  0  0  4  0  0  0  0  0  0
    6.0599   -1.4293   21.2931 C   0  0  0  0  0  0  0  0  0  0  0  0
    6.8295   -0.1405   20.9950 C   0  0  0  0  0  0  0  0  0  0  0  0
    6.4613    0.5336   19.6842 C   0  0  0  0  0  0  0  0  0  0  0  0
    5.4242    1.4742   19.5795 C   0  0  0  0  0  0  0  0  0  0  0  0
    5.1724    2.0854   18.3456 C   0  0  0  0  0  0  0  0  0  0  0  0
    5.9576    1.7341   17.2450 C   0  0  0  0  0  0  0  0  0  0  0  0
    6.9421    0.8277   17.3181 N   0  0  0  0  0  0  0  0  0  0  0  0
    7.1777    0.2585   18.5064 C   0  0  0  0  0  0  0  0  0  0  0  0
    7.9999   -0.4601   18.5267 H   0  0  0  0  0  0  0  0  0  0  0  0
    5.8161    2.2188   16.2765 H   0  0  0  0  0  0  0  0  0  0  0  0
    4.4111    2.8505   18.2341 H   0  0  0  0  0  0  0  0  0  0  0  0
    4.8288    1.7473   20.4537 H   0  0  0  0  0  0  0  0  0  0  0  0
    6.6857    0.5713   21.8192 H   0  0  0  0  0  0  0  0  0  0  0  0
    7.8963   -0.3937   20.9876 H   0  0  0  0  0  0  0  0  0  0  0  0
    6.1017   -2.0937   20.4161 H   0  0  0  0  0  0  0  0  0  0  0  0
    5.0030   -1.1747   21.4378 H   0  0  0  0  0  0  0  0  0  0  0  0
    6.4196   -1.5041   23.3586 H   0  0  0  0  0  0  0  0  0  0  0  0
    7.6908   -2.1195   22.4192 H   0  0  0  0  0  0  0  0  0  0  0  0
    7.0863   -4.0703   23.9488 C   0  0  0  0  0  0  0  0  0  0  0  0
    7.0893   -3.5024   25.2330 C   0  0  0  0  0  0  0  0  0  0  0  0
    7.8753   -4.0133   26.2703 C   0  0  0  0  0  0  0  0  0  0  0  0
    8.6869   -5.1275   26.0467 C   0  0  0  0  0  0  0  0  0  0  0  0
    8.6744   -5.7446   24.7925 C   0  0  0  0  0  0  0  0  0  0  0  0
    7.8491   -5.2563   23.7614 C   0  0  0  0  0  0  0  0  0  0  0  0
    7.7563   -6.0475   22.4670 C   0  0  0  0  0  0  0  0  0  0  0  0
    8.2315   -5.3319   21.4238 F   0  0  0  0  0  0  0  0  0  0  0  0
    6.4874   -6.3968   22.1475 F   0  0  0  0  0  0  0  0  0  0  0  0
    8.4532   -7.1946   22.5140 F   0  0  0  0  0  0  0  0  0  0  0  0
    9.2987   -6.6245   24.6275 H   0  0  0  0  0  0  0  0  0  0  0  0
    9.3034   -5.5291   26.8512 H   0  0  0  0  0  0  0  0  0  0  0  0
    7.8297   -3.5408   27.2482 H   0  0  0  0  0  0  0  0  0  0  0  0
    6.4238   -2.6682   25.4532 H   0  0  0  0  0  0  0  0  0  0  0  0
    6.2474   -4.0998   21.9675 H   0  0  0  0  0  0  0  0  0  0  0  0
    4.6038   -2.7669   24.1812 H   0  0  0  0  0  0  0  0  0  0  0  0
    4.0888   -3.1102   22.5077 H   0  0  0  0  0  0  0  0  0  0  0  0
    4.3854   -4.4387   23.6218 H   0  0  0  0  0  0  0  0  0  0  0  0
  1  2  1  0
  2  3  1  0
  3  4  1  0
  4  5  1  0
  5  6  1  0
  6  7  2  0
  7  8  1  0
  8  9  2  0
  9 10  1  0
 10 11  2  0
 11 12  1  0
  9 13  1  0
  8 14  1  0
  7 15  1  0
  5 16  1  0
  5 17  1  0
  4 18  1  0
  4 19  1  0
  3 20  1  0
  3 21  1  0
  2 22  1  0
 22 23  2  0
 23 24  1  0
 24 25  2  0
 25 26  1  0
 26 27  2  0
 27 28  1  0
 28 29  1  0
 28 30  1  0
 28 31  1  0
 26 32  1  0
 25 33  1  0
 24 34  1  0
 23 35  1  0
  2 36  1  0
  1 37  1  0
  1 38  1  0
  1 39  1  0
 11  6  1  0
 27 22  1  0
M  CHG  1   3   1
M  END
>  <cnnaffinity>  (1) 
-4.9613

>  <filename>  (1) 
CC([NH2+]CCc1cccnc1)c1ccccc1C(F)(F)F

$$$$
