
     RDKit          3D

 33 34  0  0  0  0  0  0  0  0999 V2000
    8.2177   -0.3334   24.0933 C   0  0  0  0  0  0  0  0  0  0  0  0
    9.0533   -0.3584   22.8089 C   0  0  0  0  0  0  0  0  0  0  0  0
    8.3239    0.2253   21.6518 N   0  0  0  0  0  4  0  0  0  0  0  0
    7.3956   -0.7040   20.9907 C   0  0  0  0  0  0  0  0  0  0  0  0
    6.6667    0.0377   19.9122 C   0  0  0  0  0  0  0  0  0  0  0  0
    5.4346    0.6607   20.1583 C   0  0  0  0  0  0  0  0  0  0  0  0
    4.8024    1.3127   19.0997 C   0  0  0  0  0  0  0  0  0  0  0  0
    5.4048    1.2972   17.8358 C   0  0  0  0  0  0  0  0  0  0  0  0
    6.5686    0.6843   17.5788 N   0  0  0  0  0  0  0  0  0  0  0  0
    7.1756    0.0838   18.6058 C   0  0  0  0  0  0  0  0  0  0  0  0
    8.1112   -0.4209   18.3687 H   0  0  0  0  0  0  0  0  0  0  0  0
    4.9225    1.7851   16.9904 H   0  0  0  0  0  0  0  0  0  0  0  0
    3.8683    1.8468   19.2507 H   0  0  0  0  0  0  0  0  0  0  0  0
    4.9989    0.6359   21.1620 H   0  0  0  0  0  0  0  0  0  0  0  0
    6.6704   -1.1139   21.7080 H   0  0  0  0  0  0  0  0  0  0  0  0
    7.9439   -1.5608   20.5732 H   0  0  0  0  0  0  0  0  0  0  0  0
    9.0074    0.5971   20.9498 H   0  0  0  0  0  0  0  0  0  0  0  0
    7.7812    1.0597   21.9972 H   0  0  0  0  0  0  0  0  0  0  0  0
   10.4284    0.2709   22.9676 C   0  0  0  0  0  0  0  0  0  0  0  0
   11.5561   -0.5739   22.9427 C   0  0  0  0  0  0  0  0  0  0  0  0
   12.8487   -0.0853   23.1354 C   0  0  0  0  0  0  0  0  0  0  0  0
   13.0461    1.2756   23.3745 C   0  0  0  0  0  0  0  0  0  0  0  0
   11.9502    2.1392   23.4194 C   0  0  0  0  0  0  0  0  0  0  0  0
   10.6652    1.6322   23.2182 C   0  0  0  0  0  0  0  0  0  0  0  0
    9.3495    2.7784   23.2893 Cl  0  0  0  0  0  0  0  0  0  0  0  0
   12.0696    3.2037   23.5927 H   0  0  0  0  0  0  0  0  0  0  0  0
   14.0467    1.6701   23.5166 H   0  0  0  0  0  0  0  0  0  0  0  0
   13.6996   -0.7620   23.0952 H   0  0  0  0  0  0  0  0  0  0  0  0
   11.4033   -1.6377   22.7736 H   0  0  0  0  0  0  0  0  0  0  0  0
    9.2349   -1.4089   22.5661 H   0  0  0  0  0  0  0  0  0  0  0  0
    7.9631    0.6898   24.3768 H   0  0  0  0  0  0  0  0  0  0  0  0
    8.7975   -0.7743   24.9052 H   0  0  0  0  0  0  0  0  0  0  0  0
    7.2927   -0.9140   23.9807 H   0  0  0  0  0  0  0  0  0  0  0  0
  1  2  1  0
  2  3  1  0
  3  4  1  0
  4  5  1  0
  5  6  2  0
  6  7  1  0
  7  8  2  0
  8  9  1  0
  9 10  2  0
 10 11  1  0
  8 12  1  0
  7 13  1  0
  6 14  1  0
  4 15  1  0
  4 16  1  0
  3 17  1  0
  3 18  1  0
  2 19  1  0
 19 20  2  0
 20 21  1  0
 21 22  2  0
 22 23  1  0
 23 24  2  0
 24 25  1  0
 23 26  1  0
 22 27  1  0
 21 28  1  0
 20 29  1  0
  2 30  1  0
  1 31  1  0
  1 32  1  0
  1 33  1  0
 10  5  1  0
 24 19  1  0
M  CHG  1   3   1
M  END
>  <cnnaffinity>  (1) 
-4.98231

>  <filename>  (1) 
CC([NH2+]Cc1cccnc1)c1ccccc1Cl

$$$$
