
     RDKit          3D

 39 41  0  0  0  0  0  0  0  0999 V2000
    7.2032   -2.1658   21.0480 C   0  0  0  0  0  0  0  0  0  0  0  0
    7.0890   -0.6502   21.2460 C   0  0  0  0  0  0  0  0  0  0  0  0
    8.4113   -0.0374   21.5218 N   0  0  0  0  0  4  0  0  0  0  0  0
    9.1926   -0.5122   22.6850 C   0  0  0  0  0  0  0  0  0  0  0  0
   10.5108    0.2091   22.6839 C   0  0  0  0  0  0  0  0  0  0  0  0
   11.7195   -0.4705   22.2767 C   0  0  0  0  0  0  0  0  0  0  0  0
   12.9425    0.1429   22.2697 C   0  0  0  0  0  0  0  0  0  0  0  0
   13.0306    1.5623   22.6947 C   0  0  0  0  0  0  0  0  0  0  0  0
   14.1049    2.3921   22.7449 C   0  0  0  0  0  0  0  0  0  0  0  0
   13.4276    4.4667   23.5245 C   0  0  0  0  0  0  0  0  0  0  0  0
   13.3394    4.0296   23.5518 C   0  0  0  0  0  0  0  0  0  0  0  0
   11.9980    3.6413   23.5722 C   0  0  0  0  0  0  0  0  0  0  0  0
   11.8078    2.2406   23.1509 C   0  0  0  0  0  0  0  0  0  0  0  0
   10.5888    1.5445   23.1074 C   0  0  0  0  0  0  0  0  0  0  0  0
    9.6908    2.0760   23.4269 H   0  0  0  0  0  0  0  0  0  0  0  0
   11.4599    4.0622   24.3789 H   0  0  0  0  0  0  0  0  0  0  0  0
   13.3539    5.5312   23.8076 H   0  0  0  0  0  0  0  0  0  0  0  0
   14.0473    4.5788   22.5430 H   0  0  0  0  0  0  0  0  0  0  0  0
   15.1357    2.2041   22.4645 H   0  0  0  0  0  0  0  0  0  0  0  0
   13.8282   -0.4126   21.9356 H   0  0  0  0  0  0  0  0  0  0  0  0
   11.6476   -1.5164   21.9694 H   0  0  0  0  0  0  0  0  0  0  0  0
    8.6570   -0.3275   23.6286 H   0  0  0  0  0  0  0  0  0  0  0  0
    9.3668   -1.5937   22.6325 H   0  0  0  0  0  0  0  0  0  0  0  0
    8.2771    1.0016   21.6086 H   0  0  0  0  0  0  0  0  0  0  0  0
    8.9983   -0.1723   20.6638 H   0  0  0  0  0  0  0  0  0  0  0  0
    6.5561    0.0977   20.0550 C   0  0  0  0  0  0  0  0  0  0  0  0
    5.3481    0.8055   20.1304 C   0  0  0  0  0  0  0  0  0  0  0  0
    4.8631    1.4385   18.9859 C   0  0  0  0  0  0  0  0  0  0  0  0
    5.6052    1.3445   17.8053 C   0  0  0  0  0  0  0  0  0  0  0  0
    6.7635    0.6779   17.7141 N   0  0  0  0  0  0  0  0  0  0  0  0
    7.2245    0.0833   18.8235 C   0  0  0  0  0  0  0  0  0  0  0  0
    8.1697   -0.4486   18.7008 H   0  0  0  0  0  0  0  0  0  0  0  0
    5.2524    1.8195   16.8910 H   0  0  0  0  0  0  0  0  0  0  0  0
    3.9380    2.0042   18.9952 H   0  0  0  0  0  0  0  0  0  0  0  0
    4.8091    0.8581   21.0794 H   0  0  0  0  0  0  0  0  0  0  0  0
    6.4152   -0.4612   22.0908 H   0  0  0  0  0  0  0  0  0  0  0  0
    8.1539   -2.4159   20.5700 H   0  0  0  0  0  0  0  0  0  0  0  0
    6.3956   -2.5422   20.4186 H   0  0  0  0  0  0  0  0  0  0  0  0
    7.1726   -2.6884   22.0111 H   0  0  0  0  0  0  0  0  0  0  0  0
  1  2  1  0
  2  3  1  0
  3  4  1  0
  4  5  1  0
  5  6  2  0
  6  7  1  0
  7  8  2  0
  8  9  1  0
  9 10  2  0
 10 11  1  0
 11 12  2  0
 12 13  1  0
 13 14  2  0
 14 15  1  0
 12 16  1  0
 11 17  1  0
 10 18  1  0
  9 19  1  0
  7 20  1  0
  6 21  1  0
  4 22  1  0
  4 23  1  0
  3 24  1  0
  3 25  1  0
  2 26  1  0
 26 27  2  0
 27 28  1  0
 28 29  2  0
 29 30  1  0
 30 31  2  0
 31 32  1  0
 29 33  1  0
 28 34  1  0
 27 35  1  0
  2 36  1  0
  1 37  1  0
  1 38  1  0
  1 39  1  0
 14  5  1  0
 31 26  1  0
 13  8  1  0
M  CHG  1   3   1
M  END
>  <cnnaffinity>  (1) 
-5.18993

>  <filename>  (1) 
CC([NH2+]Cc1ccc2ccccc2c1)c1cccnc1

$$$$
