
     RDKit          3D

 43 45  0  0  0  0  0  0  0  0999 V2000
    8.5836   -4.0615   24.3742 C   0  0  0  0  0  0  0  0  0  0  0  0
    7.4087   -3.1994   24.8334 C   0  0  0  0  0  0  0  0  0  0  0  0
    6.9500   -2.2708   23.6895 N   0  0  0  0  0  4  0  0  0  0  0  0
    7.9275   -1.1821   23.2668 C   0  0  0  0  0  0  0  0  0  0  0  0
    7.4280   -0.1475   22.2381 C   0  0  0  0  0  0  0  0  0  0  0  0
    7.1330    0.9828   22.5604 O   0  0  0  0  0  0  0  0  0  0  0  0
    7.3627   -0.6242   20.9450 N   0  0  0  0  0  0  0  0  0  0  0  0
    6.6713    0.0094   19.8753 C   0  0  0  0  0  0  0  0  0  0  0  0
    5.4559    0.6549   20.1321 C   0  0  0  0  0  0  0  0  0  0  0  0
    4.8017    1.3046   19.0821 C   0  0  0  0  0  0  0  0  0  0  0  0
    5.3966    1.2922   17.8158 C   0  0  0  0  0  0  0  0  0  0  0  0
    6.5560    0.6674   17.5487 N   0  0  0  0  0  0  0  0  0  0  0  0
    7.1763    0.0420   18.5565 C   0  0  0  0  0  0  0  0  0  0  0  0
    8.1297   -0.4372   18.3299 H   0  0  0  0  0  0  0  0  0  0  0  0
    4.9325    1.8112   16.9817 H   0  0  0  0  0  0  0  0  0  0  0  0
    3.8687    1.8418   19.2412 H   0  0  0  0  0  0  0  0  0  0  0  0
    5.0567    0.6606   21.1446 H   0  0  0  0  0  0  0  0  0  0  0  0
    7.8831   -1.4639   20.7552 H   0  0  0  0  0  0  0  0  0  0  0  0
    8.8343   -1.6279   22.8441 H   0  0  0  0  0  0  0  0  0  0  0  0
    8.2487   -0.5584   24.1057 H   0  0  0  0  0  0  0  0  0  0  0  0
    6.0112   -1.8859   23.9880 H   0  0  0  0  0  0  0  0  0  0  0  0
    6.7287   -2.9648   22.9204 H   0  0  0  0  0  0  0  0  0  0  0  0
    6.1636   -3.9517   25.2442 C   0  0  0  0  0  0  0  0  0  0  0  0
    5.8491   -5.1740   24.6785 C   0  0  0  0  0  0  0  0  0  0  0  0
    4.7544   -5.9513   25.1330 C   0  0  0  0  0  0  0  0  0  0  0  0
    3.9563   -5.4904   26.1492 C   0  0  0  0  0  0  0  0  0  0  0  0
    4.1881   -4.2053   26.7266 C   0  0  0  0  0  0  0  0  0  0  0  0
    3.3492   -3.7069   27.7668 C   0  0  0  0  0  0  0  0  0  0  0  0
    3.5429   -2.4566   28.3008 C   0  0  0  0  0  0  0  0  0  0  0  0
    4.5925   -1.6360   27.8168 C   0  0  0  0  0  0  0  0  0  0  0  0
    5.4273   -2.0950   26.8239 C   0  0  0  0  0  0  0  0  0  0  0  0
    5.2797   -3.4021   26.2560 C   0  0  0  0  0  0  0  0  0  0  0  0
    6.2172   -1.4390   26.4720 H   0  0  0  0  0  0  0  0  0  0  0  0
    4.7350   -0.6465   28.2438 H   0  0  0  0  0  0  0  0  0  0  0  0
    2.8943   -2.0865   29.0875 H   0  0  0  0  0  0  0  0  0  0  0  0
    2.5470   -4.3419   28.1336 H   0  0  0  0  0  0  0  0  0  0  0  0
    3.1372   -6.0908   26.5358 H   0  0  0  0  0  0  0  0  0  0  0  0
    4.5763   -6.9232   24.6829 H   0  0  0  0  0  0  0  0  0  0  0  0
    6.4604   -5.5811   23.8790 H   0  0  0  0  0  0  0  0  0  0  0  0
    7.7412   -2.5760   25.6662 H   0  0  0  0  0  0  0  0  0  0  0  0
    9.4964   -3.4651   24.3013 H   0  0  0  0  0  0  0  0  0  0  0  0
    8.7551   -4.8615   25.0962 H   0  0  0  0  0  0  0  0  0  0  0  0
    8.4046   -4.5083   23.3895 H   0  0  0  0  0  0  0  0  0  0  0  0
  1  2  1  0
  2  3  1  0
  3  4  1  0
  4  5  1  0
  5  6  2  0
  5  7  1  0
  7  8  1  0
  8  9  2  0
  9 10  1  0
 10 11  2  0
 11 12  1  0
 12 13  2  0
 13 14  1  0
 11 15  1  0
 10 16  1  0
  9 17  1  0
  7 18  1  0
  4 19  1  0
  4 20  1  0
  3 21  1  0
  3 22  1  0
  2 23  1  0
 23 24  2  0
 24 25  1  0
 25 26  2  0
 26 27  1  0
 27 28  2  0
 28 29  1  0
 29 30  2  0
 30 31  1  0
 31 32  2  0
 31 33  1  0
 30 34  1  0
 29 35  1  0
 28 36  1  0
 26 37  1  0
 25 38  1  0
 24 39  1  0
  2 40  1  0
  1 41  1  0
  1 42  1  0
  1 43  1  0
 13  8  1  0
 32 23  1  0
 32 27  1  0
M  CHG  1   3   1
M  END
>  <cnnaffinity>  (1) 
-5.79181

>  <filename>  (1) 
CC([NH2+]CC(=O)Nc1cccnc1)c1cccc2ccccc12

$$$$
