
     RDKit          3D

 43 45  0  0  0  0  0  0  0  0999 V2000
    8.7576    0.0255   21.2984 C   0  0  0  0  0  0  0  0  0  0  0  0
    7.4121   -0.6262   21.0213 C   0  0  0  0  0  0  0  0  0  0  0  0
    7.5825   -2.0949   20.6545 N   0  0  0  0  0  4  0  0  0  0  0  0
    7.8379   -3.0219   21.8438 C   0  0  0  0  0  0  0  0  0  0  0  0
    6.6448   -3.2066   22.8186 C   0  0  0  0  0  0  0  0  0  0  0  0
    5.7461   -3.9782   22.5449 O   0  0  0  0  0  0  0  0  0  0  0  0
    6.6924   -2.4671   23.9778 N   0  0  0  0  0  0  0  0  0  0  0  0
    5.6401   -2.4407   24.9328 C   0  0  0  0  0  0  0  0  0  0  0  0
    5.1550   -3.6506   25.3795 C   0  0  0  0  0  0  0  0  0  0  0  0
    4.1122   -3.7179   26.3354 C   0  0  0  0  0  0  0  0  0  0  0  0
    3.5469   -2.5623   26.8159 C   0  0  0  0  0  0  0  0  0  0  0  0
    4.0049   -1.2819   26.3700 C   0  0  0  0  0  0  0  0  0  0  0  0
    3.4054   -0.0775   26.8522 C   0  0  0  0  0  0  0  0  0  0  0  0
    3.8245    1.1531   26.4092 C   0  0  0  0  0  0  0  0  0  0  0  0
    4.8662    1.2459   25.4548 C   0  0  0  0  0  0  0  0  0  0  0  0
    5.4717    0.1041   24.9719 C   0  0  0  0  0  0  0  0  0  0  0  0
    5.0739   -1.2006   25.4140 C   0  0  0  0  0  0  0  0  0  0  0  0
    6.2543    0.2083   24.2304 H   0  0  0  0  0  0  0  0  0  0  0  0
    5.1872    2.2238   25.1076 H   0  0  0  0  0  0  0  0  0  0  0  0
    3.3639    2.0613   26.7919 H   0  0  0  0  0  0  0  0  0  0  0  0
    2.6048   -0.1585   27.5823 H   0  0  0  0  0  0  0  0  0  0  0  0
    2.7331   -2.6039   27.5343 H   0  0  0  0  0  0  0  0  0  0  0  0
    3.7614   -4.6965   26.6671 H   0  0  0  0  0  0  0  0  0  0  0  0
    5.5873   -4.5558   24.9736 H   0  0  0  0  0  0  0  0  0  0  0  0
    7.4380   -1.8020   24.0980 H   0  0  0  0  0  0  0  0  0  0  0  0
    8.0839   -4.0304   21.5182 H   0  0  0  0  0  0  0  0  0  0  0  0
    8.6870   -2.6564   22.4245 H   0  0  0  0  0  0  0  0  0  0  0  0
    8.3192   -2.0934   19.9023 H   0  0  0  0  0  0  0  0  0  0  0  0
    6.6919   -2.3625   20.1618 H   0  0  0  0  0  0  0  0  0  0  0  0
    6.6468   -0.0033   19.8958 C   0  0  0  0  0  0  0  0  0  0  0  0
    5.4286    0.6452   20.1322 C   0  0  0  0  0  0  0  0  0  0  0  0
    4.7920    1.3052   19.0807 C   0  0  0  0  0  0  0  0  0  0  0  0
    5.3978    1.2815   17.8211 C   0  0  0  0  0  0  0  0  0  0  0  0
    6.5511    0.6462   17.5710 N   0  0  0  0  0  0  0  0  0  0  0  0
    7.1587    0.0278   18.5914 C   0  0  0  0  0  0  0  0  0  0  0  0
    8.1143   -0.4386   18.3399 H   0  0  0  0  0  0  0  0  0  0  0  0
    4.9471    1.8059   16.9788 H   0  0  0  0  0  0  0  0  0  0  0  0
    3.8676    1.8567   19.2245 H   0  0  0  0  0  0  0  0  0  0  0  0
    4.9980    0.6405   21.1349 H   0  0  0  0  0  0  0  0  0  0  0  0
    6.7922   -0.6134   21.9244 H   0  0  0  0  0  0  0  0  0  0  0  0
    9.2119   -0.3905   22.2001 H   0  0  0  0  0  0  0  0  0  0  0  0
    8.6287    1.0973   21.4385 H   0  0  0  0  0  0  0  0  0  0  0  0
    9.4501   -0.1370   20.4657 H   0  0  0  0  0  0  0  0  0  0  0  0
  1  2  1  0
  2  3  1  0
  3  4  1  0
  4  5  1  0
  5  6  2  0
  5  7  1  0
  7  8  1  0
  8  9  2  0
  9 10  1  0
 10 11  2  0
 11 12  1  0
 12 13  2  0
 13 14  1  0
 14 15  2  0
 15 16  1  0
 16 17  2  0
 16 18  1  0
 15 19  1  0
 14 20  1  0
 13 21  1  0
 11 22  1  0
 10 23  1  0
  9 24  1  0
  7 25  1  0
  4 26  1  0
  4 27  1  0
  3 28  1  0
  3 29  1  0
  2 30  1  0
 30 31  2  0
 31 32  1  0
 32 33  2  0
 33 34  1  0
 34 35  2  0
 35 36  1  0
 33 37  1  0
 32 38  1  0
 31 39  1  0
  2 40  1  0
  1 41  1  0
  1 42  1  0
  1 43  1  0
 17  8  1  0
 35 30  1  0
 17 12  1  0
M  CHG  1   3   1
M  END
>  <cnnaffinity>  (1) 
-4.70212

>  <filename>  (1) 
CC([NH2+]CC(=O)Nc1cccc2ccccc12)c1cccnc1

$$$$
