
     RDKit          3D

 39 41  0  0  0  0  0  0  0  0999 V2000
    8.4054    3.5538   22.5564 C   0  0  0  0  0  0  0  0  0  0  0  0
    8.9614    2.1290   22.5240 C   0  0  0  0  0  0  0  0  0  0  0  0
    8.9008    1.7758   21.0748 N   0  0  0  0  0  4  0  0  0  0  0  0
    9.5489    0.4970   20.7572 C   0  0  0  0  0  0  0  0  0  0  0  0
    8.6225   -0.4823   21.3726 C   0  0  0  0  0  0  0  0  0  0  0  0
    8.8766   -1.3518   22.3890 C   0  0  0  0  0  0  0  0  0  0  0  0
    7.6396   -1.9093   22.6813 N   0  0  0  0  0  0  0  0  0  0  0  0
    6.6369   -1.4394   21.8798 N   0  0  0  0  0  0  0  0  0  0  0  0
    7.2118   -0.5811   21.0719 C   0  0  0  0  0  0  0  0  0  0  0  0
    6.5836    0.1252   19.9760 C   0  0  0  0  0  0  0  0  0  0  0  0
    5.3239    0.7215   20.0861 C   0  0  0  0  0  0  0  0  0  0  0  0
    4.8092    1.3484   18.9551 C   0  0  0  0  0  0  0  0  0  0  0  0
    5.5464    1.3415   17.7659 C   0  0  0  0  0  0  0  0  0  0  0  0
    6.7554    0.7581   17.6686 N   0  0  0  0  0  0  0  0  0  0  0  0
    7.2677    0.1670   18.7583 C   0  0  0  0  0  0  0  0  0  0  0  0
    8.2394   -0.3152   18.6753 H   0  0  0  0  0  0  0  0  0  0  0  0
    5.1301    1.8424   16.8972 H   0  0  0  0  0  0  0  0  0  0  0  0
    3.8487    1.8514   18.9818 H   0  0  0  0  0  0  0  0  0  0  0  0
    4.7633    0.7023   21.0215 H   0  0  0  0  0  0  0  0  0  0  0  0
    7.4878   -2.5853   23.4326 H   0  0  0  0  0  0  0  0  0  0  0  0
    9.8271   -1.5376   22.8899 H   0  0  0  0  0  0  0  0  0  0  0  0
   10.5513    0.4317   21.2032 H   0  0  0  0  0  0  0  0  0  0  0  0
    9.6321    0.3166   19.6779 H   0  0  0  0  0  0  0  0  0  0  0  0
    9.3242    2.5395   20.5461 H   0  0  0  0  0  0  0  0  0  0  0  0
    7.9181    1.6926   20.8021 H   0  0  0  0  0  0  0  0  0  0  0  0
   10.3367    1.9759   23.2086 C   0  0  0  0  0  0  0  0  0  0  0  0
   10.5337    0.9583   24.1655 C   0  0  0  0  0  0  0  0  0  0  0  0
   11.8234    0.6831   24.6261 C   0  0  0  0  0  0  0  0  0  0  0  0
   12.8728    1.4705   24.1432 C   0  0  0  0  0  0  0  0  0  0  0  0
   12.6061    2.5307   23.2722 C   0  0  0  0  0  0  0  0  0  0  0  0
   13.9898    3.7263   22.7083 Br  0  0  0  0  0  0  0  0  0  0  0  0
   11.3668    2.7545   22.8189 N   0  0  0  0  0  0  0  0  0  0  0  0
   13.8929    1.2814   24.4474 H   0  0  0  0  0  0  0  0  0  0  0  0
   12.0025   -0.1159   25.3463 H   0  0  0  0  0  0  0  0  0  0  0  0
    9.6903    0.3816   24.5432 H   0  0  0  0  0  0  0  0  0  0  0  0
    8.2891    1.4639   23.0740 H   0  0  0  0  0  0  0  0  0  0  0  0
    7.9869    3.7752   23.5429 H   0  0  0  0  0  0  0  0  0  0  0  0
    9.1985    4.2768   22.3320 H   0  0  0  0  0  0  0  0  0  0  0  0
    7.6111    3.6687   21.8045 H   0  0  0  0  0  0  0  0  0  0  0  0
  1  2  1  0
  2  3  1  0
  3  4  1  0
  4  5  1  0
  5  6  2  0
  6  7  1  0
  7  8  1  0
  8  9  2  0
  9 10  1  0
 10 11  2  0
 11 12  1  0
 12 13  2  0
 13 14  1  0
 14 15  2  0
 15 16  1  0
 13 17  1  0
 12 18  1  0
 11 19  1  0
  7 20  1  0
  6 21  1  0
  4 22  1  0
  4 23  1  0
  3 24  1  0
  3 25  1  0
  2 26  1  0
 26 27  2  0
 27 28  1  0
 28 29  2  0
 29 30  1  0
 30 31  1  0
 30 32  2  0
 29 33  1  0
 28 34  1  0
 27 35  1  0
  2 36  1  0
  1 37  1  0
  1 38  1  0
  1 39  1  0
  9  5  1  0
 15 10  1  0
 32 26  1  0
M  CHG  1   3   1
M  END
>  <cnnaffinity>  (1) 
-5.58106

>  <filename>  (1) 
CC([NH2+]Cc1c[nH]nc1-c1cccnc1)c1cccc(Br)n1

$$$$
