
     RDKit          3D

 40 41  0  0  0  0  0  0  0  0999 V2000
    8.9920   -3.0575   21.8236 C   0  0  0  0  0  0  0  0  0  0  0  0
    9.3435   -1.6020   22.1490 C   0  0  0  0  0  0  0  0  0  0  0  0
   10.8984   -1.5569   22.1395 N   0  0  0  0  0  4  0  0  0  0  0  0
   11.2836   -1.8562   21.2212 H   0  0  0  0  0  0  0  0  0  0  0  0
   11.2214   -0.5832   22.2940 H   0  0  0  0  0  0  0  0  0  0  0  0
   11.3029   -2.1700   22.8771 H   0  0  0  0  0  0  0  0  0  0  0  0
    8.8965   -1.2727   23.5895 C   0  0  0  0  0  0  0  0  0  0  0  0
    9.1313    0.1784   24.0497 C   0  0  0  0  0  0  0  0  0  0  0  0
    8.4506    0.4460   25.3770 C   0  0  0  0  0  0  0  0  0  0  0  0
    7.1196    0.8891   25.4308 C   0  0  0  0  0  0  0  0  0  0  0  0
    6.4750    1.0852   26.6580 C   0  0  0  0  0  0  0  0  0  0  0  0
    7.1513    0.8177   27.8539 C   0  0  0  0  0  0  0  0  0  0  0  0
    8.4649    0.3421   27.8115 C   0  0  0  0  0  0  0  0  0  0  0  0
    9.1100    0.1701   26.5835 C   0  0  0  0  0  0  0  0  0  0  0  0
   10.1457   -0.1659   26.5609 H   0  0  0  0  0  0  0  0  0  0  0  0
    9.0064    0.1328   28.7333 H   0  0  0  0  0  0  0  0  0  0  0  0
    6.6704    0.9931   28.8147 H   0  0  0  0  0  0  0  0  0  0  0  0
    5.4474    1.4424   26.6764 H   0  0  0  0  0  0  0  0  0  0  0  0
    6.5873    1.0703   24.4975 H   0  0  0  0  0  0  0  0  0  0  0  0
    8.7556    0.8601   23.2729 H   0  0  0  0  0  0  0  0  0  0  0  0
   10.2077    0.3874   24.1402 H   0  0  0  0  0  0  0  0  0  0  0  0
    9.3938   -1.9702   24.2817 H   0  0  0  0  0  0  0  0  0  0  0  0
    7.8245   -1.5012   23.6873 H   0  0  0  0  0  0  0  0  0  0  0  0
    8.7141   -0.5794   21.0737 C   0  0  0  0  0  0  0  0  0  0  0  0
    9.3856    0.2089   20.4262 O   0  0  0  0  0  0  0  0  0  0  0  0
    7.3410   -0.6565   20.9141 N   0  0  0  0  0  0  0  0  0  0  0  0
    6.6303   -0.0049   19.8701 C   0  0  0  0  0  0  0  0  0  0  0  0
    5.4155    0.6341   20.1334 C   0  0  0  0  0  0  0  0  0  0  0  0
    4.7808    1.3118   19.0852 C   0  0  0  0  0  0  0  0  0  0  0  0
    5.3637    1.3108   17.8120 C   0  0  0  0  0  0  0  0  0  0  0  0
    6.5187    0.6816   17.5409 N   0  0  0  0  0  0  0  0  0  0  0  0
    7.1375    0.0572   18.5476 C   0  0  0  0  0  0  0  0  0  0  0  0
    8.0953   -0.4023   18.3219 H   0  0  0  0  0  0  0  0  0  0  0  0
    4.9064    1.8362   16.9795 H   0  0  0  0  0  0  0  0  0  0  0  0
    3.8571    1.8548   19.2477 H   0  0  0  0  0  0  0  0  0  0  0  0
    5.0172    0.6284   21.1486 H   0  0  0  0  0  0  0  0  0  0  0  0
    6.7963   -1.0767   21.6555 H   0  0  0  0  0  0  0  0  0  0  0  0
    9.4983   -3.7192   22.5373 H   0  0  0  0  0  0  0  0  0  0  0  0
    7.9210   -3.2809   21.8937 H   0  0  0  0  0  0  0  0  0  0  0  0
    9.3145   -3.2912   20.8074 H   0  0  0  0  0  0  0  0  0  0  0  0
  1  2  1  0
  2  3  1  0
  3  4  1  0
  3  5  1  0
  3  6  1  0
  2  7  1  0
  7  8  1  0
  8  9  1  0
  9 10  2  0
 10 11  1  0
 11 12  2  0
 12 13  1  0
 13 14  2  0
 14 15  1  0
 13 16  1  0
 12 17  1  0
 11 18  1  0
 10 19  1  0
  8 20  1  0
  8 21  1  0
  7 22  1  0
  7 23  1  0
  2 24  1  0
 24 25  2  0
 24 26  1  0
 26 27  1  0
 27 28  2  0
 28 29  1  0
 29 30  2  0
 30 31  1  0
 31 32  2  0
 32 33  1  0
 30 34  1  0
 29 35  1  0
 28 36  1  0
 26 37  1  0
  1 38  1  0
  1 39  1  0
  1 40  1  0
 14  9  1  0
 32 27  1  0
M  CHG  1   3   1
M  END
>  <cnnaffinity>  (1) 
-5.1535

>  <filename>  (1) 
CC([NH3+])(CCc1ccccc1)C(=O)Nc1cccnc1

$$$$
