
     RDKit          3D

 53 57  0  0  0  0  0  0  0  0999 V2000
   13.4593   -0.6352   22.3633 C   0  0  0  0  0  0  0  0  0  0  0  0
   12.0997    0.0853   22.3907 C   0  0  0  0  0  0  0  0  0  0  0  0
   11.2156   -0.4720   23.5124 C   0  0  0  0  0  0  0  0  0  0  0  0
   10.2612    0.0566   23.6108 H   0  0  0  0  0  0  0  0  0  0  0  0
   11.7303   -0.3957   24.4802 H   0  0  0  0  0  0  0  0  0  0  0  0
   10.9822   -1.5283   23.3372 H   0  0  0  0  0  0  0  0  0  0  0  0
   12.2417    1.6244   22.4590 C   0  0  2  0  0  0  0  0  0  0  0  0
   12.2711    2.3114   23.8333 C   0  0  0  0  0  0  0  0  0  0  0  0
   12.0033    3.7776   23.4766 C   0  0  0  0  0  0  0  0  0  0  0  0
   11.2833    3.7630   22.2467 O   0  0  0  0  0  0  0  0  0  0  0  0
   11.1599    2.4623   21.7034 C   0  0  2  0  0  0  0  0  0  0  0  0
    9.7587    1.8989   21.7677 C   0  0  0  0  0  0  0  0  0  0  0  0
    9.3070    1.0085   20.8934 N   0  0  0  0  0  0  0  0  0  0  0  0
    8.2250    0.4791   21.5220 C   0  0  0  0  0  0  0  0  0  0  0  0
    7.3978   -0.6045   20.8998 C   0  0  0  0  0  0  0  0  0  0  0  0
    6.5937   -0.0654   19.7287 C   0  0  0  0  0  0  0  0  0  0  0  0
    5.4163    0.6535   19.9691 C   0  0  0  0  0  0  0  0  0  0  0  0
    4.8024    1.3216   18.9091 C   0  0  0  0  0  0  0  0  0  0  0  0
    5.3913    1.2517   17.6434 C   0  0  0  0  0  0  0  0  0  0  0  0
    6.4984    0.5403   17.3807 N   0  0  0  0  0  0  0  0  0  0  0  0
    7.0710   -0.1015   18.4070 C   0  0  0  0  0  0  0  0  0  0  0  0
    7.9716   -0.6716   18.1706 H   0  0  0  0  0  0  0  0  0  0  0  0
    4.9598    1.7903   16.8022 H   0  0  0  0  0  0  0  0  0  0  0  0
    3.9019    1.9091   19.0518 H   0  0  0  0  0  0  0  0  0  0  0  0
    5.0015    0.6950   20.9783 H   0  0  0  0  0  0  0  0  0  0  0  0
    8.0733   -1.4060   20.5816 H   0  0  0  0  0  0  0  0  0  0  0  0
    6.7493   -0.9982   21.6875 H   0  0  0  0  0  0  0  0  0  0  0  0
    7.9636    0.9972   22.7041 N   0  0  0  0  0  0  0  0  0  0  0  0
    8.9155    1.9622   22.8400 N   0  0  0  0  0  0  0  0  0  0  0  0
    8.8125    2.9117   23.8993 C   0  0  0  0  0  0  0  0  0  0  0  0
    8.6605    2.5248   25.2329 C   0  0  0  0  0  0  0  0  0  0  0  0
    8.5723    3.4952   26.2549 C   0  0  0  0  0  0  0  0  0  0  0  0
    8.5840    4.8621   25.9631 C   0  0  0  0  0  0  0  0  0  0  0  0
    8.6687    5.2588   24.6143 C   0  0  0  0  0  0  0  0  0  0  0  0
    8.8058    4.2875   23.6112 C   0  0  0  0  0  0  0  0  0  0  0  0
    8.8279    4.9938   22.4280 N   0  0  0  0  0  0  0  0  0  0  0  0
    8.7501    6.3125   22.7631 C   0  0  0  0  0  0  0  0  0  0  0  0
    8.6389    6.5261   24.0468 N   0  0  0  0  0  0  0  0  0  0  0  0
    8.7688    7.0714   21.9880 H   0  0  0  0  0  0  0  0  0  0  0  0
    9.2677    4.6449   21.5910 H   0  0  0  0  0  0  0  0  0  0  0  0
    8.4968    5.6270   26.7248 H   0  0  0  0  0  0  0  0  0  0  0  0
    8.4621    3.1660   27.2860 H   0  0  0  0  0  0  0  0  0  0  0  0
    8.5757    1.4677   25.4801 H   0  0  0  0  0  0  0  0  0  0  0  0
   11.3827    2.5169   20.6316 H   0  0  0  0  0  0  0  0  0  0  0  0
   12.9183    4.3577   23.3109 H   0  0  0  0  0  0  0  0  0  0  0  0
   11.3993    4.3004   24.2250 H   0  0  0  0  0  0  0  0  0  0  0  0
   11.4776    1.9536   24.4997 H   0  0  0  0  0  0  0  0  0  0  0  0
   13.2273    2.1268   24.3332 H   0  0  0  0  0  0  0  0  0  0  0  0
   13.1856    1.9012   21.9763 H   0  0  0  0  0  0  0  0  0  0  0  0
   11.6027   -0.1438   21.4364 H   0  0  0  0  0  0  0  0  0  0  0  0
   14.0386   -0.4551   23.2771 H   0  0  0  0  0  0  0  0  0  0  0  0
   13.3142   -1.7204   22.2641 H   0  0  0  0  0  0  0  0  0  0  0  0
   14.0719   -0.2901   21.5223 H   0  0  0  0  0  0  0  0  0  0  0  0
  1  2  1  0
  2  3  1  0
  3  4  1  0
  3  5  1  0
  3  6  1  0
  2  7  1  0
  7  8  1  0
  8  9  1  0
  9 10  1  0
 10 11  1  0
 11 12  1  0
 12 13  2  0
 13 14  1  0
 14 15  1  0
 15 16  1  0
 16 17  2  0
 17 18  1  0
 18 19  2  0
 19 20  1  0
 20 21  2  0
 21 22  1  0
 19 23  1  0
 18 24  1  0
 17 25  1  0
 15 26  1  0
 15 27  1  0
 14 28  2  0
 28 29  1  0
 29 30  1  0
 30 31  2  0
 31 32  1  0
 32 33  2  0
 33 34  1  0
 34 35  2  0
 35 36  1  0
 36 37  1  0
 37 38  2  0
 37 39  1  0
 36 40  1  0
 33 41  1  0
 32 42  1  0
 31 43  1  0
 11 44  1  6
  9 45  1  0
  9 46  1  0
  8 47  1  0
  8 48  1  0
  7 49  1  6
  2 50  1  0
  1 51  1  0
  1 52  1  0
  1 53  1  0
 11  7  1  0
 29 12  1  0
 35 30  1  0
 21 16  1  0
 38 34  1  0
M  END
>  <cnnaffinity>  (1) 
-5.86308

>  <filename>  (1) 
CC(C)[C@@H]1CCO[C@@H]1c1nc(Cc2cccnc2)nn1-c1cccc2nc[nH]c12

$$$$
