
     RDKit          3D

 38 40  0  0  0  0  0  0  0  0999 V2000
    9.9364    0.8485   23.3989 C   0  0  0  0  0  0  0  0  0  0  0  0
    8.9839   -0.2634   22.9498 C   0  0  0  0  0  0  0  0  0  0  0  0
    9.7455   -1.5667   22.6680 C   0  0  0  0  0  0  0  0  0  0  0  0
   10.4436   -1.4324   21.8316 H   0  0  0  0  0  0  0  0  0  0  0  0
   10.2970   -1.8744   23.5589 H   0  0  0  0  0  0  0  0  0  0  0  0
    9.0405   -2.3638   22.4109 H   0  0  0  0  0  0  0  0  0  0  0  0
    8.3523    0.2227   21.6136 N   0  0  0  0  0  4  0  0  0  0  0  0
    7.4166   -0.7135   20.9647 C   0  0  0  0  0  0  0  0  0  0  0  0
    6.6648    0.0292   19.9017 C   0  0  0  0  0  0  0  0  0  0  0  0
    5.4421    0.6713   20.1429 C   0  0  0  0  0  0  0  0  0  0  0  0
    4.7983    1.3230   19.0882 C   0  0  0  0  0  0  0  0  0  0  0  0
    5.3983    1.3129   17.8259 C   0  0  0  0  0  0  0  0  0  0  0  0
    6.5676    0.7081   17.5801 N   0  0  0  0  0  0  0  0  0  0  0  0
    7.1760    0.0893   18.5971 C   0  0  0  0  0  0  0  0  0  0  0  0
    8.1188   -0.4002   18.3477 H   0  0  0  0  0  0  0  0  0  0  0  0
    4.9374    1.8144   16.9736 H   0  0  0  0  0  0  0  0  0  0  0  0
    3.8594    1.8465   19.2195 H   0  0  0  0  0  0  0  0  0  0  0  0
    4.9983    0.6562   21.1409 H   0  0  0  0  0  0  0  0  0  0  0  0
    6.7346   -1.1093   21.7225 H   0  0  0  0  0  0  0  0  0  0  0  0
    7.9365   -1.5796   20.5393 H   0  0  0  0  0  0  0  0  0  0  0  0
    7.8155    1.1086   21.7810 H   0  0  0  0  0  0  0  0  0  0  0  0
    9.1248    0.4778   20.9484 H   0  0  0  0  0  0  0  0  0  0  0  0
    7.9182   -0.5197   24.0456 C   0  0  0  0  0  0  0  0  0  0  0  0
    7.9238   -1.4106   24.9806 N   0  0  0  0  0  0  0  0  0  0  0  0
    6.7539   -1.1557   25.6935 C   0  0  0  0  0  0  0  0  0  0  0  0
    6.2238   -1.7976   26.8126 C   0  0  0  0  0  0  0  0  0  0  0  0
    5.0190   -1.3245   27.3307 C   0  0  0  0  0  0  0  0  0  0  0  0
    4.3593   -0.2302   26.7314 C   0  0  0  0  0  0  0  0  0  0  0  0
    4.8784    0.4220   25.6095 C   0  0  0  0  0  0  0  0  0  0  0  0
    6.0887   -0.0704   25.1194 C   0  0  0  0  0  0  0  0  0  0  0  0
    6.8510    0.3531   24.0629 O   0  0  0  0  0  0  0  0  0  0  0  0
    4.3651    1.2649   25.1593 H   0  0  0  0  0  0  0  0  0  0  0  0
    3.4250    0.1077   27.1678 H   0  0  0  0  0  0  0  0  0  0  0  0
    4.5940   -1.8055   28.2034 H   0  0  0  0  0  0  0  0  0  0  0  0
    6.7762   -2.6323   27.2257 H   0  0  0  0  0  0  0  0  0  0  0  0
   10.7296    0.9926   22.6551 H   0  0  0  0  0  0  0  0  0  0  0  0
    9.4115    1.7984   23.5505 H   0  0  0  0  0  0  0  0  0  0  0  0
   10.4116    0.5701   24.3473 H   0  0  0  0  0  0  0  0  0  0  0  0
  1  2  1  0
  2  3  1  0
  3  4  1  0
  3  5  1  0
  3  6  1  0
  2  7  1  0
  7  8  1  0
  8  9  1  0
  9 10  2  0
 10 11  1  0
 11 12  2  0
 12 13  1  0
 13 14  2  0
 14 15  1  0
 12 16  1  0
 11 17  1  0
 10 18  1  0
  8 19  1  0
  8 20  1  0
  7 21  1  0
  7 22  1  0
  2 23  1  0
 23 24  2  0
 24 25  1  0
 25 26  2  0
 26 27  1  0
 27 28  2  0
 28 29  1  0
 29 30  2  0
 30 31  1  0
 29 32  1  0
 28 33  1  0
 27 34  1  0
 26 35  1  0
  1 36  1  0
  1 37  1  0
  1 38  1  0
 14  9  1  0
 31 23  1  0
 30 25  1  0
M  CHG  1   7   1
M  END
>  <cnnaffinity>  (1) 
-5.0198

>  <filename>  (1) 
CC(C)([NH2+]Cc1cccnc1)c1nc2ccccc2o1

$$$$
