
     RDKit          3D

 44 46  0  0  0  0  0  0  0  0999 V2000
   12.4338   -1.7886   22.0008 C   0  0  0  0  0  0  0  0  0  0  0  0
   11.0216   -1.1976   22.1908 C   0  0  0  0  0  0  0  0  0  0  0  0
    9.9468   -2.3142   22.0934 C   0  0  0  0  0  0  0  0  0  0  0  0
    8.5843   -1.7373   21.9168 C   0  0  0  0  0  0  0  0  0  0  0  0
    8.2289   -1.2681   20.7363 N   0  0  0  0  0  0  0  0  0  0  0  0
    7.0532   -0.6452   20.9824 C   0  0  0  0  0  0  0  0  0  0  0  0
    6.3854    0.0841   19.9160 C   0  0  0  0  0  0  0  0  0  0  0  0
    5.1836    0.7974   20.0617 C   0  0  0  0  0  0  0  0  0  0  0  0
    4.6765    1.4362   18.9331 C   0  0  0  0  0  0  0  0  0  0  0  0
    5.3841    1.3550   17.7272 C   0  0  0  0  0  0  0  0  0  0  0  0
    6.5387    0.6864   17.5874 N   0  0  0  0  0  0  0  0  0  0  0  0
    7.0220    0.0732   18.6672 C   0  0  0  0  0  0  0  0  0  0  0  0
    7.9647   -0.4585   18.5421 H   0  0  0  0  0  0  0  0  0  0  0  0
    5.0079    1.8427   16.8325 H   0  0  0  0  0  0  0  0  0  0  0  0
    3.7486    1.9975   18.9669 H   0  0  0  0  0  0  0  0  0  0  0  0
    4.6742    0.8492   21.0265 H   0  0  0  0  0  0  0  0  0  0  0  0
    6.6413   -0.7294   22.2294 N   0  0  0  0  0  0  0  0  0  0  0  0
    7.6383   -1.4257   22.8377 N   0  0  0  0  0  0  0  0  0  0  0  0
    7.5191   -1.8204   24.2524 C   0  0  0  0  0  0  0  0  0  0  0  0
    6.5927   -3.0299   24.4285 C   0  0  0  0  0  0  0  0  0  0  0  0
    5.5784   -2.8186   24.0753 H   0  0  0  0  0  0  0  0  0  0  0  0
    6.5415   -3.3106   25.4874 H   0  0  0  0  0  0  0  0  0  0  0  0
    6.9792   -3.8927   23.8767 H   0  0  0  0  0  0  0  0  0  0  0  0
    7.1455   -0.6247   25.1299 C   0  0  0  0  0  0  0  0  0  0  0  0
    6.1868   -0.1951   24.8238 H   0  0  0  0  0  0  0  0  0  0  0  0
    7.9031    0.1624   25.0562 H   0  0  0  0  0  0  0  0  0  0  0  0
    7.0860   -0.9391   26.1780 H   0  0  0  0  0  0  0  0  0  0  0  0
    8.5130   -2.1459   24.5524 H   0  0  0  0  0  0  0  0  0  0  0  0
   10.1384   -2.8647   21.1747 H   0  0  0  0  0  0  0  0  0  0  0  0
   10.0026   -3.0366   22.9124 H   0  0  0  0  0  0  0  0  0  0  0  0
   10.8177   -0.3235   23.4204 C   0  0  0  0  0  0  0  0  0  0  0  0
   10.6571   -0.8603   24.7024 C   0  0  0  0  0  0  0  0  0  0  0  0
   10.4505   -0.0042   25.7899 C   0  0  0  0  0  0  0  0  0  0  0  0
   10.4141    1.3302   25.6789 N   0  0  0  0  0  0  0  0  0  0  0  0
   10.5767    1.8496   24.4552 C   0  0  0  0  0  0  0  0  0  0  0  0
   10.7626    1.0749   23.3087 C   0  0  0  0  0  0  0  0  0  0  0  0
   10.8049    1.5541   22.3334 H   0  0  0  0  0  0  0  0  0  0  0  0
   10.5571    2.9332   24.3884 H   0  0  0  0  0  0  0  0  0  0  0  0
   10.2811   -0.3784   26.7981 H   0  0  0  0  0  0  0  0  0  0  0  0
   10.6231   -1.9352   24.8463 H   0  0  0  0  0  0  0  0  0  0  0  0
   10.8455   -0.5344   21.3347 H   0  0  0  0  0  0  0  0  0  0  0  0
   12.6160   -1.9755   20.9349 H   0  0  0  0  0  0  0  0  0  0  0  0
   13.2294   -1.1207   22.3485 H   0  0  0  0  0  0  0  0  0  0  0  0
   12.5384   -2.7528   22.5106 H   0  0  0  0  0  0  0  0  0  0  0  0
  1  2  1  0
  2  3  1  0
  3  4  1  0
  4  5  2  0
  5  6  1  0
  6  7  1  0
  7  8  2  0
  8  9  1  0
  9 10  2  0
 10 11  1  0
 11 12  2  0
 12 13  1  0
 10 14  1  0
  9 15  1  0
  8 16  1  0
  6 17  2  0
 17 18  1  0
 18 19  1  0
 19 20  1  0
 20 21  1  0
 20 22  1  0
 20 23  1  0
 19 24  1  0
 24 25  1  0
 24 26  1  0
 24 27  1  0
 19 28  1  0
  3 29  1  0
  3 30  1  0
  2 31  1  0
 31 32  2  0
 32 33  1  0
 33 34  2  0
 34 35  1  0
 35 36  2  0
 36 37  1  0
 35 38  1  0
 33 39  1  0
 32 40  1  0
  2 41  1  0
  1 42  1  0
  1 43  1  0
  1 44  1  0
 18  4  1  0
 36 31  1  0
 12  7  1  0
M  END
>  <cnnaffinity>  (1) 
-6.02149

>  <filename>  (1) 
CC(Cc1nc(-c2cccnc2)nn1C(C)C)c1ccncc1

$$$$
