
     RDKit          3D

 36 38  0  0  0  0  0  0  0  0999 V2000
    4.9137    1.8578   17.0092 H   0  0  0  0  0  0  0  0  0  0  0  0
    5.3905    1.3046   17.8121 C   0  0  0  0  0  0  0  0  0  0  0  0
    6.5350    0.6761   17.5032 N   0  0  0  0  0  0  0  0  0  0  0  0
    7.1594    0.0132   18.4943 C   0  0  0  0  0  0  0  0  0  0  0  0
    8.0939   -0.4681   18.2229 H   0  0  0  0  0  0  0  0  0  0  0  0
    6.6866   -0.0543   19.8385 C   0  0  0  0  0  0  0  0  0  0  0  0
    7.3085   -0.6976   20.9098 N   0  0  0  0  0  0  0  0  0  0  0  0
    6.7057   -0.7032   21.7265 H   0  0  0  0  0  0  0  0  0  0  0  0
    8.7393   -0.6311   21.2859 C   0  0  0  0  0  0  0  0  0  0  0  0
    8.8141   -0.7214   22.8225 C   0  0  0  0  0  0  0  0  0  0  0  0
    9.5454   -1.7070   23.4968 C   0  0  0  0  0  0  0  0  0  0  0  0
   10.0911   -2.4582   22.9309 H   0  0  0  0  0  0  0  0  0  0  0  0
    9.6015   -1.7639   24.9054 C   0  0  0  0  0  0  0  0  0  0  0  0
   10.0759   -2.6261   25.3580 H   0  0  0  0  0  0  0  0  0  0  0  0
    9.0119   -0.7855   25.6920 C   0  0  0  0  0  0  0  0  0  0  0  0
    9.1069   -0.8094   26.7739 H   0  0  0  0  0  0  0  0  0  0  0  0
    8.2793    0.2202   25.0296 C   0  0  0  0  0  0  0  0  0  0  0  0
    8.1374    0.2524   23.6205 C   0  0  0  0  0  0  0  0  0  0  0  0
    7.2401    1.3574   23.3461 C   0  0  0  0  0  0  0  0  0  0  0  0
    6.8650    1.6617   22.3762 H   0  0  0  0  0  0  0  0  0  0  0  0
    6.9041    1.9323   24.5375 C   0  0  0  0  0  0  0  0  0  0  0  0
    6.2246    2.7523   24.7563 H   0  0  0  0  0  0  0  0  0  0  0  0
    7.5442    1.2527   25.5513 N   0  0  0  0  0  0  0  0  0  0  0  0
    7.4572    1.4234   26.5389 H   0  0  0  0  0  0  0  0  0  0  0  0
    9.4074   -1.8367   20.6159 C   0  0  0  0  0  0  0  0  0  0  0  0
   10.4650   -1.8958   20.8919 H   0  0  0  0  0  0  0  0  0  0  0  0
    9.3350   -1.7249   19.5331 H   0  0  0  0  0  0  0  0  0  0  0  0
    8.9081   -2.7612   20.9258 H   0  0  0  0  0  0  0  0  0  0  0  0
    9.4372    0.6620   20.7954 C   0  0  0  0  0  0  0  0  0  0  0  0
    9.4557    0.6998   19.7033 H   0  0  0  0  0  0  0  0  0  0  0  0
    8.9259    1.5599   21.1581 H   0  0  0  0  0  0  0  0  0  0  0  0
   10.4688    0.6841   21.1613 H   0  0  0  0  0  0  0  0  0  0  0  0
    5.4566    0.5623   20.1064 C   0  0  0  0  0  0  0  0  0  0  0  0
    5.0496    0.5071   21.1217 H   0  0  0  0  0  0  0  0  0  0  0  0
    4.8128    1.2614   19.0862 C   0  0  0  0  0  0  0  0  0  0  0  0
    3.8815    1.7812   19.2719 H   0  0  0  0  0  0  0  0  0  0  0  0
  1  2  1  0
  2  3  2  0
  3  4  1  0
  4  5  1  0
  4  6  2  0
  6  7  1  0
  7  8  1  0
  7  9  1  0
  9 10  1  0
 10 11  2  0
 11 12  1  0
 11 13  1  0
 13 14  1  0
 13 15  2  0
 15 16  1  0
 15 17  1  0
 17 18  2  0
 18 19  1  0
 19 20  1  0
 19 21  2  0
 21 22  1  0
 21 23  1  0
 23 24  1  0
  9 25  1  0
 25 26  1  0
 25 27  1  0
 25 28  1  0
  9 29  1  0
 29 30  1  0
 29 31  1  0
 29 32  1  0
  6 33  1  0
 33 34  1  0
 33 35  2  0
 35 36  1  0
 35  2  1  0
 18 10  1  0
 23 17  1  0
M  END
>  <cnnaffinity>  (1) 
-4.76761

>  <filename>  (1) 
CC(C)(Nc1cccnc1)c1cccc2[nH]ccc12

$$$$
