
     RDKit          3D

 41 43  0  0  0  0  0  0  0  0999 V2000
    8.8226   -1.1273   20.7466 C   0  0  0  0  0  0  0  0  0  0  0  0
    7.3584   -0.7271   21.0745 C   0  0  0  0  0  0  0  0  0  0  0  0
    6.5453   -2.0230   21.3138 C   0  0  0  0  0  0  0  0  0  0  0  0
    5.5098   -1.8022   21.5927 H   0  0  0  0  0  0  0  0  0  0  0  0
    6.5196   -2.6254   20.3979 H   0  0  0  0  0  0  0  0  0  0  0  0
    6.9887   -2.6224   22.1143 H   0  0  0  0  0  0  0  0  0  0  0  0
    7.3941    0.1401   22.3982 C   0  0  0  0  0  0  0  0  0  0  0  0
    6.9574   -0.2309   23.4741 O   0  0  0  0  0  0  0  0  0  0  0  0
    8.0658    1.3386   22.2656 N   0  0  0  0  0  0  0  0  0  0  0  0
    8.3428    2.2305   23.2987 C   0  0  0  0  0  0  0  0  0  0  0  0
    8.5717    3.5782   23.2629 C   0  0  0  0  0  0  0  0  0  0  0  0
    8.8715    3.9195   24.6086 C   0  0  0  0  0  0  0  0  0  0  0  0
    9.2098    5.2631   25.1616 C   0  0  0  0  0  0  0  0  0  0  0  0
    9.2354    6.3945   24.3290 C   0  0  0  0  0  0  0  0  0  0  0  0
    9.5272    7.6539   24.8501 C   0  0  0  0  0  0  0  0  0  0  0  0
    9.8511    7.8053   26.2024 C   0  0  0  0  0  0  0  0  0  0  0  0
    9.8286    6.6875   27.0444 C   0  0  0  0  0  0  0  0  0  0  0  0
    9.4966    5.4331   26.5297 C   0  0  0  0  0  0  0  0  0  0  0  0
    9.4361    4.5565   27.1614 H   0  0  0  0  0  0  0  0  0  0  0  0
   10.0493    6.7977   28.1028 H   0  0  0  0  0  0  0  0  0  0  0  0
   10.1054    8.7864   26.5945 H   0  0  0  0  0  0  0  0  0  0  0  0
    9.4657    8.5133   24.1919 H   0  0  0  0  0  0  0  0  0  0  0  0
    9.0165    6.2885   23.2693 H   0  0  0  0  0  0  0  0  0  0  0  0
    8.8216    2.8426   25.3953 N   0  0  0  0  0  0  0  0  0  0  0  0
    8.5069    1.8238   24.5730 N   0  0  0  0  0  0  0  0  0  0  0  0
    8.2827    0.8797   24.8735 H   0  0  0  0  0  0  0  0  0  0  0  0
    8.5325    4.2191   22.3926 H   0  0  0  0  0  0  0  0  0  0  0  0
    8.1327    1.7038   21.3297 H   0  0  0  0  0  0  0  0  0  0  0  0
    6.6834    0.0282   19.9010 C   0  0  0  0  0  0  0  0  0  0  0  0
    5.4518    0.6609   20.1334 C   0  0  0  0  0  0  0  0  0  0  0  0
    4.8046    1.3136   19.0808 C   0  0  0  0  0  0  0  0  0  0  0  0
    5.3929    1.2961   17.8115 C   0  0  0  0  0  0  0  0  0  0  0  0
    6.5493    0.6734   17.5508 N   0  0  0  0  0  0  0  0  0  0  0  0
    7.1683    0.0643   18.5747 C   0  0  0  0  0  0  0  0  0  0  0  0
    8.1126   -0.4105   18.3129 H   0  0  0  0  0  0  0  0  0  0  0  0
    4.9215    1.8068   16.9719 H   0  0  0  0  0  0  0  0  0  0  0  0
    3.8715    1.8416   19.2343 H   0  0  0  0  0  0  0  0  0  0  0  0
    5.0207    0.6386   21.1385 H   0  0  0  0  0  0  0  0  0  0  0  0
    9.4435   -0.2796   20.4344 H   0  0  0  0  0  0  0  0  0  0  0  0
    8.8603   -1.8582   19.9395 H   0  0  0  0  0  0  0  0  0  0  0  0
    9.2872   -1.5946   21.6199 H   0  0  0  0  0  0  0  0  0  0  0  0
  1  2  1  0
  2  3  1  0
  3  4  1  0
  3  5  1  0
  3  6  1  0
  2  7  1  0
  7  8  2  0
  7  9  1  0
  9 10  1  0
 10 11  2  0
 11 12  1  0
 12 13  1  0
 13 14  2  0
 14 15  1  0
 15 16  2  0
 16 17  1  0
 17 18  2  0
 18 19  1  0
 17 20  1  0
 16 21  1  0
 15 22  1  0
 14 23  1  0
 12 24  2  0
 24 25  1  0
 25 26  1  0
 11 27  1  0
  9 28  1  0
  2 29  1  0
 29 30  2  0
 30 31  1  0
 31 32  2  0
 32 33  1  0
 33 34  2  0
 34 35  1  0
 32 36  1  0
 31 37  1  0
 30 38  1  0
  1 39  1  0
  1 40  1  0
  1 41  1  0
 25 10  1  0
 34 29  1  0
 18 13  1  0
M  END
>  <cnnaffinity>  (1) 
-4.95433

>  <filename>  (1) 
CC(C)(C(=O)Nc1cc(-c2ccccc2)n[nH]1)c1cccnc1

$$$$
