
     RDKit          3D

 42 44  0  0  0  0  0  0  0  0999 V2000
    7.8594    0.6001   22.1674 C   0  0  0  0  0  0  0  0  0  0  0  0
    7.4234   -0.5708   21.2614 C   0  0  0  0  0  0  0  0  0  0  0  0
    8.7056   -1.3329   20.8557 C   0  0  0  0  0  0  0  0  0  0  0  0
    9.2485   -1.6636   21.7464 H   0  0  0  0  0  0  0  0  0  0  0  0
    9.3802   -0.7027   20.2663 H   0  0  0  0  0  0  0  0  0  0  0  0
    8.4520   -2.2185   20.2798 H   0  0  0  0  0  0  0  0  0  0  0  0
    6.6780    0.0205   20.0388 C   0  0  0  0  0  0  0  0  0  0  0  0
    5.4377    0.6545   20.2192 C   0  0  0  0  0  0  0  0  0  0  0  0
    4.8309    1.2852   19.1287 C   0  0  0  0  0  0  0  0  0  0  0  0
    5.4787    1.2631   17.8885 C   0  0  0  0  0  0  0  0  0  0  0  0
    6.6467    0.6447   17.6823 N   0  0  0  0  0  0  0  0  0  0  0  0
    7.2165    0.0445   18.7377 C   0  0  0  0  0  0  0  0  0  0  0  0
    8.1579   -0.4575   18.5265 H   0  0  0  0  0  0  0  0  0  0  0  0
    5.0359    1.7508   17.0210 H   0  0  0  0  0  0  0  0  0  0  0  0
    3.8834    1.8023   19.2269 H   0  0  0  0  0  0  0  0  0  0  0  0
    4.9515    0.6518   21.1990 H   0  0  0  0  0  0  0  0  0  0  0  0
    6.5393   -1.5737   22.0192 C   0  0  0  0  0  0  0  0  0  0  0  0
    6.4478   -1.8450   23.2958 N   0  0  0  0  0  0  0  0  0  0  0  0
    5.4908   -2.8268   23.3086 C   0  0  0  0  0  0  0  0  0  0  0  0
    4.9315   -3.3306   24.5744 C   0  0  0  0  0  0  0  0  0  0  0  0
    5.9067   -4.4073   24.9269 C   0  0  0  0  0  0  0  0  0  0  0  0
    5.6729   -5.5761   24.7116 O   0  0  0  0  0  0  0  0  0  0  0  0
    7.0784   -3.9172   25.4392 N   0  0  0  0  0  0  0  0  0  0  0  0
    8.2300   -4.7012   25.6616 C   0  0  0  0  0  0  0  0  0  0  0  0
    8.6016   -5.6714   24.7278 C   0  0  0  0  0  0  0  0  0  0  0  0
    9.7272   -6.4545   24.9712 C   0  0  0  0  0  0  0  0  0  0  0  0
   10.4636   -6.2781   26.1417 C   0  0  0  0  0  0  0  0  0  0  0  0
   10.1136   -5.2792   27.0560 C   0  0  0  0  0  0  0  0  0  0  0  0
    8.9898   -4.4824   26.8142 C   0  0  0  0  0  0  0  0  0  0  0  0
    8.6673   -3.7253   27.5219 H   0  0  0  0  0  0  0  0  0  0  0  0
   10.6962   -5.1354   27.9651 H   0  0  0  0  0  0  0  0  0  0  0  0
   11.2700   -6.9679   26.3597 H   0  0  0  0  0  0  0  0  0  0  0  0
   10.0229   -7.2012   24.2407 H   0  0  0  0  0  0  0  0  0  0  0  0
    8.0016   -5.7957   23.8357 H   0  0  0  0  0  0  0  0  0  0  0  0
    7.2477   -2.9392   25.2558 H   0  0  0  0  0  0  0  0  0  0  0  0
    4.9029   -2.5219   25.3076 H   0  0  0  0  0  0  0  0  0  0  0  0
    3.9512   -3.7776   24.4246 H   0  0  0  0  0  0  0  0  0  0  0  0
    5.0965   -3.2319   22.1403 N   0  0  0  0  0  0  0  0  0  0  0  0
    5.8023   -2.4090   21.2756 O   0  0  0  0  0  0  0  0  0  0  0  0
    8.5262    1.2563   21.5956 H   0  0  0  0  0  0  0  0  0  0  0  0
    8.4016    0.2270   23.0414 H   0  0  0  0  0  0  0  0  0  0  0  0
    7.0087    1.1991   22.5085 H   0  0  0  0  0  0  0  0  0  0  0  0
  1  2  1  0
  2  3  1  0
  3  4  1  0
  3  5  1  0
  3  6  1  0
  2  7  1  0
  7  8  2  0
  8  9  1  0
  9 10  2  0
 10 11  1  0
 11 12  2  0
 12 13  1  0
 10 14  1  0
  9 15  1  0
  8 16  1  0
  2 17  1  0
 17 18  2  0
 18 19  1  0
 19 20  1  0
 20 21  1  0
 21 22  2  0
 21 23  1  0
 23 24  1  0
 24 25  2  0
 25 26  1  0
 26 27  2  0
 27 28  1  0
 28 29  2  0
 29 30  1  0
 28 31  1  0
 27 32  1  0
 26 33  1  0
 25 34  1  0
 23 35  1  0
 20 36  1  0
 20 37  1  0
 19 38  2  0
 38 39  1  0
  1 40  1  0
  1 41  1  0
  1 42  1  0
 12  7  1  0
 39 17  1  0
 29 24  1  0
M  END
>  <cnnaffinity>  (1) 
-5.7781

>  <filename>  (1) 
CC(C)(c1cccnc1)c1nc(CC(=O)Nc2ccccc2)no1

$$$$
