
     RDKit          3D

 43 44  0  0  0  0  0  0  0  0999 V2000
    5.9728   -3.0415   20.4621 C   0  0  0  0  0  0  0  0  0  0  0  0
    6.5020   -2.0300   21.4807 C   0  0  0  0  0  0  0  0  0  0  0  0
    7.3424   -2.7496   22.5408 C   0  0  0  0  0  0  0  0  0  0  0  0
    6.7560   -3.5233   23.0424 H   0  0  0  0  0  0  0  0  0  0  0  0
    7.6847   -2.0365   23.2948 H   0  0  0  0  0  0  0  0  0  0  0  0
    8.2208   -3.2177   22.0862 H   0  0  0  0  0  0  0  0  0  0  0  0
    7.3241   -0.8537   20.8981 C   0  0  0  0  0  0  0  0  0  0  0  0
    7.5674    0.1693   22.0343 C   0  0  0  0  0  0  0  0  0  0  0  0
    6.6362    0.5577   22.7298 O   0  0  0  0  0  0  0  0  0  0  0  0
    8.8378    0.6361   22.3288 N   0  0  0  0  0  0  0  0  0  0  0  0
    9.1052    1.5294   23.4563 C   0  0  0  0  0  0  0  0  0  0  0  0
   10.4149    2.2591   23.2726 C   0  0  0  0  0  0  0  0  0  0  0  0
   10.4315    3.4602   22.5528 C   0  0  0  0  0  0  0  0  0  0  0  0
   11.6167    4.1712   22.3634 C   0  0  0  0  0  0  0  0  0  0  0  0
   12.8113    3.6956   22.8931 C   0  0  0  0  0  0  0  0  0  0  0  0
   14.4224    4.6805   22.6169 Br  0  0  0  0  0  0  0  0  0  0  0  0
   12.8141    2.4993   23.6145 C   0  0  0  0  0  0  0  0  0  0  0  0
   11.6247    1.7685   23.8135 C   0  0  0  0  0  0  0  0  0  0  0  0
   11.6560    0.4393   24.5383 C   0  0  0  0  0  0  0  0  0  0  0  0
   11.3333   -0.5389   23.6534 F   0  0  0  0  0  0  0  0  0  0  0  0
   12.8913    0.2048   25.0508 F   0  0  0  0  0  0  0  0  0  0  0  0
   10.7685    0.4087   25.5626 F   0  0  0  0  0  0  0  0  0  0  0  0
   13.7577    2.1512   24.0291 H   0  0  0  0  0  0  0  0  0  0  0  0
   11.6127    5.0931   21.7908 H   0  0  0  0  0  0  0  0  0  0  0  0
    9.5190    3.8574   22.1221 H   0  0  0  0  0  0  0  0  0  0  0  0
    9.1283    0.9486   24.3835 H   0  0  0  0  0  0  0  0  0  0  0  0
    8.3045    2.2708   23.5617 H   0  0  0  0  0  0  0  0  0  0  0  0
    9.6084    0.3343   21.7407 H   0  0  0  0  0  0  0  0  0  0  0  0
    6.6021   -0.1623   19.7453 C   0  0  0  0  0  0  0  0  0  0  0  0
    5.4394    0.5644   20.0068 C   0  0  0  0  0  0  0  0  0  0  0  0
    4.8652    1.2819   18.9592 C   0  0  0  0  0  0  0  0  0  0  0  0
    5.4509    1.2457   17.6884 C   0  0  0  0  0  0  0  0  0  0  0  0
    6.5539    0.5251   17.4177 N   0  0  0  0  0  0  0  0  0  0  0  0
    7.1143   -0.1652   18.4310 C   0  0  0  0  0  0  0  0  0  0  0  0
    8.0262   -0.7203   18.2379 H   0  0  0  0  0  0  0  0  0  0  0  0
    5.0024    1.8282   16.8894 H   0  0  0  0  0  0  0  0  0  0  0  0
    3.9845    1.8931   19.1221 H   0  0  0  0  0  0  0  0  0  0  0  0
    5.0155    0.6005   21.0109 H   0  0  0  0  0  0  0  0  0  0  0  0
    8.2875   -1.2335   20.5460 H   0  0  0  0  0  0  0  0  0  0  0  0
    5.6259   -1.6018   21.9591 H   0  0  0  0  0  0  0  0  0  0  0  0
    6.7532   -3.7324   20.1449 H   0  0  0  0  0  0  0  0  0  0  0  0
    5.5655   -2.5315   19.5851 H   0  0  0  0  0  0  0  0  0  0  0  0
    5.1751   -3.6338   20.9192 H   0  0  0  0  0  0  0  0  0  0  0  0
  1  2  1  0
  2  3  1  0
  3  4  1  0
  3  5  1  0
  3  6  1  0
  2  7  1  0
  7  8  1  0
  8  9  2  0
  8 10  1  0
 10 11  1  0
 11 12  1  0
 12 13  2  0
 13 14  1  0
 14 15  2  0
 15 16  1  0
 15 17  1  0
 17 18  2  0
 18 19  1  0
 19 20  1  0
 19 21  1  0
 19 22  1  0
 17 23  1  0
 14 24  1  0
 13 25  1  0
 11 26  1  0
 11 27  1  0
 10 28  1  0
  7 29  1  0
 29 30  2  0
 30 31  1  0
 31 32  2  0
 32 33  1  0
 33 34  2  0
 34 35  1  0
 32 36  1  0
 31 37  1  0
 30 38  1  0
  7 39  1  0
  2 40  1  0
  1 41  1  0
  1 42  1  0
  1 43  1  0
 18 12  1  0
 34 29  1  0
M  END
>  <cnnaffinity>  (1) 
-5.27492

>  <filename>  (1) 
CC(C)C(C(=O)NCc1ccc(Br)cc1C(F)(F)F)c1cccnc1

$$$$
