
     RDKit          3D

 35 37  0  0  0  0  0  0  0  0999 V2000
    8.2746    1.0468   21.8341 C   0  0  0  0  0  0  0  0  0  0  0  0
    7.8819   -0.0849   20.8684 C   0  0  0  0  0  0  0  0  0  0  0  0
    7.3469   -1.3482   21.6157 C   0  0  0  0  0  0  0  0  0  0  0  0
    7.6372   -1.5968   22.7622 O   0  0  0  0  0  0  0  0  0  0  0  0
    6.6849   -2.2494   20.8121 N   0  0  0  0  0  0  0  0  0  0  0  0
    5.9335   -3.2715   21.3786 C   0  0  0  0  0  0  0  0  0  0  0  0
    4.8067   -3.1400   22.0045 N   0  0  0  0  0  0  0  0  0  0  0  0
    4.4113   -4.4177   22.2818 C   0  0  0  0  0  0  0  0  0  0  0  0
    3.2087   -4.9596   22.8473 C   0  0  0  0  0  0  0  0  0  0  0  0
    3.0422   -4.5948   24.2433 C   0  0  0  0  0  0  0  0  0  0  0  0
    2.9303   -4.3239   25.3663 N   0  0  0  0  0  0  0  0  0  0  0  0
    3.4316   -6.6097   22.6696 C   0  0  0  0  0  0  0  0  0  0  0  0
    3.1848   -6.7661   22.5040 C   0  0  0  0  0  0  0  0  0  0  0  0
    4.9569   -6.7067   21.8061 C   0  0  0  0  0  0  0  0  0  0  0  0
    5.3497   -5.3508   21.7347 C   0  0  0  0  0  0  0  0  0  0  0  0
    6.3050   -4.5636   21.1483 N   0  0  0  0  0  0  0  0  0  0  0  0
    7.1984   -4.7932   20.7427 H   0  0  0  0  0  0  0  0  0  0  0  0
    5.0823   -7.1723   20.7802 H   0  0  0  0  0  0  0  0  0  0  0  0
    2.3825   -7.0556   21.6656 H   0  0  0  0  0  0  0  0  0  0  0  0
    2.8614   -7.2957   23.6046 H   0  0  0  0  0  0  0  0  0  0  0  0
    6.2128   -1.8157   20.0389 H   0  0  0  0  0  0  0  0  0  0  0  0
    7.0229    0.4461   19.7156 C   0  0  0  0  0  0  0  0  0  0  0  0
    5.7293    0.9504   19.9262 C   0  0  0  0  0  0  0  0  0  0  0  0
    5.0019    1.4286   18.8306 C   0  0  0  0  0  0  0  0  0  0  0  0
    5.5916    1.4024   17.5639 C   0  0  0  0  0  0  0  0  0  0  0  0
    6.8277    0.9350   17.3348 N   0  0  0  0  0  0  0  0  0  0  0  0
    7.5135    0.4859   18.3933 C   0  0  0  0  0  0  0  0  0  0  0  0
    8.5238    0.1288   18.1864 H   0  0  0  0  0  0  0  0  0  0  0  0
    5.0510    1.7689   16.6937 H   0  0  0  0  0  0  0  0  0  0  0  0
    4.0006    1.8275   18.9474 H   0  0  0  0  0  0  0  0  0  0  0  0
    5.3035    0.9777   20.9323 H   0  0  0  0  0  0  0  0  0  0  0  0
    8.8104   -0.4763   20.4319 H   0  0  0  0  0  0  0  0  0  0  0  0
    8.8161    0.6427   22.6942 H   0  0  0  0  0  0  0  0  0  0  0  0
    8.9187    1.7699   21.3224 H   0  0  0  0  0  0  0  0  0  0  0  0
    7.3959    1.5840   22.2147 H   0  0  0  0  0  0  0  0  0  0  0  0
  1  2  1  0
  2  3  1  0
  3  4  2  0
  3  5  1  0
  5  6  1  0
  6  7  2  0
  7  8  1  0
  8  9  2  0
  9 10  1  0
 10 11  3  0
  9 12  1  0
 12 13  2  0
 13 14  1  0
 14 15  2  0
 15 16  1  0
 16 17  1  0
 14 18  1  0
 13 19  1  0
 12 20  1  0
  5 21  1  0
  2 22  1  0
 22 23  2  0
 23 24  1  0
 24 25  2  0
 25 26  1  0
 26 27  2  0
 27 28  1  0
 25 29  1  0
 24 30  1  0
 23 31  1  0
  2 32  1  0
  1 33  1  0
  1 34  1  0
  1 35  1  0
 16  6  1  0
 27 22  1  0
 15  8  1  0
M  END
>  <cnnaffinity>  (1) 
-5.29223

>  <filename>  (1) 
CC(C(=O)Nc1nc2c(C#N)cccc2[nH]1)c1cccnc1

$$$$
