
     RDKit          3D

 36 37  0  0  0  0  0  0  0  0999 V2000
    6.6602   -0.7473   22.3541 C   0  0  0  0  0  0  0  0  0  0  0  0
    7.4913   -0.5753   21.0999 C   0  0  0  0  0  0  0  0  0  0  0  0
    7.9874   -1.9287   20.6512 C   0  0  0  0  0  0  0  0  0  0  0  0
    7.1537   -2.4913   20.2213 H   0  0  0  0  0  0  0  0  0  0  0  0
    8.3992   -2.4873   21.4951 H   0  0  0  0  0  0  0  0  0  0  0  0
    8.7861   -1.7991   19.9153 H   0  0  0  0  0  0  0  0  0  0  0  0
    8.6451    0.2341   21.3982 N   0  0  0  0  0  4  0  0  0  0  0  0
    9.4296   -0.3067   22.5182 C   0  0  0  0  0  0  0  0  0  0  0  0
   10.6220    0.5606   22.7126 C   0  0  0  0  0  0  0  0  0  0  0  0
   10.5213    1.8661   23.2187 C   0  0  0  0  0  0  0  0  0  0  0  0
   11.6757    2.6144   23.4842 C   0  0  0  0  0  0  0  0  0  0  0  0
   12.9272    2.0774   23.1826 C   0  0  0  0  0  0  0  0  0  0  0  0
   13.0239    0.7814   22.6650 C   0  0  0  0  0  0  0  0  0  0  0  0
   14.5867    0.1106   22.3572 Cl  0  0  0  0  0  0  0  0  0  0  0  0
   11.8786    0.0234   22.4281 C   0  0  0  0  0  0  0  0  0  0  0  0
   12.0384   -1.7344   21.6830 Br  0  0  0  0  0  0  0  0  0  0  0  0
   13.8280    2.6630   23.3403 H   0  0  0  0  0  0  0  0  0  0  0  0
   11.6002    3.6175   23.8974 H   0  0  0  0  0  0  0  0  0  0  0  0
    9.5443    2.3118   23.3768 H   0  0  0  0  0  0  0  0  0  0  0  0
    9.7739   -1.3289   22.2996 H   0  0  0  0  0  0  0  0  0  0  0  0
    8.8383   -0.3665   23.4391 H   0  0  0  0  0  0  0  0  0  0  0  0
    8.3245    1.1738   21.6221 H   0  0  0  0  0  0  0  0  0  0  0  0
    9.2334    0.2748   20.5700 H   0  0  0  0  0  0  0  0  0  0  0  0
    6.7575    0.1261   20.0009 C   0  0  0  0  0  0  0  0  0  0  0  0
    5.5134    0.7412   20.1970 C   0  0  0  0  0  0  0  0  0  0  0  0
    4.8957    1.3351   19.0994 C   0  0  0  0  0  0  0  0  0  0  0  0
    5.5183    1.2997   17.8507 C   0  0  0  0  0  0  0  0  0  0  0  0
    6.7169    0.7157   17.6637 N   0  0  0  0  0  0  0  0  0  0  0  0
    7.3242    0.1515   18.7188 C   0  0  0  0  0  0  0  0  0  0  0  0
    8.2870   -0.3257   18.5533 H   0  0  0  0  0  0  0  0  0  0  0  0
    5.0120    1.7554   17.0035 H   0  0  0  0  0  0  0  0  0  0  0  0
    3.9364    1.8277   19.1979 H   0  0  0  0  0  0  0  0  0  0  0  0
    5.0311    0.7541   21.1748 H   0  0  0  0  0  0  0  0  0  0  0  0
    6.2819    0.2211   22.6943 H   0  0  0  0  0  0  0  0  0  0  0  0
    5.8333   -1.4193   22.1315 H   0  0  0  0  0  0  0  0  0  0  0  0
    7.2642   -1.1904   23.1519 H   0  0  0  0  0  0  0  0  0  0  0  0
  1  2  1  0
  2  3  1  0
  3  4  1  0
  3  5  1  0
  3  6  1  0
  2  7  1  0
  7  8  1  0
  8  9  1  0
  9 10  2  0
 10 11  1  0
 11 12  2  0
 12 13  1  0
 13 14  1  0
 13 15  2  0
 15 16  1  0
 12 17  1  0
 11 18  1  0
 10 19  1  0
  8 20  1  0
  8 21  1  0
  7 22  1  0
  7 23  1  0
  2 24  1  0
 24 25  2  0
 25 26  1  0
 26 27  2  0
 27 28  1  0
 28 29  2  0
 29 30  1  0
 27 31  1  0
 26 32  1  0
 25 33  1  0
  1 34  1  0
  1 35  1  0
  1 36  1  0
 15  9  1  0
 29 24  1  0
M  CHG  1   7   1
M  END
>  <cnnaffinity>  (1) 
-4.85407

>  <filename>  (1) 
CC(C)([NH2+]Cc1cccc(Cl)c1Br)c1cccnc1

$$$$
