
     RDKit          3D

 33 34  0  0  0  0  0  0  0  0999 V2000
    4.9079    1.7972   17.0271 H   0  0  0  0  0  0  0  0  0  0  0  0
    5.4223    1.2826   17.8353 C   0  0  0  0  0  0  0  0  0  0  0  0
    6.5867    0.6428   17.6054 N   0  0  0  0  0  0  0  0  0  0  0  0
    7.1919    0.0438   18.6337 C   0  0  0  0  0  0  0  0  0  0  0  0
    8.1350   -0.4590   18.4296 H   0  0  0  0  0  0  0  0  0  0  0  0
    6.6424    0.0612   19.9086 C   0  0  0  0  0  0  0  0  0  0  0  0
    7.5027   -0.8525   21.1815 S   0  0  0  0  0  0  0  0  0  0  0  0
    6.5126   -1.4600   22.0873 O   0  0  0  0  0  0  0  0  0  0  0  0
    8.3353   -1.8867   20.5442 O   0  0  0  0  0  0  0  0  0  0  0  0
    8.5700    0.3664   22.0639 C   0  0  0  0  0  0  0  0  0  0  0  0
    7.7117    1.5621   22.4808 C   0  0  0  0  0  0  0  0  0  0  0  0
    7.8570    2.8340   21.8981 C   0  0  0  0  0  0  0  0  0  0  0  0
    8.6181    2.9878   21.1397 H   0  0  0  0  0  0  0  0  0  0  0  0
    7.0350    3.9073   22.2839 C   0  0  0  0  0  0  0  0  0  0  0  0
    7.1460    4.8841   21.8176 H   0  0  0  0  0  0  0  0  0  0  0  0
    6.0557    3.7166   23.2659 C   0  0  0  0  0  0  0  0  0  0  0  0
    5.4106    4.5397   23.5671 H   0  0  0  0  0  0  0  0  0  0  0  0
    5.8930    2.4591   23.8543 C   0  0  0  0  0  0  0  0  0  0  0  0
    4.5402    2.1965   25.1846 Br  0  0  0  0  0  0  0  0  0  0  0  0
    6.7152    1.3945   23.4559 C   0  0  0  0  0  0  0  0  0  0  0  0
    6.5844    0.4223   23.9170 H   0  0  0  0  0  0  0  0  0  0  0  0
    9.1989   -0.3106   23.2954 C   0  0  0  0  0  0  0  0  0  0  0  0
    9.8666   -1.1208   22.9840 H   0  0  0  0  0  0  0  0  0  0  0  0
    8.4168   -0.7269   23.9336 H   0  0  0  0  0  0  0  0  0  0  0  0
    9.7855    0.3961   23.8903 H   0  0  0  0  0  0  0  0  0  0  0  0
    9.7386    0.7693   21.1480 C   0  0  0  0  0  0  0  0  0  0  0  0
   10.3626   -0.0990   20.9104 H   0  0  0  0  0  0  0  0  0  0  0  0
    9.3333    1.1577   20.2188 H   0  0  0  0  0  0  0  0  0  0  0  0
   10.3777    1.5357   21.6026 H   0  0  0  0  0  0  0  0  0  0  0  0
    5.4278    0.6817   20.1731 C   0  0  0  0  0  0  0  0  0  0  0  0
    4.9532    0.6769   21.1625 H   0  0  0  0  0  0  0  0  0  0  0  0
    4.8253    1.3074   19.1000 C   0  0  0  0  0  0  0  0  0  0  0  0
    3.8859    1.8234   19.2455 H   0  0  0  0  0  0  0  0  0  0  0  0
  1  2  1  0
  2  3  2  0
  3  4  1  0
  4  5  1  0
  4  6  2  0
  6  7  1  0
  7  8  2  0
  7  9  2  0
  7 10  1  0
 10 11  1  0
 11 12  2  0
 12 13  1  0
 12 14  1  0
 14 15  1  0
 14 16  2  0
 16 17  1  0
 16 18  1  0
 18 19  1  0
 18 20  2  0
 20 21  1  0
 10 22  1  0
 22 23  1  0
 22 24  1  0
 22 25  1  0
 10 26  1  0
 26 27  1  0
 26 28  1  0
 26 29  1  0
  6 30  1  0
 30 31  1  0
 30 32  2  0
 32 33  1  0
 32  2  1  0
 20 11  1  0
M  END
>  <cnnaffinity>  (1) 
-4.81755

>  <filename>  (1) 
CC(C)(c1cccc(Br)c1)S(=O)(=O)c1cccnc1

$$$$
