
     RDKit          3D

 37 38  0  0  0  0  0  0  0  0999 V2000
    5.2437    1.7810   16.9403 H   0  0  0  0  0  0  0  0  0  0  0  0
    5.5344    1.3429   17.8959 C   0  0  0  0  0  0  0  0  0  0  0  0
    6.6807    0.6502   17.9052 N   0  0  0  0  0  0  0  0  0  0  0  0
    7.0597    0.0920   19.0621 C   0  0  0  0  0  0  0  0  0  0  0  0
    8.0250   -0.4098   19.0290 H   0  0  0  0  0  0  0  0  0  0  0  0
    6.3059    0.1350   20.2448 C   0  0  0  0  0  0  0  0  0  0  0  0
    6.7651   -0.5917   21.4843 C   0  0  0  0  0  0  0  0  0  0  0  0
    6.6930   -0.0243   22.5563 O   0  0  0  0  0  0  0  0  0  0  0  0
    7.3117   -2.0661   21.4080 C   0  0  0  0  0  0  0  0  0  0  0  0
    8.8103   -2.1268   21.0043 C   0  0  0  0  0  0  0  0  0  0  0  0
    9.0234   -1.7009   20.0222 H   0  0  0  0  0  0  0  0  0  0  0  0
    9.1267   -3.1746   20.9394 H   0  0  0  0  0  0  0  0  0  0  0  0
    9.4743   -1.6378   21.7271 H   0  0  0  0  0  0  0  0  0  0  0  0
    6.4695   -2.8824   20.4005 C   0  0  0  0  0  0  0  0  0  0  0  0
    6.6070   -2.5156   19.3795 H   0  0  0  0  0  0  0  0  0  0  0  0
    5.4024   -2.8368   20.6276 H   0  0  0  0  0  0  0  0  0  0  0  0
    6.7554   -3.9400   20.4217 H   0  0  0  0  0  0  0  0  0  0  0  0
    7.2183   -2.7179   22.8161 C   0  0  0  0  0  0  0  0  0  0  0  0
    7.5815   -3.7569   22.7628 H   0  0  0  0  0  0  0  0  0  0  0  0
    7.9069   -2.2077   23.5125 H   0  0  0  0  0  0  0  0  0  0  0  0
    5.8489   -2.7370   23.2809 N   0  0  0  0  0  0  0  0  0  0  0  0
    5.3953   -1.8439   23.1527 H   0  0  0  0  0  0  0  0  0  0  0  0
    5.4924   -3.2940   24.5127 C   0  0  0  0  0  0  0  0  0  0  0  0
    4.1441   -3.2355   24.9119 C   0  0  0  0  0  0  0  0  0  0  0  0
    3.4164   -2.7667   24.2533 H   0  0  0  0  0  0  0  0  0  0  0  0
    3.7576   -3.7731   26.1434 C   0  0  0  0  0  0  0  0  0  0  0  0
    2.7292   -3.6758   26.4739 H   0  0  0  0  0  0  0  0  0  0  0  0
    4.6850   -4.3999   26.9844 C   0  0  0  0  0  0  0  0  0  0  0  0
    4.3734   -4.8147   27.9420 H   0  0  0  0  0  0  0  0  0  0  0  0
    6.0214   -4.4582   26.5907 C   0  0  0  0  0  0  0  0  0  0  0  0
    6.7542   -4.9414   27.2343 H   0  0  0  0  0  0  0  0  0  0  0  0
    6.4212   -3.9011   25.3721 C   0  0  0  0  0  0  0  0  0  0  0  0
    7.4660   -3.8988   25.0905 H   0  0  0  0  0  0  0  0  0  0  0  0
    5.1220    0.9052   20.2282 C   0  0  0  0  0  0  0  0  0  0  0  0
    4.5281    1.0417   21.1338 H   0  0  0  0  0  0  0  0  0  0  0  0
    4.7308    1.5059   19.0298 C   0  0  0  0  0  0  0  0  0  0  0  0
    3.8496    2.1412   18.9683 H   0  0  0  0  0  0  0  0  0  0  0  0
  1  2  1  0
  2  3  2  0
  3  4  1  0
  4  5  1  0
  4  6  2  0
  6  7  1  0
  7  8  2  0
  7  9  1  0
  9 10  1  0
 10 11  1  0
 10 12  1  0
 10 13  1  0
  9 14  1  0
 14 15  1  0
 14 16  1  0
 14 17  1  0
  9 18  1  0
 18 19  1  0
 18 20  1  0
 18 21  1  0
 21 22  1  0
 21 23  1  0
 23 24  2  0
 24 25  1  0
 24 26  1  0
 26 27  1  0
 26 28  2  0
 28 29  1  0
 28 30  1  0
 30 31  1  0
 30 32  2  0
 32 33  1  0
  6 34  1  0
 34 35  1  0
 34 36  2  0
 36 37  1  0
 36  2  1  0
 32 23  1  0
M  END
>  <cnnaffinity>  (1) 
-4.35274

>  <filename>  (1) 
CC(C)(CNc1ccccc1)C(=O)c1cccnc1

$$$$
