
     RDKit          3D

 43 44  0  0  0  0  0  0  0  0999 V2000
    9.6722    0.0677   20.9278 C   0  0  0  0  0  0  0  0  0  0  0  0
    8.3497   -0.0947   21.6734 C   0  0  0  0  0  0  0  0  0  0  0  0
    7.8188    1.2295   22.2312 C   0  0  0  0  0  0  0  0  0  0  0  0
    6.9119    1.0680   22.8253 H   0  0  0  0  0  0  0  0  0  0  0  0
    7.5859    1.9521   21.4394 H   0  0  0  0  0  0  0  0  0  0  0  0
    8.5685    1.6792   22.8925 H   0  0  0  0  0  0  0  0  0  0  0  0
    7.3558   -0.7844   20.8063 N   0  0  0  0  0  0  0  0  0  0  0  0
    6.8717   -2.0673   21.0767 C   0  0  0  0  0  0  0  0  0  0  0  0
    5.7523   -2.4580   20.7854 O   0  0  0  0  0  0  0  0  0  0  0  0
    7.8098   -2.8703   21.6834 N   0  0  0  0  0  0  0  0  0  0  0  0
    7.5449   -4.2841   21.9257 C   0  0  0  0  0  0  0  0  0  0  0  0
    6.4345   -4.4116   22.9476 C   0  0  0  0  0  0  0  0  0  0  0  0
    6.6248   -4.6666   24.2502 C   0  0  0  0  0  0  0  0  0  0  0  0
    7.9714   -4.6343   24.8766 C   0  0  0  0  0  0  0  0  0  0  0  0
    8.4274   -5.7165   25.6409 C   0  0  0  0  0  0  0  0  0  0  0  0
    9.7847   -5.8387   25.9497 C   0  0  0  0  0  0  0  0  0  0  0  0
   10.6911   -4.8445   25.5669 C   0  0  0  0  0  0  0  0  0  0  0  0
   10.2282   -3.7032   24.9119 C   0  0  0  0  0  0  0  0  0  0  0  0
    8.8767   -3.5991   24.5738 C   0  0  0  0  0  0  0  0  0  0  0  0
    8.5224   -2.7412   24.0112 H   0  0  0  0  0  0  0  0  0  0  0  0
   10.9056   -2.8976   24.6505 H   0  0  0  0  0  0  0  0  0  0  0  0
   11.7500   -4.9710   25.7705 H   0  0  0  0  0  0  0  0  0  0  0  0
   10.1546   -6.7379   26.4250 H   0  0  0  0  0  0  0  0  0  0  0  0
    7.7226   -6.4818   25.9581 H   0  0  0  0  0  0  0  0  0  0  0  0
    5.7861   -4.9605   24.8902 H   0  0  0  0  0  0  0  0  0  0  0  0
    5.4489   -4.2004   22.5517 H   0  0  0  0  0  0  0  0  0  0  0  0
    8.4603   -4.7491   22.3094 H   0  0  0  0  0  0  0  0  0  0  0  0
    7.2909   -4.8054   20.9910 H   0  0  0  0  0  0  0  0  0  0  0  0
    8.7558   -2.5780   21.5301 H   0  0  0  0  0  0  0  0  0  0  0  0
    6.6928   -0.0442   19.7722 C   0  0  0  0  0  0  0  0  0  0  0  0
    5.4577    0.5594   20.0340 C   0  0  0  0  0  0  0  0  0  0  0  0
    4.8395    1.3036   19.0211 C   0  0  0  0  0  0  0  0  0  0  0  0
    5.4640    1.3927   17.7715 C   0  0  0  0  0  0  0  0  0  0  0  0
    6.6322    0.7937   17.4883 N   0  0  0  0  0  0  0  0  0  0  0  0
    7.2225    0.0990   18.4712 C   0  0  0  0  0  0  0  0  0  0  0  0
    8.1549   -0.4017   18.2121 H   0  0  0  0  0  0  0  0  0  0  0  0
    4.9991    1.9476   16.9576 H   0  0  0  0  0  0  0  0  0  0  0  0
    3.8942    1.8129   19.1837 H   0  0  0  0  0  0  0  0  0  0  0  0
    5.0066    0.4330   21.0199 H   0  0  0  0  0  0  0  0  0  0  0  0
    8.5291   -0.7416   22.5439 H   0  0  0  0  0  0  0  0  0  0  0  0
   10.0426   -0.9094   20.5977 H   0  0  0  0  0  0  0  0  0  0  0  0
    9.5554    0.7145   20.0521 H   0  0  0  0  0  0  0  0  0  0  0  0
   10.4378    0.5064   21.5790 H   0  0  0  0  0  0  0  0  0  0  0  0
  1  2  1  0
  2  3  1  0
  3  4  1  0
  3  5  1  0
  3  6  1  0
  2  7  1  0
  7  8  1  0
  8  9  2  0
  8 10  1  0
 10 11  1  0
 11 12  1  0
 12 13  2  3
 13 14  1  0
 14 15  2  0
 15 16  1  0
 16 17  2  0
 17 18  1  0
 18 19  2  0
 19 20  1  0
 18 21  1  0
 17 22  1  0
 16 23  1  0
 15 24  1  0
 13 25  1  0
 12 26  1  0
 11 27  1  0
 11 28  1  0
 10 29  1  0
  7 30  1  0
 30 31  2  0
 31 32  1  0
 32 33  2  0
 33 34  1  0
 34 35  2  0
 35 36  1  0
 33 37  1  0
 32 38  1  0
 31 39  1  0
  2 40  1  0
  1 41  1  0
  1 42  1  0
  1 43  1  0
 19 14  1  0
 35 30  1  0
M  END
>  <cnnaffinity>  (1) 
-5.30728

>  <filename>  (1) 
CC(C)N(C(=O)NCC=Cc1ccccc1)c1cccnc1

$$$$
