
     RDKit          3D

 41 44  0  0  0  0  0  0  0  0999 V2000
    8.8201    1.9541   25.0498 C   0  0  0  0  0  0  0  0  0  0  0  0
    7.7373    2.1943   23.9908 C   0  0  0  0  0  0  0  0  0  0  0  0
    7.7214    3.6398   23.4490 C   0  0  0  0  0  0  0  0  0  0  0  0
    8.6855    4.1451   23.5587 H   0  0  0  0  0  0  0  0  0  0  0  0
    7.0032    4.2370   24.0129 H   0  0  0  0  0  0  0  0  0  0  0  0
    7.4218    3.6734   22.3960 H   0  0  0  0  0  0  0  0  0  0  0  0
    7.7901    1.2001   22.9027 N   0  0  0  0  0  0  0  0  0  0  0  0
    6.6520    0.5483   22.5405 N   0  0  0  0  0  0  0  0  0  0  0  0
    7.0585   -0.2492   21.5806 C   0  0  0  0  0  0  0  0  0  0  0  0
    6.1513   -1.0814   20.7321 C   0  0  0  0  0  0  0  0  0  0  0  0
    5.8111   -0.3255   19.4567 C   0  0  0  0  0  0  0  0  0  0  0  0
    4.8678    0.7075   19.5023 C   0  0  0  0  0  0  0  0  0  0  0  0
    4.6532    1.4730   18.3558 C   0  0  0  0  0  0  0  0  0  0  0  0
    5.4274    1.2116   17.2237 C   0  0  0  0  0  0  0  0  0  0  0  0
    6.3643    0.2550   17.1679 N   0  0  0  0  0  0  0  0  0  0  0  0
    6.5432   -0.4874   18.2680 C   0  0  0  0  0  0  0  0  0  0  0  0
    7.3416   -1.2311   18.2248 H   0  0  0  0  0  0  0  0  0  0  0  0
    5.3008    1.8042   16.3216 H   0  0  0  0  0  0  0  0  0  0  0  0
    3.9187    2.2697   18.3277 H   0  0  0  0  0  0  0  0  0  0  0  0
    4.3345    0.9278   20.4289 H   0  0  0  0  0  0  0  0  0  0  0  0
    5.2592   -1.2957   21.3214 H   0  0  0  0  0  0  0  0  0  0  0  0
    6.6571   -2.0257   20.5077 H   0  0  0  0  0  0  0  0  0  0  0  0
    8.3765   -0.1704   21.2917 N   0  0  0  0  0  0  0  0  0  0  0  0
    8.8028    0.7757   22.1110 C   0  0  0  0  0  0  0  0  0  0  0  0
   10.1954    1.2538   22.1433 C   0  0  0  0  0  0  0  0  0  0  0  0
   10.5121    2.6396   22.0781 C   0  0  0  0  0  0  0  0  0  0  0  0
   11.8104    3.0949   22.2411 C   0  0  0  0  0  0  0  0  0  0  0  0
   12.7889    2.1190   22.4628 C   0  0  0  0  0  0  0  0  0  0  0  0
   14.0919    2.3187   22.7228 O   0  0  0  0  0  0  0  0  0  0  0  0
   14.7281    1.0785   22.7480 N   0  0  0  0  0  0  0  0  0  0  0  0
   13.8215    0.1744   22.5445 C   0  0  0  0  0  0  0  0  0  0  0  0
   12.5190    0.7520   22.3946 C   0  0  0  0  0  0  0  0  0  0  0  0
   11.2022    0.2967   22.2363 C   0  0  0  0  0  0  0  0  0  0  0  0
   10.9419   -0.7608   22.2011 H   0  0  0  0  0  0  0  0  0  0  0  0
   14.1180   -0.8651   22.4880 H   0  0  0  0  0  0  0  0  0  0  0  0
   12.0792    4.1356   22.1365 H   0  0  0  0  0  0  0  0  0  0  0  0
    9.7274    3.3691   21.8890 H   0  0  0  0  0  0  0  0  0  0  0  0
    6.7690    2.0127   24.4613 H   0  0  0  0  0  0  0  0  0  0  0  0
    8.6858    2.6662   25.8706 H   0  0  0  0  0  0  0  0  0  0  0  0
    9.8366    2.0855   24.6624 H   0  0  0  0  0  0  0  0  0  0  0  0
    8.7316    0.9450   25.4633 H   0  0  0  0  0  0  0  0  0  0  0  0
  1  2  1  0
  2  3  1  0
  3  4  1  0
  3  5  1  0
  3  6  1  0
  2  7  1  0
  7  8  1  0
  8  9  2  0
  9 10  1  0
 10 11  1  0
 11 12  2  0
 12 13  1  0
 13 14  2  0
 14 15  1  0
 15 16  2  0
 16 17  1  0
 14 18  1  0
 13 19  1  0
 12 20  1  0
 10 21  1  0
 10 22  1  0
  9 23  1  0
 23 24  2  0
 24 25  1  0
 25 26  2  0
 26 27  1  0
 27 28  2  0
 28 29  1  0
 29 30  1  0
 30 31  2  0
 31 32  1  0
 32 33  2  0
 33 34  1  0
 31 35  1  0
 27 36  1  0
 26 37  1  0
  2 38  1  0
  1 39  1  0
  1 40  1  0
  1 41  1  0
 24  7  1  0
 33 25  1  0
 16 11  1  0
 32 28  1  0
M  END
>  <cnnaffinity>  (1) 
-6.0099

>  <filename>  (1) 
CC(C)n1nc(Cc2cccnc2)nc1-c1ccc2oncc2c1

$$$$
