
     RDKit          3D

 38 40  0  0  0  0  0  0  0  0999 V2000
    5.5435    0.8546   24.4363 C   0  0  0  0  0  0  0  0  0  0  0  0
    6.7396    1.6641   23.8920 C   0  0  0  0  0  0  0  0  0  0  0  0
    7.8883    1.6536   24.9080 C   0  0  0  0  0  0  0  0  0  0  0  0
    7.5269    2.1288   25.8238 H   0  0  0  0  0  0  0  0  0  0  0  0
    8.7420    2.2279   24.5350 H   0  0  0  0  0  0  0  0  0  0  0  0
    8.2056    0.6320   25.1201 H   0  0  0  0  0  0  0  0  0  0  0  0
    7.1717    1.0642   22.6177 N   0  0  0  0  0  0  0  0  0  0  0  0
    7.4548   -0.2232   22.3402 C   0  0  0  0  0  0  0  0  0  0  0  0
    7.9052   -1.4507   23.3706 S   0  0  0  0  0  0  0  0  0  0  0  0
    7.4799   -0.4965   20.9877 N   0  0  0  0  0  0  0  0  0  0  0  0
    6.7018    0.0661   19.9241 C   0  0  0  0  0  0  0  0  0  0  0  0
    5.4540    0.6646   20.1494 C   0  0  0  0  0  0  0  0  0  0  0  0
    4.7996    1.3034   19.0867 C   0  0  0  0  0  0  0  0  0  0  0  0
    5.3899    1.2932   17.8203 C   0  0  0  0  0  0  0  0  0  0  0  0
    6.5494    0.6616   17.5680 N   0  0  0  0  0  0  0  0  0  0  0  0
    7.1735    0.0654   18.5902 C   0  0  0  0  0  0  0  0  0  0  0  0
    8.1158   -0.4290   18.3603 H   0  0  0  0  0  0  0  0  0  0  0  0
    4.9230    1.8025   16.9772 H   0  0  0  0  0  0  0  0  0  0  0  0
    3.8647    1.8371   19.2388 H   0  0  0  0  0  0  0  0  0  0  0  0
    5.0135    0.6308   21.1432 H   0  0  0  0  0  0  0  0  0  0  0  0
    7.8114   -1.4471   20.9019 H   0  0  0  0  0  0  0  0  0  0  0  0
    7.3743    1.6671   21.8314 H   0  0  0  0  0  0  0  0  0  0  0  0
    6.2784    3.1222   23.6566 C   0  0  0  0  0  0  0  0  0  0  0  0
    6.5255    4.1257   24.4300 N   0  0  0  0  0  0  0  0  0  0  0  0
    5.8882    5.2721   23.9890 C   0  0  0  0  0  0  0  0  0  0  0  0
    5.9885    6.5326   24.6011 C   0  0  0  0  0  0  0  0  0  0  0  0
    5.2973    7.6094   24.0534 C   0  0  0  0  0  0  0  0  0  0  0  0
    4.5027    7.4359   22.9004 C   0  0  0  0  0  0  0  0  0  0  0  0
    4.3943    6.1923   22.2814 C   0  0  0  0  0  0  0  0  0  0  0  0
    5.0999    5.1126   22.8344 C   0  0  0  0  0  0  0  0  0  0  0  0
    5.2265    3.4709   22.2814 S   0  0  0  0  0  0  0  0  0  0  0  0
    3.7923    6.0644   21.3858 H   0  0  0  0  0  0  0  0  0  0  0  0
    3.9724    8.2858   22.4816 H   0  0  0  0  0  0  0  0  0  0  0  0
    5.3712    8.5901   24.5133 H   0  0  0  0  0  0  0  0  0  0  0  0
    6.6119    6.6280   25.4827 H   0  0  0  0  0  0  0  0  0  0  0  0
    4.7845    0.7616   23.6559 H   0  0  0  0  0  0  0  0  0  0  0  0
    5.8663   -0.1478   24.7302 H   0  0  0  0  0  0  0  0  0  0  0  0
    5.0983    1.3599   25.2987 H   0  0  0  0  0  0  0  0  0  0  0  0
  1  2  1  0
  2  3  1  0
  3  4  1  0
  3  5  1  0
  3  6  1  0
  2  7  1  0
  7  8  1  0
  8  9  2  0
  8 10  1  0
 10 11  1  0
 11 12  2  0
 12 13  1  0
 13 14  2  0
 14 15  1  0
 15 16  2  0
 16 17  1  0
 14 18  1  0
 13 19  1  0
 12 20  1  0
 10 21  1  0
  7 22  1  0
  2 23  1  0
 23 24  2  0
 24 25  1  0
 25 26  2  0
 26 27  1  0
 27 28  2  0
 28 29  1  0
 29 30  2  0
 30 31  1  0
 29 32  1  0
 28 33  1  0
 27 34  1  0
 26 35  1  0
  1 36  1  0
  1 37  1  0
  1 38  1  0
 16 11  1  0
 31 23  1  0
 30 25  1  0
M  END
>  <cnnaffinity>  (1) 
-5.41591

>  <filename>  (1) 
CC(C)(NC(=S)Nc1cccnc1)c1nc2ccccc2s1

$$$$
