
     RDKit          3D

 33 34  0  0  0  0  0  0  0  0999 V2000
    7.7981    0.2148   22.1013 C   0  0  0  0  0  0  0  0  0  0  0  0
    7.4600   -0.7463   20.9600 C   0  0  0  0  0  0  0  0  0  0  0  0
    6.6581   -1.9293   21.5038 C   0  0  0  0  0  0  0  0  0  0  0  0
    7.4871   -2.7755   22.4486 C   0  0  0  0  0  0  0  0  0  0  0  0
    8.2818   -3.5808   21.9809 O   0  0  0  0  0  0  0  0  0  0  0  0
    7.3513   -2.6231   23.8099 N   0  0  0  0  0  0  0  0  0  0  0  0
    8.1978   -3.2276   24.7071 C   0  0  0  0  0  0  0  0  0  0  0  0
    9.5253   -3.3788   24.3497 C   0  0  0  0  0  0  0  0  0  0  0  0
   10.4072   -3.9545   25.2498 C   0  0  0  0  0  0  0  0  0  0  0  0
    9.9987   -4.3720   26.4592 N   0  0  0  0  0  0  0  0  0  0  0  0
    8.7003   -4.2422   26.7996 C   0  0  0  0  0  0  0  0  0  0  0  0
    7.7576   -3.6679   25.9467 C   0  0  0  0  0  0  0  0  0  0  0  0
    5.9136   -3.5313   26.4761 Br  0  0  0  0  0  0  0  0  0  0  0  0
    8.3667   -4.5903   27.7764 H   0  0  0  0  0  0  0  0  0  0  0  0
   11.4545   -4.0453   24.9704 H   0  0  0  0  0  0  0  0  0  0  0  0
    9.8614   -3.0260   23.3821 H   0  0  0  0  0  0  0  0  0  0  0  0
    6.5509   -2.1089   24.1590 H   0  0  0  0  0  0  0  0  0  0  0  0
    6.2967   -2.5603   20.6883 H   0  0  0  0  0  0  0  0  0  0  0  0
    5.8005   -1.5460   22.0458 H   0  0  0  0  0  0  0  0  0  0  0  0
    6.6711   -0.0250   19.8884 C   0  0  0  0  0  0  0  0  0  0  0  0
    5.4561    0.6265   20.1488 C   0  0  0  0  0  0  0  0  0  0  0  0
    4.8215    1.2873   19.0948 C   0  0  0  0  0  0  0  0  0  0  0  0
    5.4065    1.2940   17.8257 C   0  0  0  0  0  0  0  0  0  0  0  0
    6.5678    0.6620   17.5644 N   0  0  0  0  0  0  0  0  0  0  0  0
    7.1783    0.0281   18.5814 C   0  0  0  0  0  0  0  0  0  0  0  0
    8.1285   -0.4611   18.3887 H   0  0  0  0  0  0  0  0  0  0  0  0
    4.9119    1.8407   17.0297 H   0  0  0  0  0  0  0  0  0  0  0  0
    3.8867    1.8217   19.2390 H   0  0  0  0  0  0  0  0  0  0  0  0
    5.0255    0.6402   21.1468 H   0  0  0  0  0  0  0  0  0  0  0  0
    8.3950   -1.1221   20.5246 H   0  0  0  0  0  0  0  0  0  0  0  0
    8.4340   -0.2753   22.8436 H   0  0  0  0  0  0  0  0  0  0  0  0
    8.3280    1.0901   21.7155 H   0  0  0  0  0  0  0  0  0  0  0  0
    6.8828    0.5465   22.5996 H   0  0  0  0  0  0  0  0  0  0  0  0
  1  2  1  0
  2  3  1  0
  3  4  1  0
  4  5  2  0
  4  6  1  0
  6  7  1  0
  7  8  2  0
  8  9  1  0
  9 10  2  0
 10 11  1  0
 11 12  2  0
 12 13  1  0
 11 14  1  0
  9 15  1  0
  8 16  1  0
  6 17  1  0
  3 18  1  0
  3 19  1  0
  2 20  1  0
 20 21  2  0
 21 22  1  0
 22 23  2  0
 23 24  1  0
 24 25  2  0
 25 26  1  0
 23 27  1  0
 22 28  1  0
 21 29  1  0
  2 30  1  0
  1 31  1  0
  1 32  1  0
  1 33  1  0
 12  7  1  0
 25 20  1  0
M  END
>  <cnnaffinity>  (1) 
-5.15222

>  <filename>  (1) 
CC(CC(=O)Nc1ccncc1Br)c1cccnc1

$$$$
