
     RDKit          3D

 34 35  0  0  0  0  0  0  0  0999 V2000
   11.7125    0.2371   26.1752 H   0  0  0  0  0  0  0  0  0  0  0  0
   11.4641    0.3528   25.1237 C   0  0  0  0  0  0  0  0  0  0  0  0
   10.1808    0.1760   24.8021 N   0  0  0  0  0  0  0  0  0  0  0  0
    9.8566    0.3576   23.5141 C   0  0  0  0  0  0  0  0  0  0  0  0
    8.5335    0.1237   23.3195 N   0  0  0  0  0  0  0  0  0  0  0  0
    8.1731   -0.0480   24.2443 H   0  0  0  0  0  0  0  0  0  0  0  0
    7.6995    0.5147   22.1997 C   0  0  0  0  0  0  0  0  0  0  0  0
    6.6948    0.7208   22.5888 H   0  0  0  0  0  0  0  0  0  0  0  0
    8.0474    1.4523   21.7426 H   0  0  0  0  0  0  0  0  0  0  0  0
    7.5575   -0.5403   21.0456 C   0  0  0  0  0  0  0  0  0  0  0  0
    6.7876    0.1163   19.8744 C   0  0  0  0  0  0  0  0  0  0  0  0
    7.2534    0.1259   18.5424 C   0  0  0  0  0  0  0  0  0  0  0  0
    8.2013   -0.3425   18.2917 H   0  0  0  0  0  0  0  0  0  0  0  0
    6.6244    0.6974   17.5044 N   0  0  0  0  0  0  0  0  0  0  0  0
    5.4596    1.3077   17.7509 C   0  0  0  0  0  0  0  0  0  0  0  0
    4.9728    1.7815   16.9010 H   0  0  0  0  0  0  0  0  0  0  0  0
    4.8790    1.3462   19.0226 C   0  0  0  0  0  0  0  0  0  0  0  0
    3.9311    1.8525   19.1665 H   0  0  0  0  0  0  0  0  0  0  0  0
    5.5474    0.7448   20.0912 C   0  0  0  0  0  0  0  0  0  0  0  0
    5.1020    0.7847   21.0885 H   0  0  0  0  0  0  0  0  0  0  0  0
    6.7750   -1.7732   21.5483 C   0  0  0  0  0  0  0  0  0  0  0  0
    6.6847   -2.5177   20.7471 H   0  0  0  0  0  0  0  0  0  0  0  0
    5.7628   -1.4990   21.8607 H   0  0  0  0  0  0  0  0  0  0  0  0
    7.2759   -2.2380   22.4051 H   0  0  0  0  0  0  0  0  0  0  0  0
    8.9510   -1.0098   20.6003 C   0  0  0  0  0  0  0  0  0  0  0  0
    9.4968   -1.4445   21.4420 H   0  0  0  0  0  0  0  0  0  0  0  0
    9.5309   -0.1924   20.1581 H   0  0  0  0  0  0  0  0  0  0  0  0
    8.8685   -1.7800   19.8385 H   0  0  0  0  0  0  0  0  0  0  0  0
   10.7794    0.7346   22.5215 C   0  0  0  0  0  0  0  0  0  0  0  0
   10.4034    0.8432   21.5188 H   0  0  0  0  0  0  0  0  0  0  0  0
   12.1222    0.8784   22.8704 C   0  0  0  0  0  0  0  0  0  0  0  0
   12.8753    1.1365   22.1186 H   0  0  0  0  0  0  0  0  0  0  0  0
   12.4713    0.6790   24.2101 C   0  0  0  0  0  0  0  0  0  0  0  0
   13.4897    0.7942   24.5558 H   0  0  0  0  0  0  0  0  0  0  0  0
  1  2  1  0
  2  3  2  0
  3  4  1  0
  4  5  1  0
  5  6  1  0
  5  7  1  0
  7  8  1  0
  7  9  1  0
  7 10  1  0
 10 11  1  0
 11 12  2  0
 12 13  1  0
 12 14  1  0
 14 15  2  0
 15 16  1  0
 15 17  1  0
 17 18  1  0
 17 19  2  0
 19 20  1  0
 10 21  1  0
 21 22  1  0
 21 23  1  0
 21 24  1  0
 10 25  1  0
 25 26  1  0
 25 27  1  0
 25 28  1  0
  4 29  2  0
 29 30  1  0
 29 31  1  0
 31 32  1  0
 31 33  2  0
 33 34  1  0
 33  2  1  0
 19 11  1  0
M  END
>  <cnnaffinity>  (1) 
-4.8745

>  <filename>  (1) 
CC(C)(CNc1ccccn1)c1cccnc1

$$$$
