
     RDKit          3D

 34 35  0  0  0  0  0  0  0  0999 V2000
    4.9709    1.8138   17.0167 H   0  0  0  0  0  0  0  0  0  0  0  0
    5.4233    1.2737   17.8473 C   0  0  0  0  0  0  0  0  0  0  0  0
    6.5678    0.6266   17.5819 N   0  0  0  0  0  0  0  0  0  0  0  0
    7.1809    0.0079   18.6008 C   0  0  0  0  0  0  0  0  0  0  0  0
    8.1296   -0.4736   18.3756 H   0  0  0  0  0  0  0  0  0  0  0  0
    6.6686   -0.0273   19.9082 C   0  0  0  0  0  0  0  0  0  0  0  0
    7.3564   -0.7144   20.9637 N   0  0  0  0  0  0  0  0  0  0  0  0
    6.5700   -1.5948   21.6502 N   0  0  0  0  0  0  0  0  0  0  0  0
    7.1059   -2.2788   22.6138 C   0  0  0  0  0  0  0  0  0  0  0  0
    6.4368   -2.9765   23.1034 H   0  0  0  0  0  0  0  0  0  0  0  0
    8.4996   -2.1328   23.0323 C   0  0  0  0  0  0  0  0  0  0  0  0
    9.0795   -2.8434   24.0680 N   0  0  0  0  0  0  0  0  0  0  0  0
    9.9907   -2.4805   24.3100 H   0  0  0  0  0  0  0  0  0  0  0  0
    8.9250   -4.2674   24.4044 C   0  0  0  0  0  0  0  0  0  0  0  0
    8.5284   -5.1040   23.1731 C   0  0  0  0  0  0  0  0  0  0  0  0
    8.7605   -6.1661   23.3009 H   0  0  0  0  0  0  0  0  0  0  0  0
    9.0091   -4.7342   22.2724 H   0  0  0  0  0  0  0  0  0  0  0  0
    7.4572   -5.0121   22.9795 H   0  0  0  0  0  0  0  0  0  0  0  0
    7.8253   -4.4525   25.4619 C   0  0  0  0  0  0  0  0  0  0  0  0
    6.8551   -4.1530   25.0498 H   0  0  0  0  0  0  0  0  0  0  0  0
    8.0081   -3.8589   26.3621 H   0  0  0  0  0  0  0  0  0  0  0  0
    7.7567   -5.5099   25.7501 H   0  0  0  0  0  0  0  0  0  0  0  0
   10.2875   -4.6965   24.9697 C   0  0  0  0  0  0  0  0  0  0  0  0
   10.5142   -4.1404   25.8871 H   0  0  0  0  0  0  0  0  0  0  0  0
   10.3105   -5.7636   25.2218 H   0  0  0  0  0  0  0  0  0  0  0  0
   11.0962   -4.5108   24.2507 H   0  0  0  0  0  0  0  0  0  0  0  0
    9.2641   -1.2211   22.3781 C   0  0  0  0  0  0  0  0  0  0  0  0
   10.3056   -1.0507   22.6325 H   0  0  0  0  0  0  0  0  0  0  0  0
    8.7520   -0.4428   21.2794 C   0  0  0  0  0  0  0  0  0  0  0  0
    9.3949    0.3701   20.6393 O   0  0  0  0  0  0  0  0  0  0  0  0
    5.4459    0.6125   20.1639 C   0  0  0  0  0  0  0  0  0  0  0  0
    5.0102    0.5591   21.1605 H   0  0  0  0  0  0  0  0  0  0  0  0
    4.8260    1.2938   19.1120 C   0  0  0  0  0  0  0  0  0  0  0  0
    3.9038    1.8433   19.2685 H   0  0  0  0  0  0  0  0  0  0  0  0
  1  2  1  0
  2  3  2  0
  3  4  1  0
  4  5  1  0
  4  6  2  0
  6  7  1  0
  7  8  1  0
  8  9  2  0
  9 10  1  0
  9 11  1  0
 11 12  1  0
 12 13  1  0
 12 14  1  0
 14 15  1  0
 15 16  1  0
 15 17  1  0
 15 18  1  0
 14 19  1  0
 19 20  1  0
 19 21  1  0
 19 22  1  0
 14 23  1  0
 23 24  1  0
 23 25  1  0
 23 26  1  0
 11 27  2  0
 27 28  1  0
 27 29  1  0
 29 30  2  0
  6 31  1  0
 31 32  1  0
 31 33  2  0
 33 34  1  0
 33  2  1  0
 29  7  1  0
M  END
>  <cnnaffinity>  (1) 
-5.10402

>  <filename>  (1) 
CC(C)(C)Nc1cnn(-c2cccnc2)c(=O)c1

$$$$
