
     RDKit          3D

 45 48  0  0  0  0  0  0  0  0999 V2000
    7.2003   -4.2986   23.6741 C   0  0  0  0  0  0  0  0  0  0  0  0
    6.7267   -3.0508   24.4117 C   0  0  0  0  0  0  0  0  0  0  0  0
    7.7010   -1.8523   24.2636 C   0  0  0  0  0  0  0  0  0  0  0  0
    7.8163   -1.3897   22.8397 C   0  0  0  0  0  0  0  0  0  0  0  0
    6.8692   -0.6893   22.2379 N   0  0  0  0  0  0  0  0  0  0  0  0
    7.2919   -0.5937   20.9575 C   0  0  0  0  0  0  0  0  0  0  0  0
    6.5551    0.0685   19.8827 C   0  0  0  0  0  0  0  0  0  0  0  0
    5.3306    0.7291   20.0728 C   0  0  0  0  0  0  0  0  0  0  0  0
    4.7609    1.3685   18.9740 C   0  0  0  0  0  0  0  0  0  0  0  0
    5.4221    1.3229   17.7423 C   0  0  0  0  0  0  0  0  0  0  0  0
    6.5772    0.6700   17.5459 N   0  0  0  0  0  0  0  0  0  0  0  0
    7.1247    0.0575   18.5982 C   0  0  0  0  0  0  0  0  0  0  0  0
    8.0652   -0.4618   18.4087 H   0  0  0  0  0  0  0  0  0  0  0  0
    5.0037    1.8295   16.8757 H   0  0  0  0  0  0  0  0  0  0  0  0
    3.8304    1.9186   19.0602 H   0  0  0  0  0  0  0  0  0  0  0  0
    4.8500    0.7564   21.0533 H   0  0  0  0  0  0  0  0  0  0  0  0
    8.4500   -1.1820   20.7317 N   0  0  0  0  0  0  0  0  0  0  0  0
    8.7918   -1.6915   21.9354 N   0  0  0  0  0  0  0  0  0  0  0  0
   10.0531   -2.4083   21.9765 C   0  0  0  0  0  0  0  0  0  0  0  0
   11.2592   -1.5796   22.3847 C   0  0  0  0  0  0  0  0  0  0  0  0
   12.3549   -2.3740   22.2203 F   0  0  0  0  0  0  0  0  0  0  0  0
   11.4158   -0.4974   21.5874 F   0  0  0  0  0  0  0  0  0  0  0  0
   11.2206   -1.2491   23.4314 H   0  0  0  0  0  0  0  0  0  0  0  0
   10.2177   -2.7436   20.9512 H   0  0  0  0  0  0  0  0  0  0  0  0
   10.0042   -3.2813   22.6298 H   0  0  0  0  0  0  0  0  0  0  0  0
    7.3002   -1.0181   24.8493 H   0  0  0  0  0  0  0  0  0  0  0  0
    8.6812   -2.1023   24.6841 H   0  0  0  0  0  0  0  0  0  0  0  0
    6.4527   -3.3582   25.8181 N   0  0  0  0  0  0  0  0  0  0  0  0
    7.1882   -4.1608   26.6600 C   0  0  0  0  0  0  0  0  0  0  0  0
    6.7451   -4.2166   27.8818 N   0  0  0  0  0  0  0  0  0  0  0  0
    5.6290   -3.3983   27.8840 C   0  0  0  0  0  0  0  0  0  0  0  0
    4.7780   -3.0441   28.9463 C   0  0  0  0  0  0  0  0  0  0  0  0
    3.7337   -2.1598   28.6956 C   0  0  0  0  0  0  0  0  0  0  0  0
    3.5060   -1.6568   27.3910 C   0  0  0  0  0  0  0  0  0  0  0  0
    4.3386   -2.0028   26.3259 C   0  0  0  0  0  0  0  0  0  0  0  0
    5.4143   -2.8601   26.5965 C   0  0  0  0  0  0  0  0  0  0  0  0
    4.1540   -1.6322   25.3195 H   0  0  0  0  0  0  0  0  0  0  0  0
    2.6723   -0.9803   27.2206 H   0  0  0  0  0  0  0  0  0  0  0  0
    3.0901   -1.8416   29.5130 H   0  0  0  0  0  0  0  0  0  0  0  0
    4.9637   -3.4623   29.9311 H   0  0  0  0  0  0  0  0  0  0  0  0
    8.0618   -4.7054   26.3218 H   0  0  0  0  0  0  0  0  0  0  0  0
    5.7686   -2.7362   23.9834 H   0  0  0  0  0  0  0  0  0  0  0  0
    7.2813   -4.1164   22.5988 H   0  0  0  0  0  0  0  0  0  0  0  0
    6.4905   -5.1162   23.8311 H   0  0  0  0  0  0  0  0  0  0  0  0
    8.1864   -4.6216   24.0327 H   0  0  0  0  0  0  0  0  0  0  0  0
  1  2  1  0
  2  3  1  0
  3  4  1  0
  4  5  2  0
  5  6  1  0
  6  7  1  0
  7  8  2  0
  8  9  1  0
  9 10  2  0
 10 11  1  0
 11 12  2  0
 12 13  1  0
 10 14  1  0
  9 15  1  0
  8 16  1  0
  6 17  2  0
 17 18  1  0
 18 19  1  0
 19 20  1  0
 20 21  1  0
 20 22  1  0
 20 23  1  0
 19 24  1  0
 19 25  1  0
  3 26  1  0
  3 27  1  0
  2 28  1  0
 28 29  1  0
 29 30  2  0
 30 31  1  0
 31 32  2  0
 32 33  1  0
 33 34  2  0
 34 35  1  0
 35 36  2  0
 35 37  1  0
 34 38  1  0
 33 39  1  0
 32 40  1  0
 29 41  1  0
  2 42  1  0
  1 43  1  0
  1 44  1  0
  1 45  1  0
 18  4  1  0
 36 28  1  0
 12  7  1  0
 36 31  1  0
M  END
>  <cnnaffinity>  (1) 
-6.29468

>  <filename>  (1) 
CC(Cc1nc(-c2cccnc2)nn1CC(F)F)n1cnc2ccccc21

$$$$
