
     RDKit          3D

 46 49  0  0  0  0  0  0  0  0999 V2000
   13.6201    1.9225   23.2527 C   0  0  0  0  0  0  0  0  0  0  0  0
   12.1962    1.3735   23.1423 C   0  0  0  0  0  0  0  0  0  0  0  0
   12.2646   -0.1536   23.1149 C   0  0  0  0  0  0  0  0  0  0  0  0
   12.9061   -0.5995   21.9311 O   0  0  0  0  0  0  0  0  0  0  0  0
   12.7232   -1.5405   21.8084 H   0  0  0  0  0  0  0  0  0  0  0  0
   11.2734   -0.6144   23.2252 H   0  0  0  0  0  0  0  0  0  0  0  0
   12.8709   -0.4053   23.9986 H   0  0  0  0  0  0  0  0  0  0  0  0
   11.3613    1.9832   21.9996 C   0  0  0  0  0  0  0  0  0  0  0  0
    9.9475    1.5710   22.0588 N   0  0  0  0  0  0  0  0  0  0  0  0
    9.4883    0.6677   21.1595 N   0  0  0  0  0  0  0  0  0  0  0  0
    8.3422    0.2721   21.6781 C   0  0  0  0  0  0  0  0  0  0  0  0
    7.4354   -0.6848   20.9530 C   0  0  0  0  0  0  0  0  0  0  0  0
    6.6494   -0.0436   19.8114 C   0  0  0  0  0  0  0  0  0  0  0  0
    5.4506    0.6265   20.0792 C   0  0  0  0  0  0  0  0  0  0  0  0
    4.8083    1.3073   19.0424 C   0  0  0  0  0  0  0  0  0  0  0  0
    5.3897    1.3050   17.7717 C   0  0  0  0  0  0  0  0  0  0  0  0
    6.5246    0.6525   17.4864 N   0  0  0  0  0  0  0  0  0  0  0  0
    7.1284   -0.0009   18.4886 C   0  0  0  0  0  0  0  0  0  0  0  0
    8.0565   -0.5089   18.2270 H   0  0  0  0  0  0  0  0  0  0  0  0
    4.9275    1.8522   16.9495 H   0  0  0  0  0  0  0  0  0  0  0  0
    3.8847    1.8464   19.2097 H   0  0  0  0  0  0  0  0  0  0  0  0
    5.0285    0.6222   21.0872 H   0  0  0  0  0  0  0  0  0  0  0  0
    6.7447   -1.0828   21.7031 H   0  0  0  0  0  0  0  0  0  0  0  0
    8.0490   -1.5151   20.5878 H   0  0  0  0  0  0  0  0  0  0  0  0
    8.0533    0.8146   22.8856 N   0  0  0  0  0  0  0  0  0  0  0  0
    9.0434    1.6760   23.0771 C   0  0  0  0  0  0  0  0  0  0  0  0
    9.0861    2.6849   24.1616 C   0  0  0  0  0  0  0  0  0  0  0  0
    8.9172    2.4365   25.4887 C   0  0  0  0  0  0  0  0  0  0  0  0
    8.9688    3.8584   26.4756 S   0  0  0  0  0  0  0  0  0  0  0  0
    9.2572    4.8536   25.0967 C   0  0  0  0  0  0  0  0  0  0  0  0
    9.2017    4.1151   23.9031 C   0  0  0  0  0  0  0  0  0  0  0  0
    9.1826    4.7987   22.6689 C   0  0  0  0  0  0  0  0  0  0  0  0
    9.3696    6.1754   22.6388 C   0  0  0  0  0  0  0  0  0  0  0  0
    9.5196    6.9025   23.8402 C   0  0  0  0  0  0  0  0  0  0  0  0
    9.4775    6.2402   25.0568 C   0  0  0  0  0  0  0  0  0  0  0  0
    9.6262    6.9130   26.2039 F   0  0  0  0  0  0  0  0  0  0  0  0
    9.6073    7.9809   23.8522 H   0  0  0  0  0  0  0  0  0  0  0  0
    9.3924    6.7002   21.6852 H   0  0  0  0  0  0  0  0  0  0  0  0
    8.9686    4.2169   21.7782 H   0  0  0  0  0  0  0  0  0  0  0  0
    8.7229    1.4801   25.9641 H   0  0  0  0  0  0  0  0  0  0  0  0
   11.3950    3.0777   22.0613 H   0  0  0  0  0  0  0  0  0  0  0  0
   11.7339    1.6809   21.0141 H   0  0  0  0  0  0  0  0  0  0  0  0
   11.6761    1.6458   24.0745 H   0  0  0  0  0  0  0  0  0  0  0  0
   14.2428    1.6092   22.4106 H   0  0  0  0  0  0  0  0  0  0  0  0
   14.0745    1.4771   24.1423 H   0  0  0  0  0  0  0  0  0  0  0  0
   13.6472    3.0112   23.3593 H   0  0  0  0  0  0  0  0  0  0  0  0
  1  2  1  0
  2  3  1  0
  3  4  1  0
  4  5  1  0
  3  6  1  0
  3  7  1  0
  2  8  1  0
  8  9  1  0
  9 10  1  0
 10 11  2  0
 11 12  1  0
 12 13  1  0
 13 14  2  0
 14 15  1  0
 15 16  2  0
 16 17  1  0
 17 18  2  0
 18 19  1  0
 16 20  1  0
 15 21  1  0
 14 22  1  0
 12 23  1  0
 12 24  1  0
 11 25  1  0
 25 26  2  0
 26 27  1  0
 27 28  2  0
 28 29  1  0
 29 30  1  0
 30 31  2  0
 31 32  1  0
 32 33  2  0
 33 34  1  0
 34 35  2  0
 35 36  1  0
 34 37  1  0
 33 38  1  0
 32 39  1  0
 28 40  1  0
  8 41  1  0
  8 42  1  0
  2 43  1  0
  1 44  1  0
  1 45  1  0
  1 46  1  0
 26  9  1  0
 31 27  1  0
 18 13  1  0
 35 30  1  0
M  END
>  <cnnaffinity>  (1) 
-5.52794

>  <filename>  (1) 
CC(CO)Cn1nc(Cc2cccnc2)nc1-c1csc2c(F)cccc12

$$$$
