
     RDKit          3D

 41 42  0  0  0  0  0  0  0  0999 V2000
    7.6699    0.5540   22.2452 C   0  0  0  0  0  0  0  0  0  0  0  0
    7.3766   -0.5547   21.2071 C   0  0  0  0  0  0  0  0  0  0  0  0
    8.7451   -1.1695   20.8314 C   0  0  0  0  0  0  0  0  0  0  0  0
    9.2213   -1.5786   21.7254 H   0  0  0  0  0  0  0  0  0  0  0  0
    9.4264   -0.4164   20.4272 H   0  0  0  0  0  0  0  0  0  0  0  0
    8.6451   -1.9771   20.1077 H   0  0  0  0  0  0  0  0  0  0  0  0
    6.5369   -1.7711   21.7618 C   0  0  0  0  0  0  0  0  0  0  0  0
    5.8445   -2.4533   21.0298 O   0  0  0  0  0  0  0  0  0  0  0  0
    6.8192   -2.1557   23.0697 N   0  0  0  0  0  0  0  0  0  0  0  0
    5.9684   -3.0714   23.6908 O   0  0  0  0  0  0  0  0  0  0  0  0
    6.4055   -4.4117   23.3792 C   0  0  0  0  0  0  0  0  0  0  0  0
    5.4520   -5.4253   23.9620 C   0  0  0  0  0  0  0  0  0  0  0  0
    4.3625   -5.8731   23.2113 C   0  0  0  0  0  0  0  0  0  0  0  0
    4.2028   -5.4012   21.9620 F   0  0  0  0  0  0  0  0  0  0  0  0
    3.4351   -6.7988   23.6940 C   0  0  0  0  0  0  0  0  0  0  0  0
    2.2207   -7.1135   22.8566 C   0  0  0  0  0  0  0  0  0  0  0  0
    2.5272   -7.4123   21.5860 F   0  0  0  0  0  0  0  0  0  0  0  0
    1.3691   -6.0696   22.8152 F   0  0  0  0  0  0  0  0  0  0  0  0
    1.5401   -8.1642   23.3548 F   0  0  0  0  0  0  0  0  0  0  0  0
    3.6316   -7.3418   24.9716 C   0  0  0  0  0  0  0  0  0  0  0  0
    4.7124   -6.9217   25.7478 C   0  0  0  0  0  0  0  0  0  0  0  0
    5.6086   -5.9679   25.2498 C   0  0  0  0  0  0  0  0  0  0  0  0
    6.4422   -5.6455   25.8729 H   0  0  0  0  0  0  0  0  0  0  0  0
    4.8492   -7.3387   26.7428 H   0  0  0  0  0  0  0  0  0  0  0  0
    2.9339   -8.0845   25.3565 H   0  0  0  0  0  0  0  0  0  0  0  0
    6.4447   -4.5026   22.2865 H   0  0  0  0  0  0  0  0  0  0  0  0
    7.4157   -4.5576   23.7810 H   0  0  0  0  0  0  0  0  0  0  0  0
    7.0492   -1.4236   23.7266 H   0  0  0  0  0  0  0  0  0  0  0  0
    6.6657    0.0928   19.9905 C   0  0  0  0  0  0  0  0  0  0  0  0
    5.4104    0.7007   20.1497 C   0  0  0  0  0  0  0  0  0  0  0  0
    4.8110    1.3302   19.0530 C   0  0  0  0  0  0  0  0  0  0  0  0
    5.4807    1.3256   17.8259 C   0  0  0  0  0  0  0  0  0  0  0  0
    6.6655    0.7338   17.6369 N   0  0  0  0  0  0  0  0  0  0  0  0
    7.2264    0.1368   18.6996 C   0  0  0  0  0  0  0  0  0  0  0  0
    8.1790   -0.3547   18.5122 H   0  0  0  0  0  0  0  0  0  0  0  0
    5.0434    1.8089   16.9543 H   0  0  0  0  0  0  0  0  0  0  0  0
    3.8567    1.8357   19.1363 H   0  0  0  0  0  0  0  0  0  0  0  0
    4.9047    0.6791   21.1165 H   0  0  0  0  0  0  0  0  0  0  0  0
    8.2849    0.1691   23.0647 H   0  0  0  0  0  0  0  0  0  0  0  0
    8.2590    1.3425   21.7638 H   0  0  0  0  0  0  0  0  0  0  0  0
    6.7697    1.0202   22.6584 H   0  0  0  0  0  0  0  0  0  0  0  0
  1  2  1  0
  2  3  1  0
  3  4  1  0
  3  5  1  0
  3  6  1  0
  2  7  1  0
  7  8  2  0
  7  9  1  0
  9 10  1  0
 10 11  1  0
 11 12  1  0
 12 13  2  0
 13 14  1  0
 13 15  1  0
 15 16  1  0
 16 17  1  0
 16 18  1  0
 16 19  1  0
 15 20  2  0
 20 21  1  0
 21 22  2  0
 22 23  1  0
 21 24  1  0
 20 25  1  0
 11 26  1  0
 11 27  1  0
  9 28  1  0
  2 29  1  0
 29 30  2  0
 30 31  1  0
 31 32  2  0
 32 33  1  0
 33 34  2  0
 34 35  1  0
 32 36  1  0
 31 37  1  0
 30 38  1  0
  1 39  1  0
  1 40  1  0
  1 41  1  0
 22 12  1  0
 34 29  1  0
M  END
>  <cnnaffinity>  (1) 
-5.55203

>  <filename>  (1) 
CC(C)(C(=O)NOCc1cccc(C(F)(F)F)c1F)c1cccnc1

$$$$
