
     RDKit          3D

 53 57  0  0  0  0  0  0  0  0999 V2000
    8.7080    2.0781   25.5708 C   0  0  0  0  0  0  0  0  0  0  0  0
    8.8408    2.8489   24.2472 C   0  0  0  0  0  0  0  0  0  0  0  0
    7.7861    3.9487   23.8850 C   0  0  0  0  0  0  0  0  0  0  0  0
    6.3278    3.5941   24.2428 C   0  0  0  0  0  0  0  0  0  0  0  0
    5.9976    3.8702   25.7118 C   0  0  0  0  0  0  0  0  0  0  0  0
    6.3247    5.2019   26.0795 O   0  0  0  0  0  0  0  0  0  0  0  0
    7.6931    5.5299   25.8892 C   0  0  0  0  0  0  0  0  0  0  0  0
    8.1087    5.3620   24.4276 C   0  0  0  0  0  0  0  0  0  0  0  0
    7.5393    6.0906   23.8328 H   0  0  0  0  0  0  0  0  0  0  0  0
    9.1691    5.6122   24.2908 H   0  0  0  0  0  0  0  0  0  0  0  0
    8.3365    4.9182   26.5431 H   0  0  0  0  0  0  0  0  0  0  0  0
    7.7924    6.5727   26.2087 H   0  0  0  0  0  0  0  0  0  0  0  0
    6.5094    3.1543   26.3736 H   0  0  0  0  0  0  0  0  0  0  0  0
    4.9224    3.7644   25.8865 H   0  0  0  0  0  0  0  0  0  0  0  0
    5.6708    4.2269   23.6320 H   0  0  0  0  0  0  0  0  0  0  0  0
    6.1204    2.5520   23.9747 H   0  0  0  0  0  0  0  0  0  0  0  0
    7.8265    4.0162   22.7877 H   0  0  0  0  0  0  0  0  0  0  0  0
    8.9325    1.8829   23.1305 N   0  0  0  0  0  0  0  0  0  0  0  0
    7.8351    1.2091   22.7022 N   0  0  0  0  0  0  0  0  0  0  0  0
    8.3225    0.3894   21.7906 C   0  0  0  0  0  0  0  0  0  0  0  0
    7.4843   -0.5822   21.0110 C   0  0  0  0  0  0  0  0  0  0  0  0
    6.7019    0.0158   19.8453 C   0  0  0  0  0  0  0  0  0  0  0  0
    5.4849    0.6704   20.0811 C   0  0  0  0  0  0  0  0  0  0  0  0
    4.8399    1.3121   19.0226 C   0  0  0  0  0  0  0  0  0  0  0  0
    5.4311    1.2785   17.7585 C   0  0  0  0  0  0  0  0  0  0  0  0
    6.5724    0.6195   17.4961 N   0  0  0  0  0  0  0  0  0  0  0  0
    7.1768    0.0069   18.5212 C   0  0  0  0  0  0  0  0  0  0  0  0
    8.1088   -0.5087   18.2794 H   0  0  0  0  0  0  0  0  0  0  0  0
    4.9682    1.7909   16.9161 H   0  0  0  0  0  0  0  0  0  0  0  0
    3.9093    1.8529   19.1668 H   0  0  0  0  0  0  0  0  0  0  0  0
    5.0670    0.6909   21.0885 H   0  0  0  0  0  0  0  0  0  0  0  0
    8.1713   -1.3620   20.6697 H   0  0  0  0  0  0  0  0  0  0  0  0
    6.7923   -1.0512   21.7166 H   0  0  0  0  0  0  0  0  0  0  0  0
    9.6619    0.4663   21.6240 N   0  0  0  0  0  0  0  0  0  0  0  0
   10.0228    1.4295   22.4615 C   0  0  0  0  0  0  0  0  0  0  0  0
   11.3904    1.9696   22.6253 C   0  0  0  0  0  0  0  0  0  0  0  0
   12.4689    1.0950   22.7514 C   0  0  0  0  0  0  0  0  0  0  0  0
   13.8036    1.5623   22.7671 C   0  0  0  0  0  0  0  0  0  0  0  0
   14.0890    2.9183   22.6703 C   0  0  0  0  0  0  0  0  0  0  0  0
   13.0077    3.8077   22.6013 C   0  0  0  0  0  0  0  0  0  0  0  0
   11.6663    3.3733   22.5962 C   0  0  0  0  0  0  0  0  0  0  0  0
   10.9504    4.6014   22.4825 C   0  0  0  0  0  0  0  0  0  0  0  0
   11.7375    5.6605   22.4193 N   0  0  0  0  0  0  0  0  0  0  0  0
   12.9807    5.1601   22.4942 N   0  0  0  0  0  0  0  0  0  0  0  0
   13.7859    5.7610   22.4134 H   0  0  0  0  0  0  0  0  0  0  0  0
    9.8865    4.7562   22.3958 H   0  0  0  0  0  0  0  0  0  0  0  0
   15.0923    3.3006   22.5171 H   0  0  0  0  0  0  0  0  0  0  0  0
   14.6246    0.8500   22.8356 H   0  0  0  0  0  0  0  0  0  0  0  0
   12.2732    0.0237   22.7927 H   0  0  0  0  0  0  0  0  0  0  0  0
    9.8123    3.3383   24.2952 H   0  0  0  0  0  0  0  0  0  0  0  0
    7.7862    1.4881   25.6077 H   0  0  0  0  0  0  0  0  0  0  0  0
    9.5501    1.3822   25.6669 H   0  0  0  0  0  0  0  0  0  0  0  0
    8.7455    2.7512   26.4358 H   0  0  0  0  0  0  0  0  0  0  0  0
  1  2  1  0
  2  3  1  0
  3  4  1  0
  4  5  1  0
  5  6  1  0
  6  7  1  0
  7  8  1  0
  8  9  1  0
  8 10  1  0
  7 11  1  0
  7 12  1  0
  5 13  1  0
  5 14  1  0
  4 15  1  0
  4 16  1  0
  3 17  1  0
  2 18  1  0
 18 19  1  0
 19 20  2  0
 20 21  1  0
 21 22  1  0
 22 23  2  0
 23 24  1  0
 24 25  2  0
 25 26  1  0
 26 27  2  0
 27 28  1  0
 25 29  1  0
 24 30  1  0
 23 31  1  0
 21 32  1  0
 21 33  1  0
 20 34  1  0
 34 35  2  0
 35 36  1  0
 36 37  2  0
 37 38  1  0
 38 39  2  0
 39 40  1  0
 40 41  2  0
 41 42  1  0
 42 43  2  0
 43 44  1  0
 44 45  1  0
 42 46  1  0
 39 47  1  0
 38 48  1  0
 37 49  1  0
  2 50  1  0
  1 51  1  0
  1 52  1  0
  1 53  1  0
  8  3  1  0
 35 18  1  0
 41 36  1  0
 27 22  1  0
 44 40  1  0
M  END
>  <cnnaffinity>  (1) 
-6.31357

>  <filename>  (1) 
CC(C1CCOCC1)n1nc(Cc2cccnc2)nc1-c1cccc2[nH]ncc12

$$$$
