
     RDKit          3D

 36 38  0  0  0  0  0  0  0  0999 V2000
    7.3414   -3.8481   25.9459 C   0  0  0  0  0  0  0  0  0  0  0  0
    7.9245   -2.6206   25.2662 C   0  0  0  0  0  0  0  0  0  0  0  0
    8.0889   -1.4403   26.2425 C   0  0  0  0  0  0  0  0  0  0  0  0
    8.7302   -0.2215   25.6309 C   0  0  0  0  0  0  0  0  0  0  0  0
   10.1357   -0.0665   25.5229 C   0  0  0  0  0  0  0  0  0  0  0  0
   10.7175    0.9697   24.8937 N   0  0  0  0  0  0  0  0  0  0  0  0
    9.8720    1.8864   24.3889 C   0  0  0  0  0  0  0  0  0  0  0  0
    8.4817    1.7791   24.5385 C   0  0  0  0  0  0  0  0  0  0  0  0
    7.9039    0.7335   25.1599 N   0  0  0  0  0  0  0  0  0  0  0  0
    7.8098    2.5410   24.1521 H   0  0  0  0  0  0  0  0  0  0  0  0
   10.3196    2.7223   23.8601 H   0  0  0  0  0  0  0  0  0  0  0  0
   10.8154   -0.7793   25.9724 H   0  0  0  0  0  0  0  0  0  0  0  0
    7.1016   -1.1548   26.6168 H   0  0  0  0  0  0  0  0  0  0  0  0
    8.6911   -1.7904   27.0920 H   0  0  0  0  0  0  0  0  0  0  0  0
    7.1018   -2.2953   24.1170 N   0  0  0  0  0  0  0  0  0  0  0  0
    7.5641   -1.7763   22.9541 C   0  0  0  0  0  0  0  0  0  0  0  0
    6.7373   -1.1768   22.1561 N   0  0  0  0  0  0  0  0  0  0  0  0
    7.3898   -0.7328   21.0319 C   0  0  0  0  0  0  0  0  0  0  0  0
    6.6267   -0.0314   19.9855 C   0  0  0  0  0  0  0  0  0  0  0  0
    5.4019    0.6318   20.2042 C   0  0  0  0  0  0  0  0  0  0  0  0
    4.8061    1.2909   19.1308 C   0  0  0  0  0  0  0  0  0  0  0  0
    5.4386    1.2626   17.8831 C   0  0  0  0  0  0  0  0  0  0  0  0
    6.5943    0.6193   17.6549 N   0  0  0  0  0  0  0  0  0  0  0  0
    7.1600    0.0008   18.6904 C   0  0  0  0  0  0  0  0  0  0  0  0
    8.1043   -0.5013   18.4664 H   0  0  0  0  0  0  0  0  0  0  0  0
    5.0026    1.7753   17.0300 H   0  0  0  0  0  0  0  0  0  0  0  0
    3.8747    1.8406   19.2440 H   0  0  0  0  0  0  0  0  0  0  0  0
    4.9414    0.6430   21.1962 H   0  0  0  0  0  0  0  0  0  0  0  0
    8.7307   -0.9783   20.9776 C   0  0  0  0  0  0  0  0  0  0  0  0
    9.2164   -1.8413   22.4055 S   0  0  0  0  0  0  0  0  0  0  0  0
    9.4526   -0.6864   20.2300 H   0  0  0  0  0  0  0  0  0  0  0  0
    6.1840   -1.8812   24.2270 H   0  0  0  0  0  0  0  0  0  0  0  0
    8.9195   -2.8887   24.8921 H   0  0  0  0  0  0  0  0  0  0  0  0
    7.2109   -4.6502   25.2126 H   0  0  0  0  0  0  0  0  0  0  0  0
    6.3629   -3.6076   26.3734 H   0  0  0  0  0  0  0  0  0  0  0  0
    8.0006   -4.2041   26.7466 H   0  0  0  0  0  0  0  0  0  0  0  0
  1  2  1  0
  2  3  1  0
  3  4  1  0
  4  5  2  0
  5  6  1  0
  6  7  2  0
  7  8  1  0
  8  9  2  0
  8 10  1  0
  7 11  1  0
  5 12  1  0
  3 13  1  0
  3 14  1  0
  2 15  1  0
 15 16  1  0
 16 17  2  0
 17 18  1  0
 18 19  1  0
 19 20  2  0
 20 21  1  0
 21 22  2  0
 22 23  1  0
 23 24  2  0
 24 25  1  0
 22 26  1  0
 21 27  1  0
 20 28  1  0
 18 29  2  0
 29 30  1  0
 29 31  1  0
 15 32  1  0
  2 33  1  0
  1 34  1  0
  1 35  1  0
  1 36  1  0
  9  4  1  0
 30 16  1  0
 24 19  1  0
M  END
>  <cnnaffinity>  (1) 
-5.61879

>  <filename>  (1) 
CC(Cc1cnccn1)Nc1nc(-c2cccnc2)cs1

$$$$
