
     RDKit          3D

 34 35  0  0  0  0  0  0  0  0999 V2000
    8.9003   -0.9212   21.0046 C   0  0  0  0  0  0  0  0  0  0  0  0
    7.6685   -0.0585   21.3588 C   0  0  0  0  0  0  0  0  0  0  0  0
    8.1533    1.1688   22.1619 C   0  0  0  0  0  0  0  0  0  0  0  0
    8.6510    0.8585   23.0879 H   0  0  0  0  0  0  0  0  0  0  0  0
    8.8701    1.7626   21.5819 H   0  0  0  0  0  0  0  0  0  0  0  0
    7.3138    1.8257   22.4184 H   0  0  0  0  0  0  0  0  0  0  0  0
    6.7125   -0.9122   22.2891 C   0  0  0  0  0  0  0  0  0  0  0  0
    5.8877   -1.9021   21.6015 N   0  0  0  0  0  0  0  0  0  0  0  0
    6.3504   -3.1227   21.2394 C   0  0  0  0  0  0  0  0  0  0  0  0
    5.8295   -3.7799   20.0897 C   0  0  0  0  0  0  0  0  0  0  0  0
    4.9161   -2.9532   18.8830 Cl  0  0  0  0  0  0  0  0  0  0  0  0
    6.1842   -5.1024   19.9244 C   0  0  0  0  0  0  0  0  0  0  0  0
    5.6875   -5.8375   18.9308 F   0  0  0  0  0  0  0  0  0  0  0  0
    7.0858   -5.7036   20.7918 C   0  0  0  0  0  0  0  0  0  0  0  0
    7.6037   -4.9441   21.8245 C   0  0  0  0  0  0  0  0  0  0  0  0
    7.2732   -3.6742   22.0247 N   0  0  0  0  0  0  0  0  0  0  0  0
    8.2955   -5.3843   22.5438 H   0  0  0  0  0  0  0  0  0  0  0  0
    7.3648   -6.7223   20.6210 H   0  0  0  0  0  0  0  0  0  0  0  0
    5.2655   -1.5221   20.9100 H   0  0  0  0  0  0  0  0  0  0  0  0
    6.0536   -0.2409   22.8605 H   0  0  0  0  0  0  0  0  0  0  0  0
    7.3191   -1.4292   23.0408 H   0  0  0  0  0  0  0  0  0  0  0  0
    6.9389    0.4607   20.1030 C   0  0  0  0  0  0  0  0  0  0  0  0
    5.6968    1.1154   20.2115 C   0  0  0  0  0  0  0  0  0  0  0  0
    5.0082    1.4841   19.0523 C   0  0  0  0  0  0  0  0  0  0  0  0
    5.5972    1.2314   17.8092 C   0  0  0  0  0  0  0  0  0  0  0  0
    6.8039    0.6688   17.6755 N   0  0  0  0  0  0  0  0  0  0  0  0
    7.4473    0.3097   18.7972 C   0  0  0  0  0  0  0  0  0  0  0  0
    8.4308   -0.1284   18.6441 H   0  0  0  0  0  0  0  0  0  0  0  0
    5.0792    1.4889   16.8878 H   0  0  0  0  0  0  0  0  0  0  0  0
    4.0367    1.9617   19.1020 H   0  0  0  0  0  0  0  0  0  0  0  0
    5.2631    1.3233   21.1917 H   0  0  0  0  0  0  0  0  0  0  0  0
    8.6601   -1.7449   20.3236 H   0  0  0  0  0  0  0  0  0  0  0  0
    9.6827   -0.3180   20.5329 H   0  0  0  0  0  0  0  0  0  0  0  0
    9.3250   -1.3592   21.9146 H   0  0  0  0  0  0  0  0  0  0  0  0
  1  2  1  0
  2  3  1  0
  3  4  1  0
  3  5  1  0
  3  6  1  0
  2  7  1  0
  7  8  1  0
  8  9  1  0
  9 10  2  0
 10 11  1  0
 10 12  1  0
 12 13  1  0
 12 14  2  0
 14 15  1  0
 15 16  2  0
 15 17  1  0
 14 18  1  0
  8 19  1  0
  7 20  1  0
  7 21  1  0
  2 22  1  0
 22 23  2  0
 23 24  1  0
 24 25  2  0
 25 26  1  0
 26 27  2  0
 27 28  1  0
 25 29  1  0
 24 30  1  0
 23 31  1  0
  1 32  1  0
  1 33  1  0
  1 34  1  0
 16  9  1  0
 27 22  1  0
M  END
>  <cnnaffinity>  (1) 
-4.64019

>  <filename>  (1) 
CC(C)(CNc1nccc(F)c1Cl)c1cccnc1

$$$$
