
     RDKit          3D

 35 36  0  0  0  0  0  0  0  0999 V2000
    6.4395   -3.1024   20.5342 C   0  0  0  0  0  0  0  0  0  0  0  0
    6.5357   -1.9662   21.5577 C   0  0  0  0  0  0  0  0  0  0  0  0
    7.2937   -0.7207   21.0605 C   0  0  0  0  0  0  0  0  0  0  0  0
    6.6193    0.0257   19.9200 C   0  0  0  0  0  0  0  0  0  0  0  0
    5.4028    0.7008   20.1176 C   0  0  0  0  0  0  0  0  0  0  0  0
    4.8066    1.3619   19.0402 C   0  0  0  0  0  0  0  0  0  0  0  0
    5.4402    1.3222   17.7940 C   0  0  0  0  0  0  0  0  0  0  0  0
    6.5950    0.6771   17.5767 N   0  0  0  0  0  0  0  0  0  0  0  0
    7.1608    0.0593   18.6214 C   0  0  0  0  0  0  0  0  0  0  0  0
    8.1120   -0.4356   18.4195 H   0  0  0  0  0  0  0  0  0  0  0  0
    5.0058    1.8272   16.9308 H   0  0  0  0  0  0  0  0  0  0  0  0
    3.8764    1.9115   19.1460 H   0  0  0  0  0  0  0  0  0  0  0  0
    4.9434    0.7141   21.1101 H   0  0  0  0  0  0  0  0  0  0  0  0
    7.3797   -0.0577   21.9331 H   0  0  0  0  0  0  0  0  0  0  0  0
    8.3106   -1.0114   20.7610 H   0  0  0  0  0  0  0  0  0  0  0  0
    7.2330   -2.4469   22.8183 N   0  0  0  0  0  4  0  0  0  0  0  0
    6.5824   -3.5847   23.5074 C   0  0  0  0  0  0  0  0  0  0  0  0
    7.1728   -4.8907   23.0306 C   0  0  0  0  0  0  0  0  0  0  0  0
    6.4222   -5.8840   22.4460 C   0  0  0  0  0  0  0  0  0  0  0  0
    4.9525   -5.7744   21.9633 C   0  0  0  0  0  0  0  0  0  0  0  0
    4.4380   -4.6291   21.9878 O   0  0  0  0  0  0  0  0  0  0  0  0
    4.3800   -6.8048   21.5921 O   0  0  0  0  0  1  0  0  0  0  0  0
    7.1885   -6.9993   22.2736 O   0  0  0  0  0  0  0  0  0  0  0  0
    8.4349   -6.7024   22.7066 C   0  0  0  0  0  0  0  0  0  0  0  0
    8.4955   -5.4275   23.1672 C   0  0  0  0  0  0  0  0  0  0  0  0
    9.3765   -4.9272   23.5606 H   0  0  0  0  0  0  0  0  0  0  0  0
    9.1735   -7.4871   22.5828 H   0  0  0  0  0  0  0  0  0  0  0  0
    5.5225   -3.6128   23.2494 H   0  0  0  0  0  0  0  0  0  0  0  0
    6.6917   -3.4782   24.5893 H   0  0  0  0  0  0  0  0  0  0  0  0
    8.1665   -2.8284   22.5384 H   0  0  0  0  0  0  0  0  0  0  0  0
    7.3467   -1.6458   23.4592 H   0  0  0  0  0  0  0  0  0  0  0  0
    5.5158   -1.6569   21.8376 H   0  0  0  0  0  0  0  0  0  0  0  0
    5.5516   -3.7058   20.7216 H   0  0  0  0  0  0  0  0  0  0  0  0
    6.3625   -2.6930   19.5251 H   0  0  0  0  0  0  0  0  0  0  0  0
    7.3081   -3.7691   20.6012 H   0  0  0  0  0  0  0  0  0  0  0  0
  1  2  1  0
  2  3  1  0
  3  4  1  0
  4  5  2  0
  5  6  1  0
  6  7  2  0
  7  8  1  0
  8  9  2  0
  9 10  1  0
  7 11  1  0
  6 12  1  0
  5 13  1  0
  3 14  1  0
  3 15  1  0
  2 16  1  0
 16 17  1  0
 17 18  1  0
 18 19  2  0
 19 20  1  0
 20 21  2  0
 20 22  1  0
 19 23  1  0
 23 24  1  0
 24 25  2  0
 25 26  1  0
 24 27  1  0
 17 28  1  0
 17 29  1  0
 16 30  1  0
 16 31  1  0
  2 32  1  0
  1 33  1  0
  1 34  1  0
  1 35  1  0
  9  4  1  0
 25 18  1  0
M  CHG  2  16   1  22  -1
M  END
>  <cnnaffinity>  (1) 
-4.3988

>  <filename>  (1) 
CC(Cc1cccnc1)[NH2+]Cc1ccoc1C(=O)[O-]

$$$$
