
     RDKit          3D

 40 41  0  0  0  0  0  0  0  0999 V2000
    5.6352   -3.1989   22.4537 C   0  0  0  0  0  0  0  0  0  0  0  0
    7.0751   -2.9957   22.9361 C   0  0  0  0  0  0  0  0  0  0  0  0
    7.4112   -3.7559   24.2264 C   0  0  0  0  0  0  0  0  0  0  0  0
    6.5538   -3.2927   25.3868 C   0  0  0  0  0  0  0  0  0  0  0  0
    6.8288   -2.3074   26.0442 O   0  0  0  0  0  0  0  0  0  0  0  0
    5.4344   -4.0495   25.5793 N   0  0  0  0  0  0  0  0  0  0  0  0
    4.5650   -4.0543   26.6872 C   0  0  0  0  0  0  0  0  0  0  0  0
    3.2033   -4.2876   26.4643 C   0  0  0  0  0  0  0  0  0  0  0  0
    2.3172   -4.3005   27.5466 C   0  0  0  0  0  0  0  0  0  0  0  0
    2.8012   -4.1224   28.8506 C   0  0  0  0  0  0  0  0  0  0  0  0
    4.1721   -3.9314   29.0661 C   0  0  0  0  0  0  0  0  0  0  0  0
    5.0582   -3.8869   27.9841 C   0  0  0  0  0  0  0  0  0  0  0  0
    6.1226   -3.7331   28.1164 H   0  0  0  0  0  0  0  0  0  0  0  0
    4.5623   -3.8163   30.0768 H   0  0  0  0  0  0  0  0  0  0  0  0
    2.1185   -4.1296   29.6935 H   0  0  0  0  0  0  0  0  0  0  0  0
    1.2549   -4.4579   27.3744 H   0  0  0  0  0  0  0  0  0  0  0  0
    2.8489   -4.4479   25.4501 H   0  0  0  0  0  0  0  0  0  0  0  0
    5.2004   -4.6675   24.8247 H   0  0  0  0  0  0  0  0  0  0  0  0
    7.3045   -4.8365   24.0954 H   0  0  0  0  0  0  0  0  0  0  0  0
    8.4489   -3.5447   24.4953 H   0  0  0  0  0  0  0  0  0  0  0  0
    7.3825   -1.5969   23.2156 N   0  0  0  0  0  0  0  0  0  0  0  0
    7.2099   -0.5157   22.4150 C   0  0  0  0  0  0  0  0  0  0  0  0
    7.0224    0.9728   23.1212 S   0  0  0  0  0  0  0  0  0  0  0  0
    7.2377   -0.7759   21.0757 N   0  0  0  0  0  0  0  0  0  0  0  0
    6.6488   -0.0332   20.0078 C   0  0  0  0  0  0  0  0  0  0  0  0
    5.4515    0.6681   20.1972 C   0  0  0  0  0  0  0  0  0  0  0  0
    4.8696    1.3124   19.1025 C   0  0  0  0  0  0  0  0  0  0  0  0
    5.5097    1.2581   17.8627 C   0  0  0  0  0  0  0  0  0  0  0  0
    6.6571    0.5899   17.6618 N   0  0  0  0  0  0  0  0  0  0  0  0
    7.2079   -0.0412   18.7091 C   0  0  0  0  0  0  0  0  0  0  0  0
    8.1370   -0.5804   18.5108 H   0  0  0  0  0  0  0  0  0  0  0  0
    5.0808    1.7599   16.9966 H   0  0  0  0  0  0  0  0  0  0  0  0
    3.9368    1.8572   19.2062 H   0  0  0  0  0  0  0  0  0  0  0  0
    5.0032    0.6969   21.1908 H   0  0  0  0  0  0  0  0  0  0  0  0
    7.6033   -1.6915   20.8720 H   0  0  0  0  0  0  0  0  0  0  0  0
    7.2970   -1.3218   24.1892 H   0  0  0  0  0  0  0  0  0  0  0  0
    7.7627   -3.3571   22.1545 H   0  0  0  0  0  0  0  0  0  0  0  0
    5.4755   -4.2070   22.0623 H   0  0  0  0  0  0  0  0  0  0  0  0
    4.9032   -3.0206   23.2452 H   0  0  0  0  0  0  0  0  0  0  0  0
    5.4144   -2.4884   21.6554 H   0  0  0  0  0  0  0  0  0  0  0  0
  1  2  1  0
  2  3  1  0
  3  4  1  0
  4  5  2  0
  4  6  1  0
  6  7  1  0
  7  8  2  0
  8  9  1  0
  9 10  2  0
 10 11  1  0
 11 12  2  0
 12 13  1  0
 11 14  1  0
 10 15  1  0
  9 16  1  0
  8 17  1  0
  6 18  1  0
  3 19  1  0
  3 20  1  0
  2 21  1  0
 21 22  1  0
 22 23  2  0
 22 24  1  0
 24 25  1  0
 25 26  2  0
 26 27  1  0
 27 28  2  0
 28 29  1  0
 29 30  2  0
 30 31  1  0
 28 32  1  0
 27 33  1  0
 26 34  1  0
 24 35  1  0
 21 36  1  0
  2 37  1  0
  1 38  1  0
  1 39  1  0
  1 40  1  0
 12  7  1  0
 30 25  1  0
M  END
>  <cnnaffinity>  (1) 
-5.0467

>  <filename>  (1) 
CC(CC(=O)Nc1ccccc1)NC(=S)Nc1cccnc1

$$$$
