
     RDKit          3D

 37 39  0  0  0  0  0  0  0  0999 V2000
   10.5939   -0.7273   24.2455 C   0  0  0  0  0  0  0  0  0  0  0  0
   11.0436   -0.9947   22.8147 C   0  0  0  0  0  0  0  0  0  0  0  0
   10.8987    0.2433   21.9007 C   0  0  0  0  0  0  0  0  0  0  0  0
   11.7280    1.4235   22.3602 C   0  0  0  0  0  0  0  0  0  0  0  0
   11.1521    2.6418   22.7655 C   0  0  0  0  0  0  0  0  0  0  0  0
   11.9525    3.7265   23.1470 C   0  0  0  0  0  0  0  0  0  0  0  0
   13.3341    3.5704   23.1530 C   0  0  0  0  0  0  0  0  0  0  0  0
   14.1125    4.5828   23.5761 F   0  0  0  0  0  0  0  0  0  0  0  0
   13.9364    2.3938   22.7282 C   0  0  0  0  0  0  0  0  0  0  0  0
   13.1268    1.3216   22.3563 C   0  0  0  0  0  0  0  0  0  0  0  0
   13.5957    0.3935   22.0362 H   0  0  0  0  0  0  0  0  0  0  0  0
   15.0109    2.3433   22.5853 H   0  0  0  0  0  0  0  0  0  0  0  0
   11.5230    4.6926   23.3945 H   0  0  0  0  0  0  0  0  0  0  0  0
   10.0693    2.7545   22.7721 H   0  0  0  0  0  0  0  0  0  0  0  0
    9.8420    0.5323   21.8506 H   0  0  0  0  0  0  0  0  0  0  0  0
   11.1859   -0.0532   20.8831 H   0  0  0  0  0  0  0  0  0  0  0  0
   10.1799   -2.4784   22.1671 S   0  0  0  0  0  0  0  0  0  0  0  0
    8.5820   -1.7933   21.8728 C   0  0  0  0  0  0  0  0  0  0  0  0
    7.6169   -1.7691   22.7717 N   0  0  0  0  0  0  0  0  0  0  0  0
    6.6158   -1.1367   22.0935 N   0  0  0  0  0  0  0  0  0  0  0  0
    7.0240   -0.8157   20.8512 C   0  0  0  0  0  0  0  0  0  0  0  0
    6.3238   -0.0556   19.8123 C   0  0  0  0  0  0  0  0  0  0  0  0
    5.1550    0.7024   19.9753 C   0  0  0  0  0  0  0  0  0  0  0  0
    4.6962    1.4411   18.8842 C   0  0  0  0  0  0  0  0  0  0  0  0
    5.4017    1.3865   17.6763 C   0  0  0  0  0  0  0  0  0  0  0  0
    6.5127    0.6553   17.5047 N   0  0  0  0  0  0  0  0  0  0  0  0
    6.9601   -0.0281   18.5581 C   0  0  0  0  0  0  0  0  0  0  0  0
    7.8845   -0.5821   18.4221 H   0  0  0  0  0  0  0  0  0  0  0  0
    5.0683    1.9583   16.8122 H   0  0  0  0  0  0  0  0  0  0  0  0
    3.8261    2.0845   18.9607 H   0  0  0  0  0  0  0  0  0  0  0  0
    4.6254    0.7519   20.9299 H   0  0  0  0  0  0  0  0  0  0  0  0
    8.2594   -1.2495   20.6812 N   0  0  0  0  0  0  0  0  0  0  0  0
    5.7415   -0.9235   22.5581 H   0  0  0  0  0  0  0  0  0  0  0  0
   12.0937   -1.3225   22.8032 H   0  0  0  0  0  0  0  0  0  0  0  0
    9.5436   -0.4265   24.2555 H   0  0  0  0  0  0  0  0  0  0  0  0
   10.6817   -1.6199   24.8693 H   0  0  0  0  0  0  0  0  0  0  0  0
   11.1882    0.0700   24.7003 H   0  0  0  0  0  0  0  0  0  0  0  0
  1  2  1  0
  2  3  1  0
  3  4  1  0
  4  5  2  0
  5  6  1  0
  6  7  2  0
  7  8  1  0
  7  9  1  0
  9 10  2  0
 10 11  1  0
  9 12  1  0
  6 13  1  0
  5 14  1  0
  3 15  1  0
  3 16  1  0
  2 17  1  0
 17 18  1  0
 18 19  2  0
 19 20  1  0
 20 21  1  0
 21 22  1  0
 22 23  2  0
 23 24  1  0
 24 25  2  0
 25 26  1  0
 26 27  2  0
 27 28  1  0
 25 29  1  0
 24 30  1  0
 23 31  1  0
 21 32  2  0
 20 33  1  0
  2 34  1  0
  1 35  1  0
  1 36  1  0
  1 37  1  0
 10  4  1  0
 32 18  1  0
 27 22  1  0
M  END
>  <cnnaffinity>  (1) 
-5.77073

>  <filename>  (1) 
CC(Cc1ccc(F)cc1)Sc1n[nH]c(-c2cccnc2)n1

$$$$
