
     RDKit          3D

 32 33  0  0  0  0  0  0  0  0999 V2000
    4.0961   -6.0735   22.4338 H   0  0  0  0  0  0  0  0  0  0  0  0
    4.6482   -5.3188   22.9836 C   0  0  0  0  0  0  0  0  0  0  0  0
    4.9886   -5.1998   24.2718 C   0  0  0  0  0  0  0  0  0  0  0  0
    4.8169   -5.8258   25.1360 H   0  0  0  0  0  0  0  0  0  0  0  0
    5.7945   -3.9502   24.4509 C   0  0  0  0  0  0  0  0  0  0  0  0
    6.2828   -3.5382   25.4602 O   0  0  0  0  0  0  0  0  0  0  0  0
    5.8377   -3.3551   23.1929 N   0  0  0  0  0  0  0  0  0  0  0  0
    6.7866   -2.3882   22.8888 C   0  0  0  0  0  0  0  0  0  0  0  0
    7.8116   -2.3157   23.5258 O   0  0  0  0  0  0  0  0  0  0  0  0
    6.3883   -1.6146   21.8527 N   0  0  0  0  0  0  0  0  0  0  0  0
    5.8023   -2.1643   21.2377 H   0  0  0  0  0  0  0  0  0  0  0  0
    7.3134   -0.6637   21.2277 C   0  0  0  0  0  0  0  0  0  0  0  0
    6.5818   -0.0591   20.0304 C   0  0  0  0  0  0  0  0  0  0  0  0
    7.1261   -0.0406   18.7359 C   0  0  0  0  0  0  0  0  0  0  0  0
    8.0694   -0.5442   18.5388 H   0  0  0  0  0  0  0  0  0  0  0  0
    6.5848    0.5867   17.6787 N   0  0  0  0  0  0  0  0  0  0  0  0
    5.4373    1.2430   17.8823 C   0  0  0  0  0  0  0  0  0  0  0  0
    5.0201    1.7738   17.0284 H   0  0  0  0  0  0  0  0  0  0  0  0
    4.7821    1.2737   19.1186 C   0  0  0  0  0  0  0  0  0  0  0  0
    3.8605    1.8329   19.2316 H   0  0  0  0  0  0  0  0  0  0  0  0
    5.3571    0.6090   20.2013 C   0  0  0  0  0  0  0  0  0  0  0  0
    4.8731    0.6114   21.1805 H   0  0  0  0  0  0  0  0  0  0  0  0
    7.6856    0.4298   22.2345 C   0  0  0  0  0  0  0  0  0  0  0  0
    8.2423    1.2234   21.7190 H   0  0  0  0  0  0  0  0  0  0  0  0
    6.7901    0.8514   22.6974 H   0  0  0  0  0  0  0  0  0  0  0  0
    8.3009   -0.0115   23.0223 H   0  0  0  0  0  0  0  0  0  0  0  0
    8.6180   -1.3636   20.8275 C   0  0  0  0  0  0  0  0  0  0  0  0
    9.0487   -1.8536   21.7012 H   0  0  0  0  0  0  0  0  0  0  0  0
    8.4101   -2.1416   20.1122 H   0  0  0  0  0  0  0  0  0  0  0  0
    9.3193   -0.6470   20.3867 H   0  0  0  0  0  0  0  0  0  0  0  0
    5.2396   -4.1732   22.2579 C   0  0  0  0  0  0  0  0  0  0  0  0
    5.2546   -3.9714   21.0647 O   0  0  0  0  0  0  0  0  0  0  0  0
  1  2  1  0
  2  3  2  0
  3  4  1  0
  3  5  1  0
  5  6  2  0
  5  7  1  0
  7  8  1  0
  8  9  2  0
  8 10  1  0
 10 11  1  0
 10 12  1  0
 12 13  1  0
 13 14  2  0
 14 15  1  0
 14 16  1  0
 16 17  2  0
 17 18  1  0
 17 19  1  0
 19 20  1  0
 19 21  2  0
 21 22  1  0
 12 23  1  0
 23 24  1  0
 23 25  1  0
 23 26  1  0
 12 27  1  0
 27 28  1  0
 27 29  1  0
 27 30  1  0
  7 31  1  0
 31 32  2  0
 31  2  1  0
 21 13  1  0
M  END
>  <cnnaffinity>  (1) 
-4.97018

>  <filename>  (1) 
CC(C)(NC(=O)N1C(=O)C=CC1=O)c1cccnc1

$$$$
