
     RDKit          3D

 36 37  0  0  0  0  0  0  0  0999 V2000
    4.9349    1.8033   16.9919 H   0  0  0  0  0  0  0  0  0  0  0  0
    5.3966    1.2985   17.8392 C   0  0  0  0  0  0  0  0  0  0  0  0
    6.5572    0.6718   17.5875 N   0  0  0  0  0  0  0  0  0  0  0  0
    7.1569    0.0483   18.6037 C   0  0  0  0  0  0  0  0  0  0  0  0
    8.0973   -0.4458   18.3667 H   0  0  0  0  0  0  0  0  0  0  0  0
    6.6533    0.0216   19.9125 C   0  0  0  0  0  0  0  0  0  0  0  0
    7.4143   -0.7304   20.9206 C   0  0  0  0  0  0  0  0  0  0  0  0
    7.8739   -1.9435   20.7624 N   0  0  0  0  0  0  0  0  0  0  0  0
    8.4730   -2.3295   21.9338 N   0  0  0  0  0  0  0  0  0  0  0  0
    8.3773   -1.3242   22.7572 C   0  0  0  0  0  0  0  0  0  0  0  0
    8.7475   -1.2907   23.7762 H   0  0  0  0  0  0  0  0  0  0  0  0
    7.7230   -0.2679   22.1834 N   0  0  0  0  0  0  0  0  0  0  0  0
    7.4502    1.0288   22.8231 C   0  0  0  0  0  0  0  0  0  0  0  0
    8.3885    1.4536   23.1970 H   0  0  0  0  0  0  0  0  0  0  0  0
    7.0581    1.7171   22.0757 H   0  0  0  0  0  0  0  0  0  0  0  0
    6.4102    1.0026   23.9607 C   0  0  0  0  0  0  0  0  0  0  0  0
    5.2371    1.2577   23.7494 O   0  0  0  0  0  0  0  0  0  0  0  0
    6.9008    0.6757   25.1857 N   0  0  0  0  0  0  0  0  0  0  0  0
    7.8955    0.5756   25.2864 H   0  0  0  0  0  0  0  0  0  0  0  0
    6.0709    0.4190   26.3694 C   0  0  0  0  0  0  0  0  0  0  0  0
    6.9989    0.0335   27.5219 C   0  0  0  0  0  0  0  0  0  0  0  0
    7.7010    0.8419   27.7608 H   0  0  0  0  0  0  0  0  0  0  0  0
    6.3967   -0.1648   28.4179 H   0  0  0  0  0  0  0  0  0  0  0  0
    7.5669   -0.8754   27.2882 H   0  0  0  0  0  0  0  0  0  0  0  0
    5.1086   -0.7402   26.0755 C   0  0  0  0  0  0  0  0  0  0  0  0
    4.5328   -0.9925   26.9741 H   0  0  0  0  0  0  0  0  0  0  0  0
    4.4177   -0.4673   25.2747 H   0  0  0  0  0  0  0  0  0  0  0  0
    5.6706   -1.6262   25.7576 H   0  0  0  0  0  0  0  0  0  0  0  0
    5.2907    1.6883   26.7343 C   0  0  0  0  0  0  0  0  0  0  0  0
    5.9845    2.5237   26.8803 H   0  0  0  0  0  0  0  0  0  0  0  0
    4.6010    1.9513   25.9299 H   0  0  0  0  0  0  0  0  0  0  0  0
    4.7252    1.5340   27.6615 H   0  0  0  0  0  0  0  0  0  0  0  0
    5.4353    0.6720   20.1654 C   0  0  0  0  0  0  0  0  0  0  0  0
    5.0011    0.6793   21.1669 H   0  0  0  0  0  0  0  0  0  0  0  0
    4.7947    1.3144   19.1029 C   0  0  0  0  0  0  0  0  0  0  0  0
    3.8596    1.8474   19.2374 H   0  0  0  0  0  0  0  0  0  0  0  0
  1  2  1  0
  2  3  2  0
  3  4  1  0
  4  5  1  0
  4  6  2  0
  6  7  1  0
  7  8  2  0
  8  9  1  0
  9 10  2  0
 10 11  1  0
 10 12  1  0
 12 13  1  0
 13 14  1  0
 13 15  1  0
 13 16  1  0
 16 17  2  0
 16 18  1  0
 18 19  1  0
 18 20  1  0
 20 21  1  0
 21 22  1  0
 21 23  1  0
 21 24  1  0
 20 25  1  0
 25 26  1  0
 25 27  1  0
 25 28  1  0
 20 29  1  0
 29 30  1  0
 29 31  1  0
 29 32  1  0
  6 33  1  0
 33 34  1  0
 33 35  2  0
 35 36  1  0
 35  2  1  0
 12  7  1  0
M  END
>  <cnnaffinity>  (1) 
-4.61916

>  <filename>  (1) 
CC(C)(C)NC(=O)Cn1cnnc1-c1cccnc1

$$$$
