
     RDKit          3D

 33 34  0  0  0  0  0  0  0  0999 V2000
    6.9458    1.9982   24.3636 H   0  0  0  0  0  0  0  0  0  0  0  0
    7.6970    2.2206   23.6000 C   0  0  0  0  0  0  0  0  0  0  0  0
    8.4173    3.3571   23.5836 C   0  0  0  0  0  0  0  0  0  0  0  0
    8.2229    4.7805   24.6156 S   0  0  0  0  0  0  0  0  0  0  0  0
    9.5469    5.6265   23.7304 C   0  0  0  0  0  0  0  0  0  0  0  0
    9.8570    6.7786   23.8038 O   0  0  0  0  0  0  0  0  0  0  0  0
   10.1733    4.7262   22.9069 N   0  0  0  0  0  0  0  0  0  0  0  0
   10.8162    5.0806   22.2230 H   0  0  0  0  0  0  0  0  0  0  0  0
    9.5461    3.5415   22.6637 C   0  0  0  0  0  0  0  0  0  0  0  0
    9.9233    2.7722   21.7892 O   0  0  0  0  0  0  0  0  0  0  0  0
    7.8962    1.2922   22.6025 N   0  0  0  0  0  0  0  0  0  0  0  0
    8.6214    1.5622   21.9400 H   0  0  0  0  0  0  0  0  0  0  0  0
    7.2521    0.0788   22.5080 C   0  0  0  0  0  0  0  0  0  0  0  0
    6.6273   -0.3656   23.4560 O   0  0  0  0  0  0  0  0  0  0  0  0
    7.3797   -0.6724   21.1190 C   0  0  0  0  0  0  0  0  0  0  0  0
    6.7228    0.1036   19.9438 C   0  0  0  0  0  0  0  0  0  0  0  0
    7.2231    0.0845   18.6209 C   0  0  0  0  0  0  0  0  0  0  0  0
    8.1616   -0.4114   18.3849 H   0  0  0  0  0  0  0  0  0  0  0  0
    6.6229    0.6535   17.5655 N   0  0  0  0  0  0  0  0  0  0  0  0
    5.4622    1.2836   17.7832 C   0  0  0  0  0  0  0  0  0  0  0  0
    4.9946    1.7443   16.9130 H   0  0  0  0  0  0  0  0  0  0  0  0
    4.8562    1.3543   19.0421 C   0  0  0  0  0  0  0  0  0  0  0  0
    3.9081    1.8687   19.1503 H   0  0  0  0  0  0  0  0  0  0  0  0
    5.4897    0.7504   20.1335 C   0  0  0  0  0  0  0  0  0  0  0  0
    5.0292    0.7723   21.1255 H   0  0  0  0  0  0  0  0  0  0  0  0
    8.8764   -0.9528   20.8256 C   0  0  0  0  0  0  0  0  0  0  0  0
    9.3505   -1.4791   21.6600 H   0  0  0  0  0  0  0  0  0  0  0  0
    9.4479   -0.0360   20.6258 H   0  0  0  0  0  0  0  0  0  0  0  0
    8.9717   -1.5959   19.9451 H   0  0  0  0  0  0  0  0  0  0  0  0
    6.6244   -2.0209   21.2457 C   0  0  0  0  0  0  0  0  0  0  0  0
    5.5627   -1.8511   21.4594 H   0  0  0  0  0  0  0  0  0  0  0  0
    7.0249   -2.6220   22.0676 H   0  0  0  0  0  0  0  0  0  0  0  0
    6.6990   -2.5916   20.3153 H   0  0  0  0  0  0  0  0  0  0  0  0
  1  2  1  0
  2  3  2  3
  3  4  1  0
  4  5  1  0
  5  6  2  0
  5  7  1  0
  7  8  1  0
  7  9  1  0
  9 10  2  0
  2 11  1  0
 11 12  1  0
 11 13  1  0
 13 14  2  0
 13 15  1  0
 15 16  1  0
 16 17  2  0
 17 18  1  0
 17 19  1  0
 19 20  2  0
 20 21  1  0
 20 22  1  0
 22 23  1  0
 22 24  2  0
 24 25  1  0
 15 26  1  0
 26 27  1  0
 26 28  1  0
 26 29  1  0
 15 30  1  0
 30 31  1  0
 30 32  1  0
 30 33  1  0
  9  3  1  0
 24 16  1  0
M  END
>  <cnnaffinity>  (1) 
-4.65168

>  <filename>  (1) 
CC(C)(C(=O)NC=C1SC(=O)NC1=O)c1cccnc1

$$$$
