
     RDKit          3D

 45 47  0  0  0  0  0  0  0  0999 V2000
    4.7577    1.3505   26.3662 C   0  0  0  0  0  0  0  0  0  0  0  0
    4.8531   -0.1574   26.6726 C   0  0  0  0  0  0  0  0  0  0  0  0
    4.3926   -0.9720   25.4552 C   0  0  0  0  0  0  0  0  0  0  0  0
    3.4509   -0.5770   25.0528 H   0  0  0  0  0  0  0  0  0  0  0  0
    4.2541   -2.0369   25.6747 H   0  0  0  0  0  0  0  0  0  0  0  0
    5.1499   -0.8950   24.6733 H   0  0  0  0  0  0  0  0  0  0  0  0
    6.2401   -0.6326   27.1431 C   0  0  0  0  0  0  0  0  0  0  0  0
    6.4850   -1.2293   28.2149 N   0  0  0  0  0  0  0  0  0  0  0  0
    8.4009   -1.4131   27.1031 C   0  0  0  0  0  0  0  0  0  0  0  0
    8.4193   -1.2911   27.1253 C   0  0  0  0  0  0  0  0  0  0  0  0
    7.3622   -0.5441   26.3717 N   0  0  0  0  0  0  0  0  0  0  0  0
    7.5957   -0.2487   24.9864 C   0  0  0  0  0  0  0  0  0  0  0  0
    7.7625   -1.5557   24.1584 C   0  0  0  0  0  0  0  0  0  0  0  0
    7.6586   -1.3370   22.6947 C   0  0  0  0  0  0  0  0  0  0  0  0
    6.6925   -0.6818   22.0774 N   0  0  0  0  0  0  0  0  0  0  0  0
    7.0830   -0.6931   20.7817 C   0  0  0  0  0  0  0  0  0  0  0  0
    6.3775    0.0044   19.7114 C   0  0  0  0  0  0  0  0  0  0  0  0
    5.1828    0.7193   19.8936 C   0  0  0  0  0  0  0  0  0  0  0  0
    4.6948    1.4469   18.8105 C   0  0  0  0  0  0  0  0  0  0  0  0
    5.3967    1.4195   17.5992 C   0  0  0  0  0  0  0  0  0  0  0  0
    6.5150    0.7054   17.4079 N   0  0  0  0  0  0  0  0  0  0  0  0
    6.9886    0.0185   18.4479 C   0  0  0  0  0  0  0  0  0  0  0  0
    7.9066   -0.5435   18.2810 H   0  0  0  0  0  0  0  0  0  0  0  0
    5.0478    1.9921   16.7438 H   0  0  0  0  0  0  0  0  0  0  0  0
    3.8012    2.0553   18.8927 H   0  0  0  0  0  0  0  0  0  0  0  0
    4.6617    0.7207   20.8542 H   0  0  0  0  0  0  0  0  0  0  0  0
    8.2262   -1.3174   20.5688 N   0  0  0  0  0  0  0  0  0  0  0  0
    8.5885   -1.7503   21.7937 N   0  0  0  0  0  0  0  0  0  0  0  0
    9.9303   -2.2817   21.9339 C   0  0  0  0  0  0  0  0  0  0  0  0
   10.9909   -1.2719   22.3533 C   0  0  0  0  0  0  0  0  0  0  0  0
   12.1877   -1.8836   22.3528 F   0  0  0  0  0  0  0  0  0  0  0  0
   11.0865   -0.2085   21.5527 F   0  0  0  0  0  0  0  0  0  0  0  0
   10.7570   -0.8253   23.6102 F   0  0  0  0  0  0  0  0  0  0  0  0
    9.9699   -3.1057   22.6473 H   0  0  0  0  0  0  0  0  0  0  0  0
   10.2031   -2.6512   20.9492 H   0  0  0  0  0  0  0  0  0  0  0  0
    8.7131   -2.0179   24.4383 H   0  0  0  0  0  0  0  0  0  0  0  0
    6.9800   -2.2508   24.4877 H   0  0  0  0  0  0  0  0  0  0  0  0
    8.4959    0.3847   24.9163 H   0  0  0  0  0  0  0  0  0  0  0  0
    6.7756    0.3625   24.5945 H   0  0  0  0  0  0  0  0  0  0  0  0
    9.4147   -1.2365   26.4436 H   0  0  0  0  0  0  0  0  0  0  0  0
    8.9870   -1.2374   28.2019 H   0  0  0  0  0  0  0  0  0  0  0  0
    4.1770   -0.3765   27.5094 H   0  0  0  0  0  0  0  0  0  0  0  0
    4.9332    1.9704   27.2528 H   0  0  0  0  0  0  0  0  0  0  0  0
    3.7502    1.5851   25.9953 H   0  0  0  0  0  0  0  0  0  0  0  0
    5.4650    1.6607   25.5850 H   0  0  0  0  0  0  0  0  0  0  0  0
  1  2  1  0
  2  3  1  0
  3  4  1  0
  3  5  1  0
  3  6  1  0
  2  7  1  0
  7  8  2  0
  8  9  1  0
  9 10  2  0
 10 11  1  0
 11 12  1  0
 12 13  1  0
 13 14  1  0
 14 15  2  0
 15 16  1  0
 16 17  1  0
 17 18  2  0
 18 19  1  0
 19 20  2  0
 20 21  1  0
 21 22  2  0
 22 23  1  0
 20 24  1  0
 19 25  1  0
 18 26  1  0
 16 27  2  0
 27 28  1  0
 28 29  1  0
 29 30  1  0
 30 31  1  0
 30 32  1  0
 30 33  1  0
 29 34  1  0
 29 35  1  0
 13 36  1  0
 13 37  1  0
 12 38  1  0
 12 39  1  0
 10 40  1  0
  9 41  1  0
  2 42  1  0
  1 43  1  0
  1 44  1  0
  1 45  1  0
 11  7  1  0
 28 14  1  0
 22 17  1  0
M  END
>  <cnnaffinity>  (1) 
-5.91066

>  <filename>  (1) 
CC(C)c1nccn1CCc1nc(-c2cccnc2)nn1CC(F)(F)F

$$$$
