
     RDKit          3D

 44 46  0  0  0  0  0  0  0  0999 V2000
    8.2254   -5.8717   22.8715 C   0  0  0  0  0  0  0  0  0  0  0  0
    7.5660   -4.4866   22.7487 C   0  0  0  0  0  0  0  0  0  0  0  0
    6.8471   -4.0765   24.0409 C   0  0  0  0  0  0  0  0  0  0  0  0
    6.3624   -3.0975   23.9520 H   0  0  0  0  0  0  0  0  0  0  0  0
    6.0609   -4.7990   24.3024 H   0  0  0  0  0  0  0  0  0  0  0  0
    7.5438   -4.0218   24.8886 H   0  0  0  0  0  0  0  0  0  0  0  0
    8.6325   -3.4548   22.2900 C   0  0  0  0  0  0  0  0  0  0  0  0
    8.1094   -2.0909   22.0036 C   0  0  0  0  0  0  0  0  0  0  0  0
    8.1657   -1.0782   22.8433 N   0  0  0  0  0  0  0  0  0  0  0  0
    7.5154   -0.0902   22.1758 N   0  0  0  0  0  0  0  0  0  0  0  0
    7.3283    1.2052   22.8234 C   0  0  0  0  0  0  0  0  0  0  0  0
    6.2641    1.1404   23.9381 C   0  0  0  0  0  0  0  0  0  0  0  0
    5.9089    2.5116   24.4575 C   0  0  0  0  0  0  0  0  0  0  0  0
    6.5739    3.1130   25.5341 C   0  0  0  0  0  0  0  0  0  0  0  0
    6.2426    4.4219   25.9026 C   0  0  0  0  0  0  0  0  0  0  0  0
    5.3057    5.1571   25.2893 N   0  0  0  0  0  0  0  0  0  0  0  0
    4.6547    4.5761   24.2722 C   0  0  0  0  0  0  0  0  0  0  0  0
    4.9162    3.2774   23.8291 C   0  0  0  0  0  0  0  0  0  0  0  0
    4.3274    2.8694   23.0145 H   0  0  0  0  0  0  0  0  0  0  0  0
    3.8803    5.1803   23.7997 H   0  0  0  0  0  0  0  0  0  0  0  0
    6.7488    4.9033   26.7387 H   0  0  0  0  0  0  0  0  0  0  0  0
    7.3216    2.5757   26.1059 H   0  0  0  0  0  0  0  0  0  0  0  0
    6.6357    0.4845   24.7391 H   0  0  0  0  0  0  0  0  0  0  0  0
    5.3568    0.6719   23.5346 H   0  0  0  0  0  0  0  0  0  0  0  0
    8.2907    1.5106   23.2459 H   0  0  0  0  0  0  0  0  0  0  0  0
    7.0518    1.9347   22.0525 H   0  0  0  0  0  0  0  0  0  0  0  0
    7.1174   -0.5561   20.9679 C   0  0  0  0  0  0  0  0  0  0  0  0
    6.4548    0.2002   19.8954 C   0  0  0  0  0  0  0  0  0  0  0  0
    5.2766    0.9532   20.0190 C   0  0  0  0  0  0  0  0  0  0  0  0
    4.7402    1.5394   18.8698 C   0  0  0  0  0  0  0  0  0  0  0  0
    5.4111    1.3777   17.6525 C   0  0  0  0  0  0  0  0  0  0  0  0
    6.5340    0.6550   17.5215 N   0  0  0  0  0  0  0  0  0  0  0  0
    7.0214    0.0719   18.6163 C   0  0  0  0  0  0  0  0  0  0  0  0
    7.9218   -0.5281   18.4837 H   0  0  0  0  0  0  0  0  0  0  0  0
    5.0418    1.8440   16.7403 H   0  0  0  0  0  0  0  0  0  0  0  0
    3.8313    2.1274   18.8941 H   0  0  0  0  0  0  0  0  0  0  0  0
    4.7607    1.0672   20.9769 H   0  0  0  0  0  0  0  0  0  0  0  0
    7.5004   -1.8135   20.8253 N   0  0  0  0  0  0  0  0  0  0  0  0
    9.0105   -3.7748   21.3182 H   0  0  0  0  0  0  0  0  0  0  0  0
    9.4685   -3.4008   23.0003 H   0  0  0  0  0  0  0  0  0  0  0  0
    6.7985   -4.5394   21.9580 H   0  0  0  0  0  0  0  0  0  0  0  0
    8.8722   -6.0815   22.0106 H   0  0  0  0  0  0  0  0  0  0  0  0
    8.8476   -5.9461   23.7765 H   0  0  0  0  0  0  0  0  0  0  0  0
    7.4773   -6.6714   22.9167 H   0  0  0  0  0  0  0  0  0  0  0  0
  1  2  1  0
  2  3  1  0
  3  4  1  0
  3  5  1  0
  3  6  1  0
  2  7  1  0
  7  8  1  0
  8  9  2  0
  9 10  1  0
 10 11  1  0
 11 12  1  0
 12 13  1  0
 13 14  2  0
 14 15  1  0
 15 16  2  0
 16 17  1  0
 17 18  2  0
 18 19  1  0
 17 20  1  0
 15 21  1  0
 14 22  1  0
 12 23  1  0
 12 24  1  0
 11 25  1  0
 11 26  1  0
 10 27  1  0
 27 28  1  0
 28 29  2  0
 29 30  1  0
 30 31  2  0
 31 32  1  0
 32 33  2  0
 33 34  1  0
 31 35  1  0
 30 36  1  0
 29 37  1  0
 27 38  2  0
  7 39  1  0
  7 40  1  0
  2 41  1  0
  1 42  1  0
  1 43  1  0
  1 44  1  0
 38  8  1  0
 18 13  1  0
 33 28  1  0
M  END
>  <cnnaffinity>  (1) 
-5.53518

>  <filename>  (1) 
CC(C)Cc1nc(-c2cccnc2)n(CCc2ccncc2)n1

$$$$
