
     RDKit          3D

 38 40  0  0  0  0  0  0  0  0999 V2000
    4.9280    1.7972   16.9837 H   0  0  0  0  0  0  0  0  0  0  0  0
    5.4002    1.2918   17.8228 C   0  0  0  0  0  0  0  0  0  0  0  0
    6.5621    0.6718   17.5631 N   0  0  0  0  0  0  0  0  0  0  0  0
    7.1737    0.0481   18.5779 C   0  0  0  0  0  0  0  0  0  0  0  0
    8.1263   -0.4239   18.3433 H   0  0  0  0  0  0  0  0  0  0  0  0
    6.6684    0.0084   19.8976 C   0  0  0  0  0  0  0  0  0  0  0  0
    7.3549   -0.6523   20.9556 N   0  0  0  0  0  0  0  0  0  0  0  0
    7.8462   -1.5126   20.7625 H   0  0  0  0  0  0  0  0  0  0  0  0
    7.3583   -0.2367   22.2704 C   0  0  0  0  0  0  0  0  0  0  0  0
    7.0402    0.8980   22.5869 O   0  0  0  0  0  0  0  0  0  0  0  0
    7.8471   -1.2799   23.3357 C   0  0  0  0  0  0  0  0  0  0  0  0
    7.2906   -2.6649   23.0782 C   0  0  0  0  0  0  0  0  0  0  0  0
    7.8843   -3.8923   23.1609 C   0  0  0  0  0  0  0  0  0  0  0  0
    8.9235   -4.0657   23.4117 H   0  0  0  0  0  0  0  0  0  0  0  0
    6.8813   -4.8728   22.8893 C   0  0  0  0  0  0  0  0  0  0  0  0
    6.8986   -6.2771   22.8309 C   0  0  0  0  0  0  0  0  0  0  0  0
    7.8333   -6.7952   23.0264 H   0  0  0  0  0  0  0  0  0  0  0  0
    5.7220   -6.9478   22.5395 C   0  0  0  0  0  0  0  0  0  0  0  0
    5.7458   -8.0317   22.5139 H   0  0  0  0  0  0  0  0  0  0  0  0
    4.5117   -6.2397   22.2964 C   0  0  0  0  0  0  0  0  0  0  0  0
    3.6086   -6.8052   22.0724 H   0  0  0  0  0  0  0  0  0  0  0  0
    4.4641   -4.8479   22.3513 C   0  0  0  0  0  0  0  0  0  0  0  0
    3.5322   -4.3102   22.1785 H   0  0  0  0  0  0  0  0  0  0  0  0
    5.6656   -4.1778   22.6551 C   0  0  0  0  0  0  0  0  0  0  0  0
    5.9502   -2.8405   22.7924 N   0  0  0  0  0  0  0  0  0  0  0  0
    5.2957   -2.0856   22.6898 H   0  0  0  0  0  0  0  0  0  0  0  0
    7.3936   -0.8322   24.7518 C   0  0  0  0  0  0  0  0  0  0  0  0
    7.6958   -1.5772   25.4959 H   0  0  0  0  0  0  0  0  0  0  0  0
    6.3046   -0.7272   24.8088 H   0  0  0  0  0  0  0  0  0  0  0  0
    7.8370    0.1327   25.0140 H   0  0  0  0  0  0  0  0  0  0  0  0
    9.3947   -1.3361   23.2979 C   0  0  0  0  0  0  0  0  0  0  0  0
    9.7666   -1.9848   24.1014 H   0  0  0  0  0  0  0  0  0  0  0  0
    9.7538   -1.7563   22.3502 H   0  0  0  0  0  0  0  0  0  0  0  0
    9.8282   -0.3403   23.4405 H   0  0  0  0  0  0  0  0  0  0  0  0
    5.4493    0.6519   20.1512 C   0  0  0  0  0  0  0  0  0  0  0  0
    5.0496    0.6500   21.1652 H   0  0  0  0  0  0  0  0  0  0  0  0
    4.8111    1.2994   19.0907 C   0  0  0  0  0  0  0  0  0  0  0  0
    3.8845    1.8326   19.2509 H   0  0  0  0  0  0  0  0  0  0  0  0
  1  2  1  0
  2  3  2  0
  3  4  1  0
  4  5  1  0
  4  6  2  0
  6  7  1  0
  7  8  1  0
  7  9  1  0
  9 10  2  0
  9 11  1  0
 11 12  1  0
 12 13  2  0
 13 14  1  0
 13 15  1  0
 15 16  2  0
 16 17  1  0
 16 18  1  0
 18 19  1  0
 18 20  2  0
 20 21  1  0
 20 22  1  0
 22 23  1  0
 22 24  2  0
 24 25  1  0
 25 26  1  0
 11 27  1  0
 27 28  1  0
 27 29  1  0
 27 30  1  0
 11 31  1  0
 31 32  1  0
 31 33  1  0
 31 34  1  0
  6 35  1  0
 35 36  1  0
 35 37  2  0
 37 38  1  0
 37  2  1  0
 25 12  1  0
 24 15  1  0
M  END
>  <cnnaffinity>  (1) 
-5.49138

>  <filename>  (1) 
CC(C)(C(=O)Nc1cccnc1)c1cc2ccccc2[nH]1

$$$$
