
     RDKit          3D

 36 38  0  0  0  0  0  0  0  0999 V2000
    8.7581   -4.7833   23.4344 C   0  0  0  0  0  0  0  0  0  0  0  0
    7.7120   -4.5324   24.5302 C   0  0  0  0  0  0  0  0  0  0  0  0
    6.8620   -3.2476   24.3674 C   0  0  0  0  0  0  0  0  0  0  0  0
    7.7662   -1.6599   24.4976 S   0  0  0  0  0  0  0  0  0  0  0  0
    7.9707   -1.3392   22.7892 C   0  0  0  0  0  0  0  0  0  0  0  0
    8.8853   -1.7754   21.9918 N   0  0  0  0  0  0  0  0  0  0  0  0
    8.5481   -1.3259   20.7258 N   0  0  0  0  0  0  0  0  0  0  0  0
    7.4499   -0.6576   20.8584 C   0  0  0  0  0  0  0  0  0  0  0  0
    6.6600    0.0283   19.8456 C   0  0  0  0  0  0  0  0  0  0  0  0
    5.4422    0.6686   20.1186 C   0  0  0  0  0  0  0  0  0  0  0  0
    4.8101    1.3180   19.0623 C   0  0  0  0  0  0  0  0  0  0  0  0
    5.4090    1.3075   17.7971 C   0  0  0  0  0  0  0  0  0  0  0  0
    6.5663    0.6810   17.5311 N   0  0  0  0  0  0  0  0  0  0  0  0
    7.1698    0.0591   18.5444 C   0  0  0  0  0  0  0  0  0  0  0  0
    8.1100   -0.4448   18.3261 H   0  0  0  0  0  0  0  0  0  0  0  0
    4.9447    1.8195   16.9575 H   0  0  0  0  0  0  0  0  0  0  0  0
    3.8748    1.8457   19.2059 H   0  0  0  0  0  0  0  0  0  0  0  0
    5.0090    0.6628   21.1205 H   0  0  0  0  0  0  0  0  0  0  0  0
    7.0221   -0.6199   22.1434 O   0  0  0  0  0  0  0  0  0  0  0  0
    6.1002   -3.2312   25.1556 H   0  0  0  0  0  0  0  0  0  0  0  0
    6.3290   -3.2749   23.4086 H   0  0  0  0  0  0  0  0  0  0  0  0
    6.7230   -5.6911   24.6468 C   0  0  0  0  0  0  0  0  0  0  0  0
    6.4185   -6.2512   25.8986 C   0  0  0  0  0  0  0  0  0  0  0  0
    5.3554   -7.1464   26.0539 C   0  0  0  0  0  0  0  0  0  0  0  0
    4.5899   -7.5161   24.9468 C   0  0  0  0  0  0  0  0  0  0  0  0
    4.9168   -7.0121   23.6851 C   0  0  0  0  0  0  0  0  0  0  0  0
    5.9794   -6.1166   23.5309 C   0  0  0  0  0  0  0  0  0  0  0  0
    6.1937   -5.7069   22.5430 H   0  0  0  0  0  0  0  0  0  0  0  0
    4.3040   -7.2664   22.8264 H   0  0  0  0  0  0  0  0  0  0  0  0
    3.7489   -8.1947   25.0803 H   0  0  0  0  0  0  0  0  0  0  0  0
    5.1196   -7.5685   27.0297 H   0  0  0  0  0  0  0  0  0  0  0  0
    7.0428   -6.0024   26.7539 H   0  0  0  0  0  0  0  0  0  0  0  0
    8.2502   -4.4376   25.4846 H   0  0  0  0  0  0  0  0  0  0  0  0
    9.2521   -5.7374   23.6415 H   0  0  0  0  0  0  0  0  0  0  0  0
    8.3203   -4.8482   22.4303 H   0  0  0  0  0  0  0  0  0  0  0  0
    9.5080   -3.9857   23.4027 H   0  0  0  0  0  0  0  0  0  0  0  0
  1  2  1  0
  2  3  1  0
  3  4  1  0
  4  5  1  0
  5  6  2  0
  6  7  1  0
  7  8  2  0
  8  9  1  0
  9 10  2  0
 10 11  1  0
 11 12  2  0
 12 13  1  0
 13 14  2  0
 14 15  1  0
 12 16  1  0
 11 17  1  0
 10 18  1  0
  8 19  1  0
  3 20  1  0
  3 21  1  0
  2 22  1  0
 22 23  2  0
 23 24  1  0
 24 25  2  0
 25 26  1  0
 26 27  2  0
 27 28  1  0
 26 29  1  0
 25 30  1  0
 24 31  1  0
 23 32  1  0
  2 33  1  0
  1 34  1  0
  1 35  1  0
  1 36  1  0
 19  5  1  0
 27 22  1  0
 14  9  1  0
M  END
>  <cnnaffinity>  (1) 
-5.4537

>  <filename>  (1) 
CC(CSc1nnc(-c2cccnc2)o1)c1ccccc1

$$$$
