
     RDKit          3D

 49 51  0  0  0  0  0  0  0  0999 V2000
    8.2690   -0.6597   26.7662 C   0  0  0  0  0  0  0  0  0  0  0  0
    8.3667   -0.2835   25.2889 C   0  0  0  0  0  0  0  0  0  0  0  0
    7.7008   -1.3461   24.3841 C   0  0  0  0  0  0  0  0  0  0  0  0
    7.8745   -1.1327   22.9021 C   0  0  0  0  0  0  0  0  0  0  0  0
    6.9979   -0.4279   22.2073 N   0  0  0  0  0  0  0  0  0  0  0  0
    7.4688   -0.4310   20.9431 C   0  0  0  0  0  0  0  0  0  0  0  0
    6.7819    0.2378   19.8276 C   0  0  0  0  0  0  0  0  0  0  0  0
    5.5673    0.9247   19.9907 C   0  0  0  0  0  0  0  0  0  0  0  0
    4.9647    1.4883   18.8692 C   0  0  0  0  0  0  0  0  0  0  0  0
    5.5936    1.3595   17.6284 C   0  0  0  0  0  0  0  0  0  0  0  0
    6.7587    0.7186   17.4580 N   0  0  0  0  0  0  0  0  0  0  0  0
    7.3355    0.1790   18.5361 C   0  0  0  0  0  0  0  0  0  0  0  0
    8.2822   -0.3241   18.3498 H   0  0  0  0  0  0  0  0  0  0  0  0
    5.1486    1.7858   16.7323 H   0  0  0  0  0  0  0  0  0  0  0  0
    4.0318    2.0342   18.9414 H   0  0  0  0  0  0  0  0  0  0  0  0
    5.1008    1.0228   20.9744 H   0  0  0  0  0  0  0  0  0  0  0  0
    8.5861   -1.1134   20.7993 N   0  0  0  0  0  0  0  0  0  0  0  0
    8.8691   -1.5464   22.0665 N   0  0  0  0  0  0  0  0  0  0  0  0
   10.0424   -2.4289   22.4223 C   0  0  0  0  0  0  0  0  0  0  0  0
    9.9541   -2.5709   22.1914 C   0  0  0  0  0  0  0  0  0  0  0  0
    8.5998   -4.5235   23.2995 C   0  0  0  0  0  0  0  0  0  0  0  0
    9.0407   -5.0937   24.3982 F   0  0  0  0  0  0  0  0  0  0  0  0
    8.6340   -5.3648   22.2831 F   0  0  0  0  0  0  0  0  0  0  0  0
    7.3723   -4.0545   23.4447 F   0  0  0  0  0  0  0  0  0  0  0  0
   10.8734   -3.3890   22.5136 H   0  0  0  0  0  0  0  0  0  0  0  0
    9.4574   -3.3319   23.0707 H   0  0  0  0  0  0  0  0  0  0  0  0
   10.7394   -1.8175   21.6221 H   0  0  0  0  0  0  0  0  0  0  0  0
   10.8328   -1.6838   23.6726 H   0  0  0  0  0  0  0  0  0  0  0  0
    8.0632   -2.3231   24.6989 H   0  0  0  0  0  0  0  0  0  0  0  0
    6.6244   -1.3391   24.5653 H   0  0  0  0  0  0  0  0  0  0  0  0
    7.8424    1.0576   25.0112 N   0  0  0  0  0  0  0  0  0  0  0  0
    6.5177    1.4353   25.5162 C   0  0  0  0  0  0  0  0  0  0  0  0
    5.6881    2.1394   24.4458 C   0  0  0  0  0  0  0  0  0  0  0  0
    6.4570    3.3374   23.8836 C   0  0  0  0  0  0  0  0  0  0  0  0
    7.7884    2.8572   23.3016 C   0  0  0  0  0  0  0  0  0  0  0  0
    8.5705    1.8796   24.1715 C   0  0  0  0  0  0  0  0  0  0  0  0
    9.7786    1.7843   24.0495 O   0  0  0  0  0  0  0  0  0  0  0  0
    7.6112    2.2948   22.3764 H   0  0  0  0  0  0  0  0  0  0  0  0
    8.4710    3.6731   23.0585 H   0  0  0  0  0  0  0  0  0  0  0  0
    6.6332    4.0778   24.6789 H   0  0  0  0  0  0  0  0  0  0  0  0
    5.8728    3.8470   23.1078 H   0  0  0  0  0  0  0  0  0  0  0  0
    5.4630    1.4246   23.6427 H   0  0  0  0  0  0  0  0  0  0  0  0
    4.7336    2.4518   24.8836 H   0  0  0  0  0  0  0  0  0  0  0  0
    5.9965    0.5346   25.8555 H   0  0  0  0  0  0  0  0  0  0  0  0
    6.6232    2.0875   26.3989 H   0  0  0  0  0  0  0  0  0  0  0  0
    9.4335   -0.2443   25.0323 H   0  0  0  0  0  0  0  0  0  0  0  0
    8.8243   -1.5874   26.9566 H   0  0  0  0  0  0  0  0  0  0  0  0
    8.7026    0.1246   27.3988 H   0  0  0  0  0  0  0  0  0  0  0  0
    7.2328   -0.8265   27.0883 H   0  0  0  0  0  0  0  0  0  0  0  0
  1  2  1  0
  2  3  1  0
  3  4  1  0
  4  5  2  0
  5  6  1  0
  6  7  1  0
  7  8  2  0
  8  9  1  0
  9 10  2  0
 10 11  1  0
 11 12  2  0
 12 13  1  0
 10 14  1  0
  9 15  1  0
  8 16  1  0
  6 17  2  0
 17 18  1  0
 18 19  1  0
 19 20  1  0
 20 21  1  0
 21 22  1  0
 21 23  1  0
 21 24  1  0
 20 25  1  0
 20 26  1  0
 19 27  1  0
 19 28  1  0
  3 29  1  0
  3 30  1  0
  2 31  1  0
 31 32  1  0
 32 33  1  0
 33 34  1  0
 34 35  1  0
 35 36  1  0
 36 37  2  0
 35 38  1  0
 35 39  1  0
 34 40  1  0
 34 41  1  0
 33 42  1  0
 33 43  1  0
 32 44  1  0
 32 45  1  0
  2 46  1  0
  1 47  1  0
  1 48  1  0
  1 49  1  0
 18  4  1  0
 36 31  1  0
 12  7  1  0
M  END
>  <cnnaffinity>  (1) 
-6.0215

>  <filename>  (1) 
CC(Cc1nc(-c2cccnc2)nn1CCC(F)(F)F)N1CCCCC1=O

$$$$
