
     RDKit          3D

 47 50  0  0  0  0  0  0  0  0999 V2000
   10.9478   -0.7678   23.8307 C   0  0  0  0  0  0  0  0  0  0  0  0
   11.2125   -1.7226   22.6567 C   0  0  0  0  0  0  0  0  0  0  0  0
   11.8814   -0.9851   21.4952 C   0  0  0  0  0  0  0  0  0  0  0  0
   13.0992   -0.4158   21.9592 O   0  0  0  0  0  0  0  0  0  0  0  0
   13.1952    0.4678   21.5857 H   0  0  0  0  0  0  0  0  0  0  0  0
   11.1839   -0.2277   21.0979 H   0  0  0  0  0  0  0  0  0  0  0  0
   12.1139   -1.7049   20.6893 H   0  0  0  0  0  0  0  0  0  0  0  0
    9.9797   -2.5074   22.1860 C   0  0  0  0  0  0  0  0  0  0  0  0
    8.7654   -1.7468   21.9832 N   0  0  0  0  0  0  0  0  0  0  0  0
    8.5081   -1.2286   20.7625 N   0  0  0  0  0  0  0  0  0  0  0  0
    7.3402   -0.6393   20.9413 C   0  0  0  0  0  0  0  0  0  0  0  0
    6.6137    0.0488   19.8808 C   0  0  0  0  0  0  0  0  0  0  0  0
    5.3896    0.6974   20.1090 C   0  0  0  0  0  0  0  0  0  0  0  0
    4.7849    1.3397   19.0312 C   0  0  0  0  0  0  0  0  0  0  0  0
    5.4167    1.3075   17.7814 C   0  0  0  0  0  0  0  0  0  0  0  0
    6.5773    0.6741   17.5547 N   0  0  0  0  0  0  0  0  0  0  0  0
    7.1566    0.0616   18.5910 C   0  0  0  0  0  0  0  0  0  0  0  0
    8.0966   -0.4503   18.3950 H   0  0  0  0  0  0  0  0  0  0  0  0
    4.9749    1.8062   16.9215 H   0  0  0  0  0  0  0  0  0  0  0  0
    3.8497    1.8762   19.1432 H   0  0  0  0  0  0  0  0  0  0  0  0
    4.9368    0.6969   21.1036 H   0  0  0  0  0  0  0  0  0  0  0  0
    6.8480   -0.7395   22.1988 N   0  0  0  0  0  0  0  0  0  0  0  0
    7.7646   -1.4347   22.8387 C   0  0  0  0  0  0  0  0  0  0  0  0
    7.7267   -1.9316   24.2660 C   0  0  2  0  0  0  0  0  0  0  0  0
    6.9111   -3.2482   24.4558 C   0  0  0  0  0  0  0  0  0  0  0  0
    5.5897   -2.8478   25.1547 C   0  0  0  0  0  0  0  0  0  0  0  0
    5.8331   -1.4452   25.6601 C   0  0  0  0  0  0  0  0  0  0  0  0
    5.0055   -0.6325   26.4429 C   0  0  0  0  0  0  0  0  0  0  0  0
    5.4241    0.6692   26.7524 C   0  0  0  0  0  0  0  0  0  0  0  0
    6.6590    1.1521   26.2909 C   0  0  0  0  0  0  0  0  0  0  0  0
    7.4816    0.3398   25.5056 C   0  0  0  0  0  0  0  0  0  0  0  0
    7.0488   -0.9514   25.1924 C   0  0  0  0  0  0  0  0  0  0  0  0
    8.4386    0.6984   25.1287 H   0  0  0  0  0  0  0  0  0  0  0  0
    6.9732    2.1642   26.5279 H   0  0  0  0  0  0  0  0  0  0  0  0
    4.7819    1.3129   27.3477 H   0  0  0  0  0  0  0  0  0  0  0  0
    4.0415   -0.9972   26.7923 H   0  0  0  0  0  0  0  0  0  0  0  0
    4.7476   -2.8482   24.4513 H   0  0  0  0  0  0  0  0  0  0  0  0
    5.3357   -3.5401   25.9641 H   0  0  0  0  0  0  0  0  0  0  0  0
    7.4924   -3.9316   25.0855 H   0  0  0  0  0  0  0  0  0  0  0  0
    6.7283   -3.7623   23.5049 H   0  0  0  0  0  0  0  0  0  0  0  0
    8.7630   -2.0760   24.5932 H   0  0  0  0  0  0  0  0  0  0  0  0
    9.7574   -3.3357   22.8689 H   0  0  0  0  0  0  0  0  0  0  0  0
   10.1791   -2.9121   21.1967 H   0  0  0  0  0  0  0  0  0  0  0  0
   11.9206   -2.5104   22.9415 H   0  0  0  0  0  0  0  0  0  0  0  0
   10.1829   -0.0219   23.5805 H   0  0  0  0  0  0  0  0  0  0  0  0
   10.6403   -1.3027   24.7353 H   0  0  0  0  0  0  0  0  0  0  0  0
   11.8660   -0.2184   24.0590 H   0  0  0  0  0  0  0  0  0  0  0  0
  1  2  1  0
  2  3  1  0
  3  4  1  0
  4  5  1  0
  3  6  1  0
  3  7  1  0
  2  8  1  0
  8  9  1  0
  9 10  1  0
 10 11  2  0
 11 12  1  0
 12 13  2  0
 13 14  1  0
 14 15  2  0
 15 16  1  0
 16 17  2  0
 17 18  1  0
 15 19  1  0
 14 20  1  0
 13 21  1  0
 11 22  1  0
 22 23  2  0
 23 24  1  0
 24 25  1  0
 25 26  1  0
 26 27  1  0
 27 28  2  0
 28 29  1  0
 29 30  2  0
 30 31  1  0
 31 32  2  0
 31 33  1  0
 30 34  1  0
 29 35  1  0
 28 36  1  0
 26 37  1  0
 26 38  1  0
 25 39  1  0
 25 40  1  0
 24 41  1  1
  8 42  1  0
  8 43  1  0
  2 44  1  0
  1 45  1  0
  1 46  1  0
  1 47  1  0
 23  9  1  0
 32 24  1  0
 17 12  1  0
 32 27  1  0
M  END
>  <cnnaffinity>  (1) 
-5.84867

>  <filename>  (1) 
CC(CO)Cn1nc(-c2cccnc2)nc1[C@@H]1CCc2ccccc21

$$$$
