
     RDKit          3D

 46 49  0  0  0  0  0  0  0  0999 V2000
   12.4927   -1.7897   22.0001 C   0  0  0  0  0  0  0  0  0  0  0  0
   11.1111   -1.1821   22.2809 C   0  0  0  0  0  0  0  0  0  0  0  0
   10.9576   -0.5260   23.6632 C   0  0  0  0  0  0  0  0  0  0  0  0
   10.1086    0.1664   23.6658 H   0  0  0  0  0  0  0  0  0  0  0  0
   10.7654   -1.2436   24.4736 H   0  0  0  0  0  0  0  0  0  0  0  0
   11.8484    0.0484   23.9428 H   0  0  0  0  0  0  0  0  0  0  0  0
   10.0387   -2.2632   22.0570 C   0  0  0  0  0  0  0  0  0  0  0  0
    8.6936   -1.7269   21.9353 N   0  0  0  0  0  0  0  0  0  0  0  0
    8.3589   -1.2294   20.7263 N   0  0  0  0  0  0  0  0  0  0  0  0
    7.2123   -0.6146   20.9539 C   0  0  0  0  0  0  0  0  0  0  0  0
    6.5069    0.0832   19.8865 C   0  0  0  0  0  0  0  0  0  0  0  0
    5.2908    0.7601   20.0648 C   0  0  0  0  0  0  0  0  0  0  0  0
    4.7361    1.3946   18.9537 C   0  0  0  0  0  0  0  0  0  0  0  0
    5.4131    1.3354   17.7287 C   0  0  0  0  0  0  0  0  0  0  0  0
    6.5683    0.6798   17.5509 N   0  0  0  0  0  0  0  0  0  0  0  0
    7.0964    0.0697   18.6131 C   0  0  0  0  0  0  0  0  0  0  0  0
    8.0322   -0.4619   18.4472 H   0  0  0  0  0  0  0  0  0  0  0  0
    5.0114    1.8322   16.8491 H   0  0  0  0  0  0  0  0  0  0  0  0
    3.8028    1.9427   19.0164 H   0  0  0  0  0  0  0  0  0  0  0  0
    4.8007    0.7896   21.0422 H   0  0  0  0  0  0  0  0  0  0  0  0
    6.7999   -0.6709   22.2405 N   0  0  0  0  0  0  0  0  0  0  0  0
    7.7346   -1.3910   22.8327 C   0  0  0  0  0  0  0  0  0  0  0  0
    7.7322   -1.7549   24.2975 C   0  0  0  0  0  0  0  0  0  0  0  0
    6.5225   -2.4230   24.7440 N   0  0  0  0  0  0  0  0  0  0  0  0
    5.4552   -1.7989   25.3612 C   0  0  0  0  0  0  0  0  0  0  0  0
    4.3836   -2.6407   25.4454 C   0  0  0  0  0  0  0  0  0  0  0  0
    4.7914   -3.8799   24.8411 C   0  0  0  0  0  0  0  0  0  0  0  0
    4.1600   -5.1216   24.6161 C   0  0  0  0  0  0  0  0  0  0  0  0
    4.8505   -6.1335   23.9607 C   0  0  0  0  0  0  0  0  0  0  0  0
    6.1813   -5.9365   23.5235 C   0  0  0  0  0  0  0  0  0  0  0  0
    6.8367   -4.7316   23.7515 C   0  0  0  0  0  0  0  0  0  0  0  0
    6.1300   -3.7063   24.4081 C   0  0  0  0  0  0  0  0  0  0  0  0
    7.8617   -4.5824   23.4327 H   0  0  0  0  0  0  0  0  0  0  0  0
    6.6934   -6.7410   23.0014 H   0  0  0  0  0  0  0  0  0  0  0  0
    4.3650   -7.0869   23.7794 H   0  0  0  0  0  0  0  0  0  0  0  0
    3.1425   -5.2768   24.9575 H   0  0  0  0  0  0  0  0  0  0  0  0
    3.4076   -2.4168   25.8548 H   0  0  0  0  0  0  0  0  0  0  0  0
    5.5620   -0.7720   25.6852 H   0  0  0  0  0  0  0  0  0  0  0  0
    8.5981   -2.3736   24.5476 H   0  0  0  0  0  0  0  0  0  0  0  0
    7.8113   -0.8272   24.8716 H   0  0  0  0  0  0  0  0  0  0  0  0
   10.0598   -3.0372   22.8330 H   0  0  0  0  0  0  0  0  0  0  0  0
   10.2167   -2.7410   21.0970 H   0  0  0  0  0  0  0  0  0  0  0  0
   10.9284   -0.4035   21.5208 H   0  0  0  0  0  0  0  0  0  0  0  0
   12.6169   -2.7613   22.4885 H   0  0  0  0  0  0  0  0  0  0  0  0
   12.6287   -1.9248   20.9221 H   0  0  0  0  0  0  0  0  0  0  0  0
   13.3152   -1.1550   22.3407 H   0  0  0  0  0  0  0  0  0  0  0  0
  1  2  1  0
  2  3  1  0
  3  4  1  0
  3  5  1  0
  3  6  1  0
  2  7  1  0
  7  8  1  0
  8  9  1  0
  9 10  2  0
 10 11  1  0
 11 12  2  0
 12 13  1  0
 13 14  2  0
 14 15  1  0
 15 16  2  0
 16 17  1  0
 14 18  1  0
 13 19  1  0
 12 20  1  0
 10 21  1  0
 21 22  2  0
 22 23  1  0
 23 24  1  0
 24 25  1  0
 25 26  2  0
 26 27  1  0
 27 28  2  0
 28 29  1  0
 29 30  2  0
 30 31  1  0
 31 32  2  0
 31 33  1  0
 30 34  1  0
 29 35  1  0
 28 36  1  0
 26 37  1  0
 25 38  1  0
 23 39  1  0
 23 40  1  0
  7 41  1  0
  7 42  1  0
  2 43  1  0
  1 44  1  0
  1 45  1  0
  1 46  1  0
 22  8  1  0
 32 24  1  0
 16 11  1  0
 32 27  1  0
M  END
>  <cnnaffinity>  (1) 
-6.20116

>  <filename>  (1) 
CC(C)Cn1nc(-c2cccnc2)nc1Cn1ccc2ccccc21

$$$$
