
     RDKit          3D

 53 57  0  0  0  0  0  0  0  0999 V2000
    6.8330    4.1483   23.4498 C   0  0  0  0  0  0  0  0  0  0  0  0
    8.3617    4.2691   23.5285 C   0  0  0  0  0  0  0  0  0  0  0  0
    8.9868    2.9220   24.0141 C   0  0  0  0  0  0  0  0  0  0  0  0
    8.9344    1.8204   22.9943 C   0  0  0  0  0  0  0  0  0  0  0  0
    7.8933    1.0556   22.7188 N   0  0  0  0  0  0  0  0  0  0  0  0
    8.3375    0.2613   21.7083 C   0  0  0  0  0  0  0  0  0  0  0  0
    7.4371   -0.6920   20.9749 C   0  0  0  0  0  0  0  0  0  0  0  0
    6.6631   -0.0365   19.8374 C   0  0  0  0  0  0  0  0  0  0  0  0
    5.4575    0.6281   20.0989 C   0  0  0  0  0  0  0  0  0  0  0  0
    4.8178    1.3045   19.0592 C   0  0  0  0  0  0  0  0  0  0  0  0
    5.4053    1.3006   17.7908 C   0  0  0  0  0  0  0  0  0  0  0  0
    6.5520    0.6591   17.5124 N   0  0  0  0  0  0  0  0  0  0  0  0
    7.1519    0.0128   18.5197 C   0  0  0  0  0  0  0  0  0  0  0  0
    8.0832   -0.4977   18.2700 H   0  0  0  0  0  0  0  0  0  0  0  0
    4.9375    1.8276   16.9608 H   0  0  0  0  0  0  0  0  0  0  0  0
    3.8872    1.8369   19.2192 H   0  0  0  0  0  0  0  0  0  0  0  0
    5.0403    0.6182   21.1090 H   0  0  0  0  0  0  0  0  0  0  0  0
    8.0398   -1.5270   20.6036 H   0  0  0  0  0  0  0  0  0  0  0  0
    6.7349   -1.0870   21.7141 H   0  0  0  0  0  0  0  0  0  0  0  0
    9.6026    0.4387   21.3799 N   0  0  0  0  0  0  0  0  0  0  0  0
    9.9716    1.4838   22.1764 N   0  0  0  0  0  0  0  0  0  0  0  0
   11.2932    1.9976   22.2322 C   0  0  0  0  0  0  0  0  0  0  0  0
   11.5799    3.3667   22.2177 C   0  0  0  0  0  0  0  0  0  0  0  0
   12.8998    3.8361   22.4097 C   0  0  0  0  0  0  0  0  0  0  0  0
   13.9467    2.9521   22.6530 C   0  0  0  0  0  0  0  0  0  0  0  0
   13.6754    1.5610   22.6638 C   0  0  0  0  0  0  0  0  0  0  0  0
   12.3703    1.1118   22.4025 C   0  0  0  0  0  0  0  0  0  0  0  0
   12.4617   -0.2622   22.3531 N   0  0  0  0  0  0  0  0  0  0  0  0
   13.7783   -0.5694   22.5523 C   0  0  0  0  0  0  0  0  0  0  0  0
   14.5341    0.4721   22.7487 N   0  0  0  0  0  0  0  0  0  0  0  0
   14.1342   -1.5933   22.5359 H   0  0  0  0  0  0  0  0  0  0  0  0
   11.7249   -0.8393   21.9777 H   0  0  0  0  0  0  0  0  0  0  0  0
   14.9653    3.3147   22.6510 H   0  0  0  0  0  0  0  0  0  0  0  0
   13.1080    4.9031   22.3724 H   0  0  0  0  0  0  0  0  0  0  0  0
   10.7807    4.0891   22.1054 H   0  0  0  0  0  0  0  0  0  0  0  0
    8.4644    2.5912   24.9205 H   0  0  0  0  0  0  0  0  0  0  0  0
   10.0278    3.0789   24.3185 H   0  0  0  0  0  0  0  0  0  0  0  0
    8.8464    5.4586   24.3974 C   0  0  0  0  0  0  0  0  0  0  0  0
    8.5322    6.8530   23.8050 C   0  0  0  0  0  0  0  0  0  0  0  0
    8.1152    7.6832   25.0248 C   0  0  0  0  0  0  0  0  0  0  0  0
    7.5227    6.6120   25.9389 C   0  0  0  0  0  0  0  0  0  0  0  0
    8.2975    5.4447   25.7178 O   0  0  0  0  0  0  0  0  0  0  0  0
    7.5830    6.8604   27.0033 H   0  0  0  0  0  0  0  0  0  0  0  0
    6.4648    6.4292   25.6902 H   0  0  0  0  0  0  0  0  0  0  0  0
    7.3919    8.4697   24.7810 H   0  0  0  0  0  0  0  0  0  0  0  0
    8.9855    8.1506   25.5006 H   0  0  0  0  0  0  0  0  0  0  0  0
    9.3929    7.2713   23.2712 H   0  0  0  0  0  0  0  0  0  0  0  0
    7.7060    6.7996   23.0855 H   0  0  0  0  0  0  0  0  0  0  0  0
    9.9366    5.3517   24.5245 H   0  0  0  0  0  0  0  0  0  0  0  0
    8.7373    4.4843   22.5110 H   0  0  0  0  0  0  0  0  0  0  0  0
    6.5542    3.3872   22.7118 H   0  0  0  0  0  0  0  0  0  0  0  0
    6.3481    5.0919   23.1724 H   0  0  0  0  0  0  0  0  0  0  0  0
    6.4244    3.8338   24.4181 H   0  0  0  0  0  0  0  0  0  0  0  0
  1  2  1  0
  2  3  1  0
  3  4  1  0
  4  5  2  0
  5  6  1  0
  6  7  1  0
  7  8  1  0
  8  9  2  0
  9 10  1  0
 10 11  2  0
 11 12  1  0
 12 13  2  0
 13 14  1  0
 11 15  1  0
 10 16  1  0
  9 17  1  0
  7 18  1  0
  7 19  1  0
  6 20  2  0
 20 21  1  0
 21 22  1  0
 22 23  2  0
 23 24  1  0
 24 25  2  0
 25 26  1  0
 26 27  2  0
 27 28  1  0
 28 29  1  0
 29 30  2  0
 29 31  1  0
 28 32  1  0
 25 33  1  0
 24 34  1  0
 23 35  1  0
  3 36  1  0
  3 37  1  0
  2 38  1  0
 38 39  1  0
 39 40  1  0
 40 41  1  0
 41 42  1  0
 41 43  1  0
 41 44  1  0
 40 45  1  0
 40 46  1  0
 39 47  1  0
 39 48  1  0
 38 49  1  0
  2 50  1  0
  1 51  1  0
  1 52  1  0
  1 53  1  0
 21  4  1  0
 27 22  1  0
 42 38  1  0
 13  8  1  0
 30 26  1  0
M  END
>  <cnnaffinity>  (1) 
-6.71131

>  <filename>  (1) 
CC(Cc1nc(Cc2cccnc2)nn1-c1cccc2nc[nH]c12)C1CCCO1

$$$$
