
     RDKit          3D

 37 38  0  0  0  0  0  0  0  0999 V2000
    2.5502   -2.0594   26.9232 H   0  0  0  0  0  0  0  0  0  0  0  0
    3.5425   -2.4409   27.1564 C   0  0  0  0  0  0  0  0  0  0  0  0
    4.4752   -2.2470   26.2154 N   0  0  0  0  0  0  0  0  0  0  0  0
    5.7291   -2.6935   26.4627 C   0  0  0  0  0  0  0  0  0  0  0  0
    6.8846   -2.3852   25.4727 C   0  0  0  0  0  0  0  0  0  0  0  0
    8.0504   -2.5077   25.8451 O   0  0  0  0  0  0  0  0  0  0  0  0
    6.5556   -2.0090   24.2026 N   0  0  0  0  0  0  0  0  0  0  0  0
    5.5619   -1.9641   23.9976 H   0  0  0  0  0  0  0  0  0  0  0  0
    7.5398   -1.7776   23.1124 C   0  0  0  0  0  0  0  0  0  0  0  0
    6.7829   -1.5146   21.7200 C   0  0  0  0  0  0  0  0  0  0  0  0
    5.7410   -2.0766   21.4492 O   0  0  0  0  0  0  0  0  0  0  0  0
    7.4012   -0.6740   20.8008 N   0  0  0  0  0  0  0  0  0  0  0  0
    8.1954   -0.1684   21.1535 H   0  0  0  0  0  0  0  0  0  0  0  0
    6.6986   -0.0070   19.7359 C   0  0  0  0  0  0  0  0  0  0  0  0
    7.2356    0.0925   18.4321 C   0  0  0  0  0  0  0  0  0  0  0  0
    8.1888   -0.3811   18.2014 H   0  0  0  0  0  0  0  0  0  0  0  0
    6.6327    0.7407   17.4244 N   0  0  0  0  0  0  0  0  0  0  0  0
    5.4632    1.3495   17.6840 C   0  0  0  0  0  0  0  0  0  0  0  0
    5.0019    1.8849   16.8566 H   0  0  0  0  0  0  0  0  0  0  0  0
    4.8473    1.3136   18.9387 C   0  0  0  0  0  0  0  0  0  0  0  0
    3.9097    1.8358   19.0938 H   0  0  0  0  0  0  0  0  0  0  0  0
    5.4688    0.6147   19.9809 C   0  0  0  0  0  0  0  0  0  0  0  0
    5.0263    0.5485   20.9747 H   0  0  0  0  0  0  0  0  0  0  0  0
    8.4095   -3.0460   22.9564 C   0  0  0  0  0  0  0  0  0  0  0  0
    9.1305   -2.9225   22.1421 H   0  0  0  0  0  0  0  0  0  0  0  0
    8.9476   -3.2263   23.8904 H   0  0  0  0  0  0  0  0  0  0  0  0
    7.7758   -3.9162   22.7557 H   0  0  0  0  0  0  0  0  0  0  0  0
    8.4221   -0.5853   23.5424 C   0  0  0  0  0  0  0  0  0  0  0  0
    8.8627   -0.8097   24.5149 H   0  0  0  0  0  0  0  0  0  0  0  0
    7.8188    0.3228   23.6461 H   0  0  0  0  0  0  0  0  0  0  0  0
    9.2421   -0.4062   22.8376 H   0  0  0  0  0  0  0  0  0  0  0  0
    6.0377   -3.4394   27.6181 C   0  0  0  0  0  0  0  0  0  0  0  0
    7.0470   -3.8188   27.7603 H   0  0  0  0  0  0  0  0  0  0  0  0
    5.0578   -3.6444   28.5861 C   0  0  0  0  0  0  0  0  0  0  0  0
    5.2956   -4.1962   29.4992 H   0  0  0  0  0  0  0  0  0  0  0  0
    3.7835   -3.1152   28.3599 C   0  0  0  0  0  0  0  0  0  0  0  0
    3.0017   -3.2209   29.1016 H   0  0  0  0  0  0  0  0  0  0  0  0
  1  2  1  0
  2  3  2  0
  3  4  1  0
  4  5  1  0
  5  6  2  0
  5  7  1  0
  7  8  1  0
  7  9  1  0
  9 10  1  0
 10 11  2  0
 10 12  1  0
 12 13  1  0
 12 14  1  0
 14 15  2  0
 15 16  1  0
 15 17  1  0
 17 18  2  0
 18 19  1  0
 18 20  1  0
 20 21  1  0
 20 22  2  0
 22 23  1  0
  9 24  1  0
 24 25  1  0
 24 26  1  0
 24 27  1  0
  9 28  1  0
 28 29  1  0
 28 30  1  0
 28 31  1  0
  4 32  2  0
 32 33  1  0
 32 34  1  0
 34 35  1  0
 34 36  2  0
 36 37  1  0
 36  2  1  0
 22 14  1  0
M  END
>  <cnnaffinity>  (1) 
-5.15476

>  <filename>  (1) 
CC(C)(NC(=O)c1ccccn1)C(=O)Nc1cccnc1

$$$$
