
     RDKit          3D

 48 49  0  0  0  0  0  0  0  0999 V2000
    9.4556    0.0569   24.8074 C   0  0  0  0  0  0  0  0  0  0  0  0
    7.9604    0.2931   24.6058 C   0  0  0  0  0  0  0  0  0  0  0  0
    7.1467   -0.1557   25.8266 C   0  0  0  0  0  0  0  0  0  0  0  0
    5.6418    0.0376   25.7023 C   0  0  0  0  0  0  0  0  0  0  0  0
    5.1471    1.3309   25.4726 C   0  0  0  0  0  0  0  0  0  0  0  0
    3.7853    1.5784   25.2797 C   0  0  0  0  0  0  0  0  0  0  0  0
    2.8819    0.5160   25.3217 C   0  0  0  0  0  0  0  0  0  0  0  0
    3.3410   -0.7785   25.5700 C   0  0  0  0  0  0  0  0  0  0  0  0
    4.7084   -1.0197   25.7861 C   0  0  0  0  0  0  0  0  0  0  0  0
    5.1840   -2.4260   26.0913 C   0  0  0  0  0  0  0  0  0  0  0  0
    6.0477   -2.8777   25.1481 F   0  0  0  0  0  0  0  0  0  0  0  0
    4.1896   -3.3288   26.1519 F   0  0  0  0  0  0  0  0  0  0  0  0
    5.8334   -2.5003   27.2741 F   0  0  0  0  0  0  0  0  0  0  0  0
    2.6424   -1.6130   25.5834 H   0  0  0  0  0  0  0  0  0  0  0  0
    1.8251    0.6865   25.1409 H   0  0  0  0  0  0  0  0  0  0  0  0
    3.4427    2.5917   25.0811 H   0  0  0  0  0  0  0  0  0  0  0  0
    5.8577    2.1510   25.4402 H   0  0  0  0  0  0  0  0  0  0  0  0
    7.4883    0.4611   26.6713 H   0  0  0  0  0  0  0  0  0  0  0  0
    7.3949   -1.1907   26.0665 H   0  0  0  0  0  0  0  0  0  0  0  0
    7.5513   -0.3961   23.3873 N   0  0  0  0  0  0  0  0  0  0  0  0
    7.7252    0.1942   22.1666 C   0  0  0  0  0  0  0  0  0  0  0  0
    8.2290    1.2971   22.0253 O   0  0  0  0  0  0  0  0  0  0  0  0
    7.2752   -0.5841   21.0931 N   0  0  0  0  0  0  0  0  0  0  0  0
    6.6540    0.0659   19.9737 C   0  0  0  0  0  0  0  0  0  0  0  0
    5.4234    0.7017   20.1854 C   0  0  0  0  0  0  0  0  0  0  0  0
    4.7885    1.3189   19.1032 C   0  0  0  0  0  0  0  0  0  0  0  0
    5.4100    1.2740   17.8507 C   0  0  0  0  0  0  0  0  0  0  0  0
    6.5733    0.6464   17.6165 N   0  0  0  0  0  0  0  0  0  0  0  0
    7.1762    0.0560   18.6547 C   0  0  0  0  0  0  0  0  0  0  0  0
    8.1256   -0.4331   18.4192 H   0  0  0  0  0  0  0  0  0  0  0  0
    4.9661    1.7732   16.9959 H   0  0  0  0  0  0  0  0  0  0  0  0
    3.8462    1.8462   19.2265 H   0  0  0  0  0  0  0  0  0  0  0  0
    4.9796    0.6744   21.1825 H   0  0  0  0  0  0  0  0  0  0  0  0
    7.5292   -2.0205   20.9433 C   0  0  0  0  0  0  0  0  0  0  0  0
    6.3013   -2.8911   21.2266 C   0  0  0  0  0  0  0  0  0  0  0  0
    5.4529   -2.5712   20.6136 H   0  0  0  0  0  0  0  0  0  0  0  0
    6.5342   -3.9312   20.9658 H   0  0  0  0  0  0  0  0  0  0  0  0
    5.9949   -2.8799   22.2769 H   0  0  0  0  0  0  0  0  0  0  0  0
    8.7897   -2.5400   21.6285 C   0  0  0  0  0  0  0  0  0  0  0  0
    8.9557   -3.5589   21.2710 H   0  0  0  0  0  0  0  0  0  0  0  0
    9.6715   -1.9420   21.3776 H   0  0  0  0  0  0  0  0  0  0  0  0
    8.6905   -2.5840   22.7146 H   0  0  0  0  0  0  0  0  0  0  0  0
    7.7095   -2.1044   19.8793 H   0  0  0  0  0  0  0  0  0  0  0  0
    6.8793   -1.1421   23.4145 H   0  0  0  0  0  0  0  0  0  0  0  0
    7.8003    1.3695   24.4460 H   0  0  0  0  0  0  0  0  0  0  0  0
    9.6456   -1.0195   24.9072 H   0  0  0  0  0  0  0  0  0  0  0  0
    9.8358    0.5716   25.6980 H   0  0  0  0  0  0  0  0  0  0  0  0
    9.9988    0.4202   23.9311 H   0  0  0  0  0  0  0  0  0  0  0  0
  1  2  1  0
  2  3  1  0
  3  4  1  0
  4  5  2  0
  5  6  1  0
  6  7  2  0
  7  8  1  0
  8  9  2  0
  9 10  1  0
 10 11  1  0
 10 12  1  0
 10 13  1  0
  8 14  1  0
  7 15  1  0
  6 16  1  0
  5 17  1  0
  3 18  1  0
  3 19  1  0
  2 20  1  0
 20 21  1  0
 21 22  2  0
 21 23  1  0
 23 24  1  0
 24 25  2  0
 25 26  1  0
 26 27  2  0
 27 28  1  0
 28 29  2  0
 29 30  1  0
 27 31  1  0
 26 32  1  0
 25 33  1  0
 23 34  1  0
 34 35  1  0
 35 36  1  0
 35 37  1  0
 35 38  1  0
 34 39  1  0
 39 40  1  0
 39 41  1  0
 39 42  1  0
 34 43  1  0
 20 44  1  0
  2 45  1  0
  1 46  1  0
  1 47  1  0
  1 48  1  0
  9  4  1  0
 29 24  1  0
M  END
>  <cnnaffinity>  (1) 
-5.43611

>  <filename>  (1) 
CC(Cc1ccccc1C(F)(F)F)NC(=O)N(c1cccnc1)C(C)C

$$$$
