
     RDKit          3D

 48 50  0  0  0  0  0  0  0  0999 V2000
   11.4997    6.3171   25.8742 C   0  0  0  0  0  0  0  0  0  0  0  0
   10.2568    6.9203   25.2102 C   0  0  0  0  0  0  0  0  0  0  0  0
   10.0559    8.3869   25.5994 C   0  0  0  0  0  0  0  0  0  0  0  0
    9.6299    8.4547   26.6072 H   0  0  0  0  0  0  0  0  0  0  0  0
    9.3663    8.8967   24.9142 H   0  0  0  0  0  0  0  0  0  0  0  0
   11.0003    8.9399   25.6047 H   0  0  0  0  0  0  0  0  0  0  0  0
    8.9697    6.1431   25.5628 C   0  0  0  0  0  0  0  0  0  0  0  0
    8.9743    4.7061   25.1548 C   0  0  0  0  0  0  0  0  0  0  0  0
    9.0951    3.7147   26.0304 N   0  0  0  0  0  0  0  0  0  0  0  0
    9.1410    2.5958   25.2958 N   0  0  0  0  0  0  0  0  0  0  0  0
    9.0912    2.8260   23.9580 C   0  0  0  0  0  0  0  0  0  0  0  0
    9.0622    1.7190   22.9914 C   0  0  0  0  0  0  0  0  0  0  0  0
    8.0051    0.9796   22.7192 N   0  0  0  0  0  0  0  0  0  0  0  0
    8.4126    0.2262   21.6697 C   0  0  0  0  0  0  0  0  0  0  0  0
    7.4648   -0.7018   20.9604 C   0  0  0  0  0  0  0  0  0  0  0  0
    6.6679   -0.0307   19.8399 C   0  0  0  0  0  0  0  0  0  0  0  0
    5.4586    0.6295   20.1076 C   0  0  0  0  0  0  0  0  0  0  0  0
    4.8056    1.3019   19.0722 C   0  0  0  0  0  0  0  0  0  0  0  0
    5.3875    1.2996   17.8035 C   0  0  0  0  0  0  0  0  0  0  0  0
    6.5364    0.6690   17.5175 N   0  0  0  0  0  0  0  0  0  0  0  0
    7.1508    0.0288   18.5193 C   0  0  0  0  0  0  0  0  0  0  0  0
    8.0948   -0.4548   18.2611 H   0  0  0  0  0  0  0  0  0  0  0  0
    4.9184    1.8372   16.9823 H   0  0  0  0  0  0  0  0  0  0  0  0
    3.8807    1.8440   19.2365 H   0  0  0  0  0  0  0  0  0  0  0  0
    5.0437    0.6377   21.1179 H   0  0  0  0  0  0  0  0  0  0  0  0
    8.0329   -1.5594   20.5842 H   0  0  0  0  0  0  0  0  0  0  0  0
    6.7934   -1.0748   21.7417 H   0  0  0  0  0  0  0  0  0  0  0  0
    9.6679    0.4136   21.3139 N   0  0  0  0  0  0  0  0  0  0  0  0
   10.0977    1.3692   22.1739 N   0  0  0  0  0  0  0  0  0  0  0  0
   11.4993    1.8089   22.1209 C   0  0  0  0  0  0  0  0  0  0  0  0
   11.6363    3.3367   22.2352 C   0  0  0  0  0  0  0  0  0  0  0  0
   12.4592    3.7081   21.6165 H   0  0  0  0  0  0  0  0  0  0  0  0
   11.7626    3.6346   23.2834 H   0  0  0  0  0  0  0  0  0  0  0  0
   10.7183    3.8207   21.9255 H   0  0  0  0  0  0  0  0  0  0  0  0
   12.3501    1.1057   23.2010 C   0  0  0  0  0  0  0  0  0  0  0  0
   12.2919   -0.2254   23.1707 F   0  0  0  0  0  0  0  0  0  0  0  0
   13.6401    1.4652   23.0535 F   0  0  0  0  0  0  0  0  0  0  0  0
   11.9604    1.5048   24.4335 F   0  0  0  0  0  0  0  0  0  0  0  0
   11.8816    1.4472   21.1607 H   0  0  0  0  0  0  0  0  0  0  0  0
    8.9471    4.2034   23.8435 C   0  0  0  0  0  0  0  0  0  0  0  0
    8.8480    4.7968   22.9458 H   0  0  0  0  0  0  0  0  0  0  0  0
    9.3613    1.7294   25.7697 H   0  0  0  0  0  0  0  0  0  0  0  0
    8.1228    6.6493   25.0820 H   0  0  0  0  0  0  0  0  0  0  0  0
    8.7991    6.1919   26.6438 H   0  0  0  0  0  0  0  0  0  0  0  0
   10.4016    6.8788   24.1197 H   0  0  0  0  0  0  0  0  0  0  0  0
   11.6498    5.2721   25.5846 H   0  0  0  0  0  0  0  0  0  0  0  0
   11.4318    6.3532   26.9700 H   0  0  0  0  0  0  0  0  0  0  0  0
   12.4081    6.8580   25.5842 H   0  0  0  0  0  0  0  0  0  0  0  0
  1  2  1  0
  2  3  1  0
  3  4  1  0
  3  5  1  0
  3  6  1  0
  2  7  1  0
  7  8  1  0
  8  9  2  0
  9 10  1  0
 10 11  1  0
 11 12  1  0
 12 13  2  0
 13 14  1  0
 14 15  1  0
 15 16  1  0
 16 17  2  0
 17 18  1  0
 18 19  2  0
 19 20  1  0
 20 21  2  0
 21 22  1  0
 19 23  1  0
 18 24  1  0
 17 25  1  0
 15 26  1  0
 15 27  1  0
 14 28  2  0
 28 29  1  0
 29 30  1  0
 30 31  1  0
 31 32  1  0
 31 33  1  0
 31 34  1  0
 30 35  1  0
 35 36  1  0
 35 37  1  0
 35 38  1  0
 30 39  1  0
 11 40  2  0
 40 41  1  0
 10 42  1  0
  7 43  1  0
  7 44  1  0
  2 45  1  0
  1 46  1  0
  1 47  1  0
  1 48  1  0
 40  8  1  0
 29 12  1  0
 21 16  1  0
M  END
>  <cnnaffinity>  (1) 
-6.36024

>  <filename>  (1) 
CC(C)Cc1cc(-c2nc(Cc3cccnc3)nn2C(C)C(F)(F)F)[nH]n1

$$$$
