
     RDKit          3D

 39 41  0  0  0  0  0  0  0  0999 V2000
    4.9933    1.8014   16.8958 H   0  0  0  0  0  0  0  0  0  0  0  0
    5.4484    1.3030   17.7460 C   0  0  0  0  0  0  0  0  0  0  0  0
    6.6042    0.6725   17.5045 N   0  0  0  0  0  0  0  0  0  0  0  0
    7.1884    0.0445   18.5354 C   0  0  0  0  0  0  0  0  0  0  0  0
    8.1321   -0.4540   18.3168 H   0  0  0  0  0  0  0  0  0  0  0  0
    6.6706    0.0102   19.8410 C   0  0  0  0  0  0  0  0  0  0  0  0
    7.3478   -0.7533   20.9935 C   0  0  0  0  0  0  0  0  0  0  0  0
    7.3546    0.1080   22.3031 C   0  0  0  0  0  0  0  0  0  0  0  0
    7.0208   -0.3240   23.3877 O   0  0  0  0  0  0  0  0  0  0  0  0
    7.8632    1.3845   22.1357 N   0  0  0  0  0  0  0  0  0  0  0  0
    7.8967    1.7106   21.1825 H   0  0  0  0  0  0  0  0  0  0  0  0
    8.2338    2.3132   23.1326 C   0  0  0  0  0  0  0  0  0  0  0  0
    8.6674    1.8995   24.4482 C   0  0  0  0  0  0  0  0  0  0  0  0
    8.7577    0.8289   24.6116 H   0  0  0  0  0  0  0  0  0  0  0  0
    8.9294    2.7233   25.4383 N   0  0  0  0  0  0  0  0  0  0  0  0
    8.7988    4.0686   25.2000 C   0  0  0  0  0  0  0  0  0  0  0  0
    8.9748    4.9652   26.2873 C   0  0  0  0  0  0  0  0  0  0  0  0
    9.0881    4.5155   27.2654 H   0  0  0  0  0  0  0  0  0  0  0  0
    8.9389    6.3241   26.0837 C   0  0  0  0  0  0  0  0  0  0  0  0
    9.1136    6.9946   26.9206 H   0  0  0  0  0  0  0  0  0  0  0  0
    8.6598    6.8473   24.7881 C   0  0  0  0  0  0  0  0  0  0  0  0
    8.6175    7.9247   24.6615 H   0  0  0  0  0  0  0  0  0  0  0  0
    8.4149    6.0072   23.7258 C   0  0  0  0  0  0  0  0  0  0  0  0
    8.1458    6.4039   22.7465 H   0  0  0  0  0  0  0  0  0  0  0  0
    8.4801    4.5925   23.9024 C   0  0  0  0  0  0  0  0  0  0  0  0
    8.1978    3.6602   22.8622 C   0  0  0  0  0  0  0  0  0  0  0  0
    7.9289    4.0315   21.8739 H   0  0  0  0  0  0  0  0  0  0  0  0
    8.8439   -1.0718   20.7179 C   0  0  0  0  0  0  0  0  0  0  0  0
    9.2778   -1.5755   21.5878 H   0  0  0  0  0  0  0  0  0  0  0  0
    9.4213   -0.1577   20.5355 H   0  0  0  0  0  0  0  0  0  0  0  0
    8.9854   -1.7264   19.8553 H   0  0  0  0  0  0  0  0  0  0  0  0
    6.5784   -2.0725   21.2325 C   0  0  0  0  0  0  0  0  0  0  0  0
    6.6209   -2.7158   20.3479 H   0  0  0  0  0  0  0  0  0  0  0  0
    7.0048   -2.6204   22.0787 H   0  0  0  0  0  0  0  0  0  0  0  0
    5.5216   -1.8812   21.4516 H   0  0  0  0  0  0  0  0  0  0  0  0
    5.4542    0.6802   20.0640 C   0  0  0  0  0  0  0  0  0  0  0  0
    5.0256    0.7129   21.0684 H   0  0  0  0  0  0  0  0  0  0  0  0
    4.8328    1.3347   19.0011 C   0  0  0  0  0  0  0  0  0  0  0  0
    3.9034    1.8748   19.1359 H   0  0  0  0  0  0  0  0  0  0  0  0
  1  2  1  0
  2  3  2  0
  3  4  1  0
  4  5  1  0
  4  6  2  0
  6  7  1  0
  7  8  1  0
  8  9  2  0
  8 10  1  0
 10 11  1  0
 10 12  1  0
 12 13  2  0
 13 14  1  0
 13 15  1  0
 15 16  2  0
 16 17  1  0
 17 18  1  0
 17 19  2  0
 19 20  1  0
 19 21  1  0
 21 22  1  0
 21 23  2  0
 23 24  1  0
 23 25  1  0
 25 26  2  0
 26 27  1  0
  7 28  1  0
 28 29  1  0
 28 30  1  0
 28 31  1  0
  7 32  1  0
 32 33  1  0
 32 34  1  0
 32 35  1  0
  6 36  1  0
 36 37  1  0
 36 38  2  0
 38 39  1  0
 38  2  1  0
 26 12  1  0
 25 16  1  0
M  END
>  <cnnaffinity>  (1) 
-5.01405

>  <filename>  (1) 
CC(C)(C(=O)Nc1cnc2ccccc2c1)c1cccnc1

$$$$
