
     RDKit          3D

 36 38  0  0  0  0  0  0  0  0999 V2000
   10.2732   -1.3802   24.4304 C   0  0  0  0  0  0  0  0  0  0  0  0
   10.6345   -1.8656   23.0282 C   0  0  0  0  0  0  0  0  0  0  0  0
   10.8533   -0.7011   22.0349 C   0  0  0  0  0  0  0  0  0  0  0  0
   11.6877    0.4748   22.5100 C   0  0  0  0  0  0  0  0  0  0  0  0
   11.0673    1.7175   22.7317 C   0  0  0  0  0  0  0  0  0  0  0  0
   11.8189    2.8790   22.9295 C   0  0  0  0  0  0  0  0  0  0  0  0
   13.2083    2.7756   22.9644 C   0  0  0  0  0  0  0  0  0  0  0  0
   13.9363    3.8987   23.0970 F   0  0  0  0  0  0  0  0  0  0  0  0
   13.8513    1.5394   22.8746 C   0  0  0  0  0  0  0  0  0  0  0  0
   13.0796    0.3896   22.6650 C   0  0  0  0  0  0  0  0  0  0  0  0
   13.5660   -0.5809   22.5769 H   0  0  0  0  0  0  0  0  0  0  0  0
   14.9336    1.4904   22.8960 H   0  0  0  0  0  0  0  0  0  0  0  0
   11.3475    3.8529   22.9939 H   0  0  0  0  0  0  0  0  0  0  0  0
    9.9793    1.7803   22.7630 H   0  0  0  0  0  0  0  0  0  0  0  0
    9.8680   -0.3042   21.7755 H   0  0  0  0  0  0  0  0  0  0  0  0
   11.2750   -1.0932   21.0999 H   0  0  0  0  0  0  0  0  0  0  0  0
    9.3443   -3.0420   22.3971 S   0  0  0  0  0  0  0  0  0  0  0  0
    8.0326   -1.9152   22.1492 C   0  0  0  0  0  0  0  0  0  0  0  0
    7.2228   -1.3958   23.0066 N   0  0  0  0  0  0  0  0  0  0  0  0
    6.4002   -0.5288   22.2962 N   0  0  0  0  0  0  0  0  0  0  0  0
    6.7786   -0.5937   21.0649 C   0  0  0  0  0  0  0  0  0  0  0  0
    6.3121    0.1247   19.8860 C   0  0  0  0  0  0  0  0  0  0  0  0
    5.1410    0.8952   19.8936 C   0  0  0  0  0  0  0  0  0  0  0  0
    4.7595    1.5056   18.7006 C   0  0  0  0  0  0  0  0  0  0  0  0
    5.5609    1.3379   17.5662 C   0  0  0  0  0  0  0  0  0  0  0  0
    6.6995    0.6265   17.5604 N   0  0  0  0  0  0  0  0  0  0  0  0
    7.0646    0.0448   18.7046 C   0  0  0  0  0  0  0  0  0  0  0  0
    8.0043   -0.5046   18.6788 H   0  0  0  0  0  0  0  0  0  0  0  0
    5.2804    1.7968   16.6200 H   0  0  0  0  0  0  0  0  0  0  0  0
    3.8681    2.1201   18.6333 H   0  0  0  0  0  0  0  0  0  0  0  0
    4.5623    1.0135   20.8117 H   0  0  0  0  0  0  0  0  0  0  0  0
    7.8055   -1.4670   20.8885 O   0  0  0  0  0  0  0  0  0  0  0  0
   11.5247   -2.5117   23.0369 H   0  0  0  0  0  0  0  0  0  0  0  0
   11.1261   -0.8502   24.8721 H   0  0  0  0  0  0  0  0  0  0  0  0
    9.9810   -2.2163   25.0760 H   0  0  0  0  0  0  0  0  0  0  0  0
    9.4330   -0.6746   24.3697 H   0  0  0  0  0  0  0  0  0  0  0  0
  1  2  1  0
  2  3  1  0
  3  4  1  0
  4  5  2  0
  5  6  1  0
  6  7  2  0
  7  8  1  0
  7  9  1  0
  9 10  2  0
 10 11  1  0
  9 12  1  0
  6 13  1  0
  5 14  1  0
  3 15  1  0
  3 16  1  0
  2 17  1  0
 17 18  1  0
 18 19  2  0
 19 20  1  0
 20 21  2  0
 21 22  1  0
 22 23  2  0
 23 24  1  0
 24 25  2  0
 25 26  1  0
 26 27  2  0
 27 28  1  0
 25 29  1  0
 24 30  1  0
 23 31  1  0
 21 32  1  0
  2 33  1  0
  1 34  1  0
  1 35  1  0
  1 36  1  0
 10  4  1  0
 32 18  1  0
 27 22  1  0
M  END
>  <cnnaffinity>  (1) 
-5.7494

>  <filename>  (1) 
CC(Cc1ccc(F)cc1)Sc1nnc(-c2cccnc2)o1

$$$$
