
     RDKit          3D

 34 35  0  0  0  0  0  0  0  0999 V2000
    7.4573    0.2692   22.2938 C   0  0  0  0  0  0  0  0  0  0  0  0
    7.3834   -0.6727   21.0743 C   0  0  0  0  0  0  0  0  0  0  0  0
    8.8456   -1.0263   20.7132 C   0  0  0  0  0  0  0  0  0  0  0  0
    9.3365   -1.5681   21.5261 H   0  0  0  0  0  0  0  0  0  0  0  0
    8.8988   -1.6351   19.8095 H   0  0  0  0  0  0  0  0  0  0  0  0
    9.4153   -0.1099   20.5309 H   0  0  0  0  0  0  0  0  0  0  0  0
    6.4938   -1.9107   21.3705 C   0  0  0  0  0  0  0  0  0  0  0  0
    6.8180   -2.5844   22.6462 N   0  0  0  0  0  0  0  0  0  0  0  0
    7.4252   -3.8190   22.7144 C   0  0  0  0  0  0  0  0  0  0  0  0
    7.4756   -4.4848   21.5575 N   0  0  0  0  0  0  0  0  0  0  0  0
    8.0133   -5.7015   21.5550 C   0  0  0  0  0  0  0  0  0  0  0  0
    8.5623   -6.2767   22.7045 C   0  0  0  0  0  0  0  0  0  0  0  0
    8.5573   -5.5705   23.9054 C   0  0  0  0  0  0  0  0  0  0  0  0
    9.3855   -6.2839   25.4774 Br  0  0  0  0  0  0  0  0  0  0  0  0
    7.9474   -4.3198   23.9256 C   0  0  0  0  0  0  0  0  0  0  0  0
    7.8739   -3.6188   25.0906 F   0  0  0  0  0  0  0  0  0  0  0  0
    9.0128   -7.2605   22.6794 H   0  0  0  0  0  0  0  0  0  0  0  0
    8.0360   -6.2328   20.6108 H   0  0  0  0  0  0  0  0  0  0  0  0
    6.9278   -1.9947   23.4649 H   0  0  0  0  0  0  0  0  0  0  0  0
    5.4462   -1.5861   21.3837 H   0  0  0  0  0  0  0  0  0  0  0  0
    6.5771   -2.6264   20.5450 H   0  0  0  0  0  0  0  0  0  0  0  0
    6.7061    0.0454   19.9176 C   0  0  0  0  0  0  0  0  0  0  0  0
    5.4763    0.6743   20.1242 C   0  0  0  0  0  0  0  0  0  0  0  0
    4.8741    1.3087   19.0418 C   0  0  0  0  0  0  0  0  0  0  0  0
    5.4973    1.2924   17.7896 C   0  0  0  0  0  0  0  0  0  0  0  0
    6.6635    0.6593   17.5708 N   0  0  0  0  0  0  0  0  0  0  0  0
    7.2492    0.0492   18.6174 C   0  0  0  0  0  0  0  0  0  0  0  0
    8.1774   -0.4837   18.4418 H   0  0  0  0  0  0  0  0  0  0  0  0
    5.0216    1.8047   16.9607 H   0  0  0  0  0  0  0  0  0  0  0  0
    3.9279    1.8179   19.1650 H   0  0  0  0  0  0  0  0  0  0  0  0
    5.0098    0.6626   21.1092 H   0  0  0  0  0  0  0  0  0  0  0  0
    7.9901   -0.2142   23.1193 H   0  0  0  0  0  0  0  0  0  0  0  0
    6.4559    0.5373   22.6423 H   0  0  0  0  0  0  0  0  0  0  0  0
    7.9905    1.1892   22.0352 H   0  0  0  0  0  0  0  0  0  0  0  0
  1  2  1  0
  2  3  1  0
  3  4  1  0
  3  5  1  0
  3  6  1  0
  2  7  1  0
  7  8  1  0
  8  9  1  0
  9 10  2  0
 10 11  1  0
 11 12  2  0
 12 13  1  0
 13 14  1  0
 13 15  2  0
 15 16  1  0
 12 17  1  0
 11 18  1  0
  8 19  1  0
  7 20  1  0
  7 21  1  0
  2 22  1  0
 22 23  2  0
 23 24  1  0
 24 25  2  0
 25 26  1  0
 26 27  2  0
 27 28  1  0
 25 29  1  0
 24 30  1  0
 23 31  1  0
  1 32  1  0
  1 33  1  0
  1 34  1  0
 15  9  1  0
 27 22  1  0
M  END
>  <cnnaffinity>  (1) 
-5.44658

>  <filename>  (1) 
CC(C)(CNc1nccc(Br)c1F)c1cccnc1

$$$$
