
     RDKit          3D

 34 35  0  0  0  0  0  0  0  0999 V2000
   10.2188    0.5740   20.6166 H   0  0  0  0  0  0  0  0  0  0  0  0
    9.4541    0.8807   20.1074 O   0  0  0  0  0  0  0  0  0  0  0  0
    8.7398    1.7901   20.9199 C   0  0  0  0  0  0  0  0  0  0  0  0
    7.8281    2.0705   20.3865 H   0  0  0  0  0  0  0  0  0  0  0  0
    9.2971    2.7335   21.0529 H   0  0  0  0  0  0  0  0  0  0  0  0
    8.4140    1.1956   22.3173 C   0  0  0  0  0  0  0  0  0  0  0  0
    7.9892   -0.3101   22.1951 C   0  0  0  0  0  0  0  0  0  0  0  0
    8.4882   -1.2588   23.1136 C   0  0  0  0  0  0  0  0  0  0  0  0
    9.1014   -0.9155   23.9396 H   0  0  0  0  0  0  0  0  0  0  0  0
    8.2672   -2.6310   22.9798 C   0  0  0  0  0  0  0  0  0  0  0  0
    8.7062   -3.3196   23.7027 H   0  0  0  0  0  0  0  0  0  0  0  0
    7.5006   -3.1122   21.9190 C   0  0  0  0  0  0  0  0  0  0  0  0
    7.3049   -4.1774   21.8181 H   0  0  0  0  0  0  0  0  0  0  0  0
    6.9734   -2.1988   21.0018 C   0  0  0  0  0  0  0  0  0  0  0  0
    6.3900   -2.5576   20.1590 H   0  0  0  0  0  0  0  0  0  0  0  0
    7.1775   -0.8106   21.1315 C   0  0  0  0  0  0  0  0  0  0  0  0
    6.5382   -0.0030   20.0324 C   0  0  0  0  0  0  0  0  0  0  0  0
    7.1065   -0.0554   18.7439 C   0  0  0  0  0  0  0  0  0  0  0  0
    8.0305   -0.6079   18.5831 H   0  0  0  0  0  0  0  0  0  0  0  0
    6.6108    0.5729   17.6655 N   0  0  0  0  0  0  0  0  0  0  0  0
    5.4762    1.2667   17.8322 C   0  0  0  0  0  0  0  0  0  0  0  0
    5.0912    1.7670   16.9442 H   0  0  0  0  0  0  0  0  0  0  0  0
    4.7919    1.3433   19.0489 C   0  0  0  0  0  0  0  0  0  0  0  0
    3.8644    1.9027   19.1121 H   0  0  0  0  0  0  0  0  0  0  0  0
    5.3309    0.6961   20.1681 C   0  0  0  0  0  0  0  0  0  0  0  0
    4.8263    0.7284   21.1345 H   0  0  0  0  0  0  0  0  0  0  0  0
    7.2982    2.0582   22.9502 C   0  0  0  0  0  0  0  0  0  0  0  0
    6.3816    2.0402   22.3514 H   0  0  0  0  0  0  0  0  0  0  0  0
    7.0581    1.7163   23.9655 H   0  0  0  0  0  0  0  0  0  0  0  0
    7.6199    3.1076   23.0231 H   0  0  0  0  0  0  0  0  0  0  0  0
    9.6798    1.3792   23.2123 C   0  0  0  0  0  0  0  0  0  0  0  0
   10.0138    2.4238   23.2228 H   0  0  0  0  0  0  0  0  0  0  0  0
    9.4690    1.1143   24.2551 H   0  0  0  0  0  0  0  0  0  0  0  0
   10.5311    0.7747   22.8747 H   0  0  0  0  0  0  0  0  0  0  0  0
  1  2  1  0
  2  3  1  0
  3  4  1  0
  3  5  1  0
  3  6  1  0
  6  7  1  0
  7  8  2  0
  8  9  1  0
  8 10  1  0
 10 11  1  0
 10 12  2  0
 12 13  1  0
 12 14  1  0
 14 15  1  0
 14 16  2  0
 16 17  1  0
 17 18  2  0
 18 19  1  0
 18 20  1  0
 20 21  2  0
 21 22  1  0
 21 23  1  0
 23 24  1  0
 23 25  2  0
 25 26  1  0
  6 27  1  0
 27 28  1  0
 27 29  1  0
 27 30  1  0
  6 31  1  0
 31 32  1  0
 31 33  1  0
 31 34  1  0
 16  7  1  0
 25 17  1  0
M  END
>  <cnnaffinity>  (1) 
-4.86644

>  <filename>  (1) 
CC(C)(CO)c1ccccc1-c1cccnc1

$$$$
