
     RDKit          3D

 36 37  0  0  0  0  0  0  0  0999 V2000
    8.9422   -2.9720   22.1341 H   0  0  0  0  0  0  0  0  0  0  0  0
    9.4631   -3.5576   22.7301 O   0  0  0  0  0  0  0  0  0  0  0  0
    8.7045   -3.8356   23.8151 C   0  0  0  0  0  0  0  0  0  0  0  0
    9.0838   -4.8645   24.6801 C   0  0  0  0  0  0  0  0  0  0  0  0
   10.0308   -5.3748   24.5284 H   0  0  0  0  0  0  0  0  0  0  0  0
    8.2323   -5.2019   25.7382 C   0  0  0  0  0  0  0  0  0  0  0  0
    8.6763   -6.4976   26.7939 Cl  0  0  0  0  0  0  0  0  0  0  0  0
    7.0302   -4.5302   25.9696 C   0  0  0  0  0  0  0  0  0  0  0  0
    6.3864   -4.8461   26.7852 H   0  0  0  0  0  0  0  0  0  0  0  0
    6.6972   -3.4496   25.1520 C   0  0  0  0  0  0  0  0  0  0  0  0
    5.7773   -2.8856   25.2940 H   0  0  0  0  0  0  0  0  0  0  0  0
    7.5375   -3.0760   24.1031 C   0  0  0  0  0  0  0  0  0  0  0  0
    7.1860   -2.0572   23.2807 O   0  0  0  0  0  0  0  0  0  0  0  0
    7.7266   -0.7347   23.4896 C   0  0  0  0  0  0  0  0  0  0  0  0
    7.3287   -0.0873   22.2665 N   0  0  0  0  0  0  0  0  0  0  0  0
    6.9838    0.8529   22.2558 H   0  0  0  0  0  0  0  0  0  0  0  0
    7.5025   -0.6575   21.0491 C   0  0  0  0  0  0  0  0  0  0  0  0
    8.2769   -1.5838   20.8318 O   0  0  0  0  0  0  0  0  0  0  0  0
    6.7016   -0.0339   19.9662 C   0  0  0  0  0  0  0  0  0  0  0  0
    7.2378   -0.0930   18.6816 C   0  0  0  0  0  0  0  0  0  0  0  0
    8.1421   -0.6699   18.4923 H   0  0  0  0  0  0  0  0  0  0  0  0
    6.6996    0.5362   17.6306 N   0  0  0  0  0  0  0  0  0  0  0  0
    5.5592    1.2197   17.8342 C   0  0  0  0  0  0  0  0  0  0  0  0
    5.1433    1.7448   16.9770 H   0  0  0  0  0  0  0  0  0  0  0  0
    4.8891    1.2529   19.0641 C   0  0  0  0  0  0  0  0  0  0  0  0
    3.9694    1.8224   19.1782 H   0  0  0  0  0  0  0  0  0  0  0  0
    5.4616    0.6040   20.1528 C   0  0  0  0  0  0  0  0  0  0  0  0
    4.9617    0.5652   21.1244 H   0  0  0  0  0  0  0  0  0  0  0  0
    9.2483   -0.6772   23.6196 C   0  0  0  0  0  0  0  0  0  0  0  0
    9.5560    0.3524   23.8246 H   0  0  0  0  0  0  0  0  0  0  0  0
    9.6233   -1.3202   24.4209 H   0  0  0  0  0  0  0  0  0  0  0  0
    9.7041   -0.9788   22.6752 H   0  0  0  0  0  0  0  0  0  0  0  0
    7.0154   -0.0920   24.6675 C   0  0  0  0  0  0  0  0  0  0  0  0
    7.2969   -0.5704   25.6096 H   0  0  0  0  0  0  0  0  0  0  0  0
    7.2662    0.9690   24.7482 H   0  0  0  0  0  0  0  0  0  0  0  0
    5.9359   -0.1937   24.5375 H   0  0  0  0  0  0  0  0  0  0  0  0
  1  2  1  0
  2  3  1  0
  3  4  2  0
  4  5  1  0
  4  6  1  0
  6  7  1  0
  6  8  2  0
  8  9  1  0
  8 10  1  0
 10 11  1  0
 10 12  2  0
 12 13  1  0
 13 14  1  0
 14 15  1  0
 15 16  1  0
 15 17  1  0
 17 18  2  0
 17 19  1  0
 19 20  2  0
 20 21  1  0
 20 22  1  0
 22 23  2  0
 23 24  1  0
 23 25  1  0
 25 26  1  0
 25 27  2  0
 27 28  1  0
 14 29  1  0
 29 30  1  0
 29 31  1  0
 29 32  1  0
 14 33  1  0
 33 34  1  0
 33 35  1  0
 33 36  1  0
 12  3  1  0
 27 19  1  0
M  END
>  <cnnaffinity>  (1) 
-5.02472

>  <filename>  (1) 
CC(C)(NC(=O)c1cccnc1)Oc1ccc(Cl)cc1O

$$$$
