
     RDKit          3D

 46 50  0  0  0  0  0  0  0  0999 V2000
   11.8279    2.5724   20.7830 C   0  0  0  0  0  0  0  0  0  0  0  0
   11.4381    2.1995   22.1996 C   0  0  0  0  0  0  0  0  0  0  0  0
   12.5124    1.3098   22.8358 C   0  0  0  0  0  0  0  0  0  0  0  0
   12.2524    0.2228   23.8393 C   0  0  0  0  0  0  0  0  0  0  0  0
   12.6488   -0.1375   22.4393 C   0  0  0  0  0  0  0  0  0  0  0  0
   13.6419   -0.5376   22.2495 H   0  0  0  0  0  0  0  0  0  0  0  0
   11.8595   -0.5192   21.7939 H   0  0  0  0  0  0  0  0  0  0  0  0
   11.2213    0.0313   24.1288 H   0  0  0  0  0  0  0  0  0  0  0  0
   12.9930    0.0975   24.6261 H   0  0  0  0  0  0  0  0  0  0  0  0
   13.4529    1.8525   22.9658 H   0  0  0  0  0  0  0  0  0  0  0  0
   10.0692    1.6506   22.2333 N   0  0  0  0  0  0  0  0  0  0  0  0
    9.6811    0.6729   21.3802 N   0  0  0  0  0  0  0  0  0  0  0  0
    8.4075    0.4902   21.6758 C   0  0  0  0  0  0  0  0  0  0  0  0
    7.5945   -0.5385   20.9325 C   0  0  0  0  0  0  0  0  0  0  0  0
    6.7661    0.0245   19.7792 C   0  0  0  0  0  0  0  0  0  0  0  0
    5.5475    0.6632   20.0476 C   0  0  0  0  0  0  0  0  0  0  0  0
    4.8680    1.2977   19.0068 C   0  0  0  0  0  0  0  0  0  0  0  0
    5.4228    1.2630   17.7256 C   0  0  0  0  0  0  0  0  0  0  0  0
    6.5564    0.6085   17.4310 N   0  0  0  0  0  0  0  0  0  0  0  0
    7.1941   -0.0007   18.4389 C   0  0  0  0  0  0  0  0  0  0  0  0
    8.1029   -0.5400   18.1679 H   0  0  0  0  0  0  0  0  0  0  0  0
    4.9354    1.7771   16.8986 H   0  0  0  0  0  0  0  0  0  0  0  0
    3.9377    1.8273   19.1761 H   0  0  0  0  0  0  0  0  0  0  0  0
    5.1490    0.6649   21.0639 H   0  0  0  0  0  0  0  0  0  0  0  0
    6.9310   -1.0099   21.6638 H   0  0  0  0  0  0  0  0  0  0  0  0
    8.2857   -1.3139   20.5816 H   0  0  0  0  0  0  0  0  0  0  0  0
    7.9340    1.3068   22.6492 N   0  0  0  0  0  0  0  0  0  0  0  0
    8.9993    2.0374   22.9785 C   0  0  0  0  0  0  0  0  0  0  0  0
    9.0690    3.0708   24.0131 C   0  0  0  0  0  0  0  0  0  0  0  0
   10.1177    3.7534   24.6024 C   0  0  0  0  0  0  0  0  0  0  0  0
    9.5685    4.7020   25.5065 C   0  0  0  0  0  0  0  0  0  0  0  0
   10.0964    5.7276   26.3246 C   0  0  0  0  0  0  0  0  0  0  0  0
    9.3412    6.5154   27.0806 N   0  0  0  0  0  0  0  0  0  0  0  0
    8.0012    6.3074   27.0469 C   0  0  0  0  0  0  0  0  0  0  0  0
    7.3562    5.3308   26.2980 C   0  0  0  0  0  0  0  0  0  0  0  0
    8.1677    4.5183   25.4939 C   0  0  0  0  0  0  0  0  0  0  0  0
    7.8998    3.5300   24.5913 N   0  0  0  0  0  0  0  0  0  0  0  0
    6.9918    3.1787   24.3276 H   0  0  0  0  0  0  0  0  0  0  0  0
    6.2824    5.2123   26.3522 H   0  0  0  0  0  0  0  0  0  0  0  0
    7.4140    6.9816   27.6627 H   0  0  0  0  0  0  0  0  0  0  0  0
   11.1746    5.8957   26.3592 H   0  0  0  0  0  0  0  0  0  0  0  0
   11.1765    3.5668   24.4994 H   0  0  0  0  0  0  0  0  0  0  0  0
   11.3866    3.1228   22.7525 H   0  0  0  0  0  0  0  0  0  0  0  0
   10.9937    2.9829   20.2320 H   0  0  0  0  0  0  0  0  0  0  0  0
   12.6405    3.3013   20.7860 H   0  0  0  0  0  0  0  0  0  0  0  0
   12.1225    1.6679   20.2714 H   0  0  0  0  0  0  0  0  0  0  0  0
  1  2  1  0
  2  3  1  0
  3  4  1  0
  4  5  1  0
  5  6  1  0
  5  7  1  0
  4  8  1  0
  4  9  1  0
  3 10  1  0
  2 11  1  0
 11 12  1  0
 12 13  2  0
 13 14  1  0
 14 15  1  0
 15 16  2  0
 16 17  1  0
 17 18  2  0
 18 19  1  0
 19 20  2  0
 20 21  1  0
 18 22  1  0
 17 23  1  0
 16 24  1  0
 14 25  1  0
 14 26  1  0
 13 27  1  0
 27 28  2  0
 28 29  1  0
 29 30  2  0
 30 31  1  0
 31 32  2  0
 32 33  1  0
 33 34  2  0
 34 35  1  0
 35 36  2  0
 36 37  1  0
 37 38  1  0
 35 39  1  0
 34 40  1  0
 32 41  1  0
 30 42  1  0
  2 43  1  0
  1 44  1  0
  1 45  1  0
  1 46  1  0
  5  3  1  0
 28 11  1  0
 37 29  1  0
 20 15  1  0
 36 31  1  0
M  END
>  <cnnaffinity>  (1) 
-6.55965

>  <filename>  (1) 
CC(C1CC1)n1nc(Cc2cccnc2)nc1-c1cc2cnccc2[nH]1

$$$$
