
     RDKit          3D

 40 41  0  0  0  0  0  0  0  0999 V2000
    4.9778    1.8289   16.8187 H   0  0  0  0  0  0  0  0  0  0  0  0
    5.4519    1.4204   17.7125 C   0  0  0  0  0  0  0  0  0  0  0  0
    6.6210    0.7946   17.5141 N   0  0  0  0  0  0  0  0  0  0  0  0
    7.2232    0.2748   18.5929 C   0  0  0  0  0  0  0  0  0  0  0  0
    8.1791   -0.2119   18.3930 H   0  0  0  0  0  0  0  0  0  0  0  0
    6.7220    0.3181   19.9005 C   0  0  0  0  0  0  0  0  0  0  0  0
    7.4657   -0.5068   20.9588 C   0  0  0  0  0  0  0  0  0  0  0  0
    7.3644   -1.9329   20.6137 N   0  0  0  0  0  0  0  0  0  0  0  0
    7.9023   -2.1072   19.7738 H   0  0  0  0  0  0  0  0  0  0  0  0
    6.0479   -2.5035   20.3541 C   0  0  0  0  0  0  0  0  0  0  0  0
    5.2975   -2.1821   21.0929 H   0  0  0  0  0  0  0  0  0  0  0  0
    5.6464   -2.1836   19.3763 H   0  0  0  0  0  0  0  0  0  0  0  0
    6.2662   -3.9273   20.3555 N   0  0  0  0  0  0  0  0  0  0  0  0
    7.2069   -3.9384   19.9663 H   0  0  0  0  0  0  0  0  0  0  0  0
    6.3989   -4.5165   21.6949 C   0  0  0  0  0  0  0  0  0  0  0  0
    7.0094   -3.8989   22.3894 H   0  0  0  0  0  0  0  0  0  0  0  0
    7.0380   -5.9039   21.6031 C   0  0  0  0  0  0  0  0  0  0  0  0
    6.6211   -6.4317   20.7345 H   0  0  0  0  0  0  0  0  0  0  0  0
    8.1263   -5.8510   21.4681 H   0  0  0  0  0  0  0  0  0  0  0  0
    6.6463   -6.5874   22.9194 C   0  0  0  0  0  0  0  0  0  0  0  0
    7.4025   -6.3538   23.6790 H   0  0  0  0  0  0  0  0  0  0  0  0
    6.6011   -7.6764   22.8094 H   0  0  0  0  0  0  0  0  0  0  0  0
    5.2891   -5.9662   23.3416 C   0  0  0  0  0  0  0  0  0  0  0  0
    4.4715   -6.6912   23.2821 H   0  0  0  0  0  0  0  0  0  0  0  0
    5.3271   -5.6292   24.3843 H   0  0  0  0  0  0  0  0  0  0  0  0
    5.0448   -4.8017   22.3544 C   0  0  0  0  0  0  0  0  0  0  0  0
    4.3555   -5.1325   21.5742 H   0  0  0  0  0  0  0  0  0  0  0  0
    4.5995   -3.9132   22.8186 H   0  0  0  0  0  0  0  0  0  0  0  0
    8.9630   -0.1404   21.0063 C   0  0  0  0  0  0  0  0  0  0  0  0
    9.0976    0.8670   21.4248 H   0  0  0  0  0  0  0  0  0  0  0  0
    9.4642   -0.1789   20.0352 H   0  0  0  0  0  0  0  0  0  0  0  0
    9.4700   -0.8645   21.6539 H   0  0  0  0  0  0  0  0  0  0  0  0
    6.9269   -0.3125   22.3866 C   0  0  0  0  0  0  0  0  0  0  0  0
    7.6830   -0.6086   23.1209 H   0  0  0  0  0  0  0  0  0  0  0  0
    6.0603   -0.9473   22.5651 H   0  0  0  0  0  0  0  0  0  0  0  0
    6.6698    0.7348   22.5739 H   0  0  0  0  0  0  0  0  0  0  0  0
    5.5026    0.9934   20.0883 C   0  0  0  0  0  0  0  0  0  0  0  0
    5.0400    1.0798   21.0735 H   0  0  0  0  0  0  0  0  0  0  0  0
    4.8638    1.5533   18.9729 C   0  0  0  0  0  0  0  0  0  0  0  0
    3.9234    2.0901   19.0601 H   0  0  0  0  0  0  0  0  0  0  0  0
  1  2  1  0
  2  3  2  0
  3  4  1  0
  4  5  1  0
  4  6  2  0
  6  7  1  0
  7  8  1  0
  8  9  1  0
  8 10  1  0
 10 11  1  0
 10 12  1  0
 10 13  1  0
 13 14  1  0
 13 15  1  0
 15 16  1  0
 15 17  1  0
 17 18  1  0
 17 19  1  0
 17 20  1  0
 20 21  1  0
 20 22  1  0
 20 23  1  0
 23 24  1  0
 23 25  1  0
 23 26  1  0
 26 27  1  0
 26 28  1  0
  7 29  1  0
 29 30  1  0
 29 31  1  0
 29 32  1  0
  7 33  1  0
 33 34  1  0
 33 35  1  0
 33 36  1  0
  6 37  1  0
 37 38  1  0
 37 39  2  0
 39 40  1  0
 39  2  1  0
 26 15  1  0
M  END
>  <cnnaffinity>  (1) 
-4.58534

>  <filename>  (1) 
CC(C)(NCNC1CCCC1)c1cccnc1

$$$$
