
     RDKit          3D

 34 35  0  0  0  0  0  0  0  0999 V2000
    8.9778   -3.2662   22.1190 C   0  0  0  0  0  0  0  0  0  0  0  0
    8.3567   -2.4100   23.1949 C   0  0  0  0  0  0  0  0  0  0  0  0
    8.9398   -2.2766   24.4041 C   0  0  0  0  0  0  0  0  0  0  0  0
    8.6184   -1.2980   25.4577 C   0  0  0  0  0  0  0  0  0  0  0  0
    9.1500   -1.5118   26.7443 C   0  0  0  0  0  0  0  0  0  0  0  0
    8.9739   -0.5715   27.7588 C   0  0  0  0  0  0  0  0  0  0  0  0
    8.2397    0.5945   27.5100 C   0  0  0  0  0  0  0  0  0  0  0  0
    7.6840    0.8057   26.2454 C   0  0  0  0  0  0  0  0  0  0  0  0
    7.8699   -0.1276   25.2240 C   0  0  0  0  0  0  0  0  0  0  0  0
    7.4688    0.0633   24.2322 H   0  0  0  0  0  0  0  0  0  0  0  0
    7.1127    1.7048   26.0474 H   0  0  0  0  0  0  0  0  0  0  0  0
    8.1219    1.3455   28.2875 H   0  0  0  0  0  0  0  0  0  0  0  0
    9.4321   -0.7239   28.7322 H   0  0  0  0  0  0  0  0  0  0  0  0
    9.6959   -2.4330   26.9317 H   0  0  0  0  0  0  0  0  0  0  0  0
    9.7650   -2.9581   24.6422 H   0  0  0  0  0  0  0  0  0  0  0  0
    7.0092   -1.8810   22.9321 C   0  0  0  0  0  0  0  0  0  0  0  0
    6.5421   -1.3310   21.7953 C   0  0  0  0  0  0  0  0  0  0  0  0
    7.3371   -0.6754   20.7218 C   0  0  0  0  0  0  0  0  0  0  0  0
    8.5568   -0.7240   20.6809 O   0  0  0  0  0  0  0  0  0  0  0  0
    6.5838    0.0693   19.6768 C   0  0  0  0  0  0  0  0  0  0  0  0
    5.3600    0.7134   19.9064 C   0  0  0  0  0  0  0  0  0  0  0  0
    4.7723    1.4083   18.8543 C   0  0  0  0  0  0  0  0  0  0  0  0
    5.4144    1.4095   17.6107 C   0  0  0  0  0  0  0  0  0  0  0  0
    6.5866    0.7969   17.3787 N   0  0  0  0  0  0  0  0  0  0  0  0
    7.1659    0.1725   18.4078 C   0  0  0  0  0  0  0  0  0  0  0  0
    8.1440   -0.2685   18.2255 H   0  0  0  0  0  0  0  0  0  0  0  0
    4.9788    1.9483   16.7726 H   0  0  0  0  0  0  0  0  0  0  0  0
    3.8477    1.9587   18.9950 H   0  0  0  0  0  0  0  0  0  0  0  0
    4.9013    0.7032   20.8980 H   0  0  0  0  0  0  0  0  0  0  0  0
    5.4756   -1.3484   21.6161 H   0  0  0  0  0  0  0  0  0  0  0  0
    6.3307   -1.9459   23.7867 H   0  0  0  0  0  0  0  0  0  0  0  0
   10.0580   -3.0918   22.0512 H   0  0  0  0  0  0  0  0  0  0  0  0
    8.7984   -4.3239   22.3513 H   0  0  0  0  0  0  0  0  0  0  0  0
    8.5471   -3.0561   21.1409 H   0  0  0  0  0  0  0  0  0  0  0  0
  1  2  1  0
  2  3  2  3
  3  4  1  0
  4  5  2  0
  5  6  1  0
  6  7  2  0
  7  8  1  0
  8  9  2  0
  9 10  1  0
  8 11  1  0
  7 12  1  0
  6 13  1  0
  5 14  1  0
  3 15  1  0
  2 16  1  0
 16 17  2  3
 17 18  1  0
 18 19  2  0
 18 20  1  0
 20 21  2  0
 21 22  1  0
 22 23  2  0
 23 24  1  0
 24 25  2  0
 25 26  1  0
 23 27  1  0
 22 28  1  0
 21 29  1  0
 17 30  1  0
 16 31  1  0
  1 32  1  0
  1 33  1  0
  1 34  1  0
  9  4  1  0
 25 20  1  0
M  END
>  <cnnaffinity>  (1) 
-4.056

>  <filename>  (1) 
CC(C=CC(=O)c1cccnc1)=Cc1ccccc1

$$$$
