
     RDKit          3D

 35 36  0  0  0  0  0  0  0  0999 V2000
    5.0938   -3.5352   18.0603 H   0  0  0  0  0  0  0  0  0  0  0  0
    5.5437   -3.7940   19.0191 C   0  0  0  0  0  0  0  0  0  0  0  0
    5.8649   -2.7633   19.7971 N   0  0  0  0  0  0  0  0  0  0  0  0
    6.5046   -2.9783   20.9520 C   0  0  0  0  0  0  0  0  0  0  0  0
    6.7212   -1.7436   21.8024 C   0  0  0  0  0  0  0  0  0  0  0  0
    5.7230   -1.3572   21.9949 H   0  0  0  0  0  0  0  0  0  0  0  0
    7.1494   -2.0083   22.7657 H   0  0  0  0  0  0  0  0  0  0  0  0
    7.5301   -0.5519   21.1961 C   0  0  0  0  0  0  0  0  0  0  0  0
    6.8010    0.0985   20.0074 C   0  0  0  0  0  0  0  0  0  0  0  0
    7.3080    0.0985   18.6954 C   0  0  0  0  0  0  0  0  0  0  0  0
    8.2575   -0.3856   18.4818 H   0  0  0  0  0  0  0  0  0  0  0  0
    6.7101    0.6541   17.6295 N   0  0  0  0  0  0  0  0  0  0  0  0
    5.5333    1.2545   17.8393 C   0  0  0  0  0  0  0  0  0  0  0  0
    5.0596    1.6989   16.9660 H   0  0  0  0  0  0  0  0  0  0  0  0
    4.9158    1.3186   19.0925 C   0  0  0  0  0  0  0  0  0  0  0  0
    3.9659    1.8325   19.2008 H   0  0  0  0  0  0  0  0  0  0  0  0
    5.5555    0.7265   20.1865 C   0  0  0  0  0  0  0  0  0  0  0  0
    5.0882    0.7592   21.1740 H   0  0  0  0  0  0  0  0  0  0  0  0
    7.6599    0.4917   22.3337 C   0  0  0  0  0  0  0  0  0  0  0  0
    6.6842    0.8511   22.6767 H   0  0  0  0  0  0  0  0  0  0  0  0
    8.2384    1.3662   22.0142 H   0  0  0  0  0  0  0  0  0  0  0  0
    8.1616    0.0429   23.1989 H   0  0  0  0  0  0  0  0  0  0  0  0
    8.9431   -1.0171   20.8185 C   0  0  0  0  0  0  0  0  0  0  0  0
    8.9304   -1.6959   19.9628 H   0  0  0  0  0  0  0  0  0  0  0  0
    9.5677   -0.1550   20.5615 H   0  0  0  0  0  0  0  0  0  0  0  0
    9.4026   -1.5463   21.6565 H   0  0  0  0  0  0  0  0  0  0  0  0
    6.8316   -4.2872   21.3579 C   0  0  0  0  0  0  0  0  0  0  0  0
    7.6357   -4.5020   22.6030 C   0  0  0  0  0  0  0  0  0  0  0  0
    8.7559   -3.7466   22.6398 F   0  0  0  0  0  0  0  0  0  0  0  0
    6.9354   -4.1903   23.7135 F   0  0  0  0  0  0  0  0  0  0  0  0
    8.0341   -5.7788   22.7334 F   0  0  0  0  0  0  0  0  0  0  0  0
    6.3730   -5.3801   20.6095 C   0  0  0  0  0  0  0  0  0  0  0  0
    6.5141   -6.4043   20.9643 H   0  0  0  0  0  0  0  0  0  0  0  0
    5.7321   -5.1216   19.4071 C   0  0  0  0  0  0  0  0  0  0  0  0
    5.4089   -5.9322   18.7688 H   0  0  0  0  0  0  0  0  0  0  0  0
  1  2  1  0
  2  3  2  0
  3  4  1  0
  4  5  1  0
  5  6  1  0
  5  7  1  0
  5  8  1  0
  8  9  1  0
  9 10  2  0
 10 11  1  0
 10 12  1  0
 12 13  2  0
 13 14  1  0
 13 15  1  0
 15 16  1  0
 15 17  2  0
 17 18  1  0
  8 19  1  0
 19 20  1  0
 19 21  1  0
 19 22  1  0
  8 23  1  0
 23 24  1  0
 23 25  1  0
 23 26  1  0
  4 27  2  0
 27 28  1  0
 28 29  1  0
 28 30  1  0
 28 31  1  0
 27 32  1  0
 32 33  1  0
 32 34  2  0
 34 35  1  0
 34  2  1  0
 17  9  1  0
M  END
>  <cnnaffinity>  (1) 
-5.07557

>  <filename>  (1) 
CC(C)(Cc1ncccc1C(F)(F)F)c1cccnc1

$$$$
