
     RDKit          3D

 49 53  0  0  0  0  0  0  0  0999 V2000
    7.8365    2.4055   24.9534 C   0  0  0  0  0  0  0  0  0  0  0  0
    8.6523    2.8660   23.7498 C   0  0  0  0  0  0  0  0  0  0  0  0
    8.2352    4.2427   23.2350 C   0  0  0  0  0  0  0  0  0  0  0  0
    9.2680    5.1762   22.6614 C   0  0  0  0  0  0  0  0  0  0  0  0
    8.6303    5.4850   23.9883 C   0  0  0  0  0  0  0  0  0  0  0  0
    7.9089    6.2989   24.0444 H   0  0  0  0  0  0  0  0  0  0  0  0
    9.2441    5.3898   24.8829 H   0  0  0  0  0  0  0  0  0  0  0  0
   10.3097    4.8481   22.6694 H   0  0  0  0  0  0  0  0  0  0  0  0
    8.9921    5.7839   21.8035 H   0  0  0  0  0  0  0  0  0  0  0  0
    7.2524    4.2704   22.7638 H   0  0  0  0  0  0  0  0  0  0  0  0
    8.6287    1.8344   22.6863 N   0  0  0  0  0  0  0  0  0  0  0  0
    7.5071    1.1058   22.4416 N   0  0  0  0  0  0  0  0  0  0  0  0
    7.8158    0.4172   21.3648 C   0  0  0  0  0  0  0  0  0  0  0  0
    6.8829   -0.6048   20.7685 C   0  0  0  0  0  0  0  0  0  0  0  0
    6.1680   -0.0850   19.5311 C   0  0  0  0  0  0  0  0  0  0  0  0
    5.0122    0.6998   19.6553 C   0  0  0  0  0  0  0  0  0  0  0  0
    4.5202    1.3561   18.5274 C   0  0  0  0  0  0  0  0  0  0  0  0
    5.2055    1.2128   17.3174 C   0  0  0  0  0  0  0  0  0  0  0  0
    6.2821    0.4280   17.1599 N   0  0  0  0  0  0  0  0  0  0  0  0
    6.7322   -0.2063   18.2480 C   0  0  0  0  0  0  0  0  0  0  0  0
    7.6165   -0.8294   18.1077 H   0  0  0  0  0  0  0  0  0  0  0  0
    4.8925    1.7612   16.4341 H   0  0  0  0  0  0  0  0  0  0  0  0
    3.6465    1.9986   18.5772 H   0  0  0  0  0  0  0  0  0  0  0  0
    4.5198    0.8117   20.6251 H   0  0  0  0  0  0  0  0  0  0  0  0
    6.1668   -0.8717   21.5513 H   0  0  0  0  0  0  0  0  0  0  0  0
    7.4727   -1.5011   20.5393 H   0  0  0  0  0  0  0  0  0  0  0  0
    9.0646    0.6582   20.8748 N   0  0  0  0  0  0  0  0  0  0  0  0
    9.5585    1.5253   21.7454 C   0  0  0  0  0  0  0  0  0  0  0  0
   10.9700    1.9353   21.9157 C   0  0  0  0  0  0  0  0  0  0  0  0
   11.6799    1.4204   23.0206 C   0  0  0  0  0  0  0  0  0  0  0  0
   12.9191    1.9690   23.4260 C   0  0  0  0  0  0  0  0  0  0  0  0
   13.4766    3.0431   22.7098 C   0  0  0  0  0  0  0  0  0  0  0  0
   12.8315    3.4791   21.5535 C   0  0  0  0  0  0  0  0  0  0  0  0
   11.6364    2.8760   21.1200 C   0  0  0  0  0  0  0  0  0  0  0  0
   11.2607    3.1459   20.1390 H   0  0  0  0  0  0  0  0  0  0  0  0
   13.2706    4.2714   20.9500 H   0  0  0  0  0  0  0  0  0  0  0  0
   14.4124    3.4878   23.0221 H   0  0  0  0  0  0  0  0  0  0  0  0
   13.3949    1.2754   24.5242 N   0  0  0  0  0  0  0  0  0  0  0  0
   12.4995    0.3638   24.7518 C   0  0  0  0  0  0  0  0  0  0  0  0
   11.4322    0.3795   23.8944 N   0  0  0  0  0  0  0  0  0  0  0  0
   10.3746   -0.6187   23.8454 C   0  0  0  0  0  0  0  0  0  0  0  0
   10.5852   -1.3737   24.6088 H   0  0  0  0  0  0  0  0  0  0  0  0
    9.3933   -0.1698   24.0437 H   0  0  0  0  0  0  0  0  0  0  0  0
   10.3621   -1.0900   22.8562 H   0  0  0  0  0  0  0  0  0  0  0  0
   12.5368   -0.3734   25.5471 H   0  0  0  0  0  0  0  0  0  0  0  0
    9.6970    2.9491   24.0621 H   0  0  0  0  0  0  0  0  0  0  0  0
    7.8702    3.1462   25.7560 H   0  0  0  0  0  0  0  0  0  0  0  0
    8.2401    1.4671   25.3446 H   0  0  0  0  0  0  0  0  0  0  0  0
    6.7900    2.2286   24.6914 H   0  0  0  0  0  0  0  0  0  0  0  0
  1  2  1  0
  2  3  1  0
  3  4  1  0
  4  5  1  0
  5  6  1  0
  5  7  1  0
  4  8  1  0
  4  9  1  0
  3 10  1  0
  2 11  1  0
 11 12  1  0
 12 13  2  0
 13 14  1  0
 14 15  1  0
 15 16  2  0
 16 17  1  0
 17 18  2  0
 18 19  1  0
 19 20  2  0
 20 21  1  0
 18 22  1  0
 17 23  1  0
 16 24  1  0
 14 25  1  0
 14 26  1  0
 13 27  1  0
 27 28  2  0
 28 29  1  0
 29 30  2  0
 30 31  1  0
 31 32  2  0
 32 33  1  0
 33 34  2  0
 34 35  1  0
 33 36  1  0
 32 37  1  0
 31 38  1  0
 38 39  2  0
 39 40  1  0
 40 41  1  0
 41 42  1  0
 41 43  1  0
 41 44  1  0
 39 45  1  0
  2 46  1  0
  1 47  1  0
  1 48  1  0
  1 49  1  0
  5  3  1  0
 28 11  1  0
 34 29  1  0
 20 15  1  0
 40 30  1  0
M  END
>  <cnnaffinity>  (1) 
-6.25318

>  <filename>  (1) 
CC(C1CC1)n1nc(Cc2cccnc2)nc1-c1cccc2ncn(C)c12

$$$$
