
     RDKit          3D

 33 34  0  0  0  0  0  0  0  0999 V2000
    4.9311    1.7529   16.9900 H   0  0  0  0  0  0  0  0  0  0  0  0
    5.4022    1.2967   17.8574 C   0  0  0  0  0  0  0  0  0  0  0  0
    6.5784    0.6910   17.6403 N   0  0  0  0  0  0  0  0  0  0  0  0
    7.1715    0.1214   18.6934 C   0  0  0  0  0  0  0  0  0  0  0  0
    8.1282   -0.3505   18.4901 H   0  0  0  0  0  0  0  0  0  0  0  0
    6.6528    0.1169   19.9965 C   0  0  0  0  0  0  0  0  0  0  0  0
    7.4042   -0.5751   21.0776 C   0  0  0  0  0  0  0  0  0  0  0  0
    7.1766   -0.0999   22.3403 N   0  0  0  0  0  0  0  0  0  0  0  0
    7.7710   -0.6717   23.3443 C   0  0  0  0  0  0  0  0  0  0  0  0
    7.6038   -0.1213   24.5898 N   0  0  0  0  0  0  0  0  0  0  0  0
    8.1154   -0.5490   25.3365 H   0  0  0  0  0  0  0  0  0  0  0  0
    6.7752    0.9355   24.9100 C   0  0  0  0  0  0  0  0  0  0  0  0
    5.9894    1.4340   24.1425 O   0  0  0  0  0  0  0  0  0  0  0  0
    6.9098    1.3955   26.3672 C   0  0  0  0  0  0  0  0  0  0  0  0
    7.7338    0.8507   26.8390 H   0  0  0  0  0  0  0  0  0  0  0  0
    7.2240    2.8951   26.4263 C   0  0  0  0  0  0  0  0  0  0  0  0
    6.4495    3.4530   25.8896 H   0  0  0  0  0  0  0  0  0  0  0  0
    7.2410    3.2391   27.4659 H   0  0  0  0  0  0  0  0  0  0  0  0
    8.1961    3.1273   25.9739 H   0  0  0  0  0  0  0  0  0  0  0  0
    5.6006    1.0566   27.0924 C   0  0  0  0  0  0  0  0  0  0  0  0
    5.4170   -0.0241   27.1060 H   0  0  0  0  0  0  0  0  0  0  0  0
    4.7670    1.5407   26.5731 H   0  0  0  0  0  0  0  0  0  0  0  0
    5.6163    1.4184   28.1247 H   0  0  0  0  0  0  0  0  0  0  0  0
    8.6490   -1.9118   23.2211 C   0  0  0  0  0  0  0  0  0  0  0  0
    9.2050   -2.5474   24.1039 O   0  0  0  0  0  0  0  0  0  0  0  0
    8.8045   -2.3040   21.9054 N   0  0  0  0  0  0  0  0  0  0  0  0
    9.3899   -3.1300   21.8302 H   0  0  0  0  0  0  0  0  0  0  0  0
    8.2500   -1.6220   20.8313 C   0  0  0  0  0  0  0  0  0  0  0  0
    8.5537   -1.9089   19.8381 H   0  0  0  0  0  0  0  0  0  0  0  0
    5.4283    0.7770   20.2129 C   0  0  0  0  0  0  0  0  0  0  0  0
    5.0167    0.8420   21.2267 H   0  0  0  0  0  0  0  0  0  0  0  0
    4.7851    1.3522   19.1147 C   0  0  0  0  0  0  0  0  0  0  0  0
    3.8263    1.8521   19.2152 H   0  0  0  0  0  0  0  0  0  0  0  0
  1  2  1  0
  2  3  2  0
  3  4  1  0
  4  5  1  0
  4  6  2  0
  6  7  1  0
  7  8  1  0
  8  9  2  0
  9 10  1  0
 10 11  1  0
 10 12  1  0
 12 13  2  0
 12 14  1  0
 14 15  1  0
 14 16  1  0
 16 17  1  0
 16 18  1  0
 16 19  1  0
 14 20  1  0
 20 21  1  0
 20 22  1  0
 20 23  1  0
  9 24  1  0
 24 25  2  0
 24 26  1  0
 26 27  1  0
 26 28  1  0
 28 29  1  0
  6 30  1  0
 30 31  1  0
 30 32  2  0
 32 33  1  0
 32  2  1  0
 28  7  2  0
M  END
>  <cnnaffinity>  (1) 
-4.91069

>  <filename>  (1) 
CC(C)C(=O)Nc1nc(-c2cccnc2)c[nH]c1=O

$$$$
