
     RDKit          3D

 42 44  0  0  0  0  0  0  0  0999 V2000
   12.4221   -1.7796   21.8367 C   0  0  0  0  0  0  0  0  0  0  0  0
   11.0251   -1.1484   21.9028 C   0  0  0  0  0  0  0  0  0  0  0  0
    9.8932   -2.2155   21.8094 C   0  0  0  0  0  0  0  0  0  0  0  0
    8.5208   -1.6204   21.6975 C   0  0  0  0  0  0  0  0  0  0  0  0
    8.1055   -1.1240   20.5543 N   0  0  0  0  0  0  0  0  0  0  0  0
    6.9010   -0.5718   20.8455 C   0  0  0  0  0  0  0  0  0  0  0  0
    6.2002    0.1721   19.7922 C   0  0  0  0  0  0  0  0  0  0  0  0
    5.0059    0.9038   19.9252 C   0  0  0  0  0  0  0  0  0  0  0  0
    4.5269    1.5697   18.7939 C   0  0  0  0  0  0  0  0  0  0  0  0
    5.2408    1.4890   17.5934 C   0  0  0  0  0  0  0  0  0  0  0  0
    6.3812    0.7980   17.4607 N   0  0  0  0  0  0  0  0  0  0  0  0
    6.8428    0.1754   18.5434 C   0  0  0  0  0  0  0  0  0  0  0  0
    7.7889   -0.3485   18.4379 H   0  0  0  0  0  0  0  0  0  0  0  0
    4.8954    1.9985   16.6970 H   0  0  0  0  0  0  0  0  0  0  0  0
    3.6273    2.1748   18.8256 H   0  0  0  0  0  0  0  0  0  0  0  0
    4.4806    0.9769   20.8786 H   0  0  0  0  0  0  0  0  0  0  0  0
    6.5205   -0.7493   22.0944 N   0  0  0  0  0  0  0  0  0  0  0  0
    7.5656   -1.4289   22.6447 N   0  0  0  0  0  0  0  0  0  0  0  0
    7.4766   -1.8487   24.0416 C   0  0  0  0  0  0  0  0  0  0  0  0
    6.7141   -3.1408   24.2789 C   0  0  0  0  0  0  0  0  0  0  0  0
    7.4491   -4.2390   23.8583 F   0  0  0  0  0  0  0  0  0  0  0  0
    5.7595   -3.1247   23.7457 H   0  0  0  0  0  0  0  0  0  0  0  0
    6.5340   -3.2470   25.3554 H   0  0  0  0  0  0  0  0  0  0  0  0
    8.4785   -1.9650   24.4524 H   0  0  0  0  0  0  0  0  0  0  0  0
    6.9596   -1.0476   24.5768 H   0  0  0  0  0  0  0  0  0  0  0  0
   10.0372   -2.7635   20.8756 H   0  0  0  0  0  0  0  0  0  0  0  0
    9.9440   -2.9259   22.6348 H   0  0  0  0  0  0  0  0  0  0  0  0
   10.8644   -0.2740   23.1345 C   0  0  0  0  0  0  0  0  0  0  0  0
   10.9730    1.1205   23.0254 C   0  0  0  0  0  0  0  0  0  0  0  0
   10.7546    1.9666   24.1133 C   0  0  0  0  0  0  0  0  0  0  0  0
   10.4181    1.4257   25.3551 C   0  0  0  0  0  0  0  0  0  0  0  0
   10.3694    0.0399   25.5226 C   0  0  0  0  0  0  0  0  0  0  0  0
   10.6045   -0.7726   24.4113 C   0  0  0  0  0  0  0  0  0  0  0  0
   10.5662   -2.1147   24.6191 F   0  0  0  0  0  0  0  0  0  0  0  0
   10.1240   -0.4261   26.4715 H   0  0  0  0  0  0  0  0  0  0  0  0
   10.1913    2.0711   26.1971 H   0  0  0  0  0  0  0  0  0  0  0  0
   10.8272    3.0426   23.9818 H   0  0  0  0  0  0  0  0  0  0  0  0
   11.2163    1.5581   22.0591 H   0  0  0  0  0  0  0  0  0  0  0  0
   10.9110   -0.4821   21.0304 H   0  0  0  0  0  0  0  0  0  0  0  0
   13.1996   -1.0355   22.0446 H   0  0  0  0  0  0  0  0  0  0  0  0
   12.5082   -2.5941   22.5612 H   0  0  0  0  0  0  0  0  0  0  0  0
   12.6088   -2.1869   20.8385 H   0  0  0  0  0  0  0  0  0  0  0  0
  1  2  1  0
  2  3  1  0
  3  4  1  0
  4  5  2  0
  5  6  1  0
  6  7  1  0
  7  8  2  0
  8  9  1  0
  9 10  2  0
 10 11  1  0
 11 12  2  0
 12 13  1  0
 10 14  1  0
  9 15  1  0
  8 16  1  0
  6 17  2  0
 17 18  1  0
 18 19  1  0
 19 20  1  0
 20 21  1  0
 20 22  1  0
 20 23  1  0
 19 24  1  0
 19 25  1  0
  3 26  1  0
  3 27  1  0
  2 28  1  0
 28 29  2  0
 29 30  1  0
 30 31  2  0
 31 32  1  0
 32 33  2  0
 33 34  1  0
 32 35  1  0
 31 36  1  0
 30 37  1  0
 29 38  1  0
  2 39  1  0
  1 40  1  0
  1 41  1  0
  1 42  1  0
 18  4  1  0
 33 28  1  0
 12  7  1  0
M  END
>  <cnnaffinity>  (1) 
-6.09402

>  <filename>  (1) 
CC(Cc1nc(-c2cccnc2)nn1CCF)c1ccccc1F

$$$$
