
     RDKit          3D

 35 36  0  0  0  0  0  0  0  0999 V2000
    6.9101   -0.5215   22.3699 C   0  0  0  0  0  0  0  0  0  0  0  0
    7.4499   -0.7640   20.9802 C   0  0  0  0  0  0  0  0  0  0  0  0
    8.9073   -0.3535   20.9662 C   0  0  0  0  0  0  0  0  0  0  0  0
    9.3963   -0.6812   21.8903 H   0  0  0  0  0  0  0  0  0  0  0  0
    8.9666    0.7364   20.8992 H   0  0  0  0  0  0  0  0  0  0  0  0
    9.4236   -0.7937   20.1078 H   0  0  0  0  0  0  0  0  0  0  0  0
    7.3129   -2.1676   20.6258 N   0  0  0  0  0  4  0  0  0  0  0  0
    7.8818   -3.1808   21.5895 C   0  0  0  0  0  0  0  0  0  0  0  0
    6.8700   -3.7915   22.5482 C   0  0  0  0  0  0  0  0  0  0  0  0
    6.9095   -3.4373   23.8529 N   0  0  0  0  0  0  0  0  0  0  0  0
    5.9960   -3.9485   24.6944 C   0  0  0  0  0  0  0  0  0  0  0  0
    5.0237   -4.8567   24.2713 C   0  0  0  0  0  0  0  0  0  0  0  0
    4.9811   -5.2582   22.9368 C   0  0  0  0  0  0  0  0  0  0  0  0
    3.6585   -6.5141   22.3444 Br  0  0  0  0  0  0  0  0  0  0  0  0
    5.9239   -4.7146   22.0593 C   0  0  0  0  0  0  0  0  0  0  0  0
    5.9175   -5.0741   20.7531 F   0  0  0  0  0  0  0  0  0  0  0  0
    4.3118   -5.2507   24.9844 H   0  0  0  0  0  0  0  0  0  0  0  0
    6.0102   -3.6439   25.7374 H   0  0  0  0  0  0  0  0  0  0  0  0
    8.3427   -4.0205   21.0495 H   0  0  0  0  0  0  0  0  0  0  0  0
    8.6693   -2.7207   22.1975 H   0  0  0  0  0  0  0  0  0  0  0  0
    6.3122   -2.3314   20.5159 H   0  0  0  0  0  0  0  0  0  0  0  0
    7.7551   -2.2682   19.7140 H   0  0  0  0  0  0  0  0  0  0  0  0
    6.6644   -0.0437   19.9152 C   0  0  0  0  0  0  0  0  0  0  0  0
    5.4510    0.6184   20.1720 C   0  0  0  0  0  0  0  0  0  0  0  0
    4.8380    1.2867   19.1146 C   0  0  0  0  0  0  0  0  0  0  0  0
    5.4131    1.2861   17.8443 C   0  0  0  0  0  0  0  0  0  0  0  0
    6.5739    0.6540   17.6025 N   0  0  0  0  0  0  0  0  0  0  0  0
    7.1799    0.0117   18.6127 C   0  0  0  0  0  0  0  0  0  0  0  0
    8.1383   -0.4562   18.4043 H   0  0  0  0  0  0  0  0  0  0  0  0
    4.9025    1.7988   17.0313 H   0  0  0  0  0  0  0  0  0  0  0  0
    3.9093    1.8222   19.2609 H   0  0  0  0  0  0  0  0  0  0  0  0
    5.0075    0.6336   21.1678 H   0  0  0  0  0  0  0  0  0  0  0  0
    7.5502   -0.9810   23.1341 H   0  0  0  0  0  0  0  0  0  0  0  0
    6.8186    0.5546   22.5567 H   0  0  0  0  0  0  0  0  0  0  0  0
    5.9320   -0.9781   22.4216 H   0  0  0  0  0  0  0  0  0  0  0  0
  1  2  1  0
  2  3  1  0
  3  4  1  0
  3  5  1  0
  3  6  1  0
  2  7  1  0
  7  8  1  0
  8  9  1  0
  9 10  2  0
 10 11  1  0
 11 12  2  0
 12 13  1  0
 13 14  1  0
 13 15  2  0
 15 16  1  0
 12 17  1  0
 11 18  1  0
  8 19  1  0
  8 20  1  0
  7 21  1  0
  7 22  1  0
  2 23  1  0
 23 24  2  0
 24 25  1  0
 25 26  2  0
 26 27  1  0
 27 28  2  0
 28 29  1  0
 26 30  1  0
 25 31  1  0
 24 32  1  0
  1 33  1  0
  1 34  1  0
  1 35  1  0
 15  9  1  0
 28 23  1  0
M  CHG  1   7   1
M  END
>  <cnnaffinity>  (1) 
-5.29607

>  <filename>  (1) 
CC(C)([NH2+]Cc1nccc(Br)c1F)c1cccnc1

$$$$
