
     RDKit          3D

 34 35  0  0  0  0  0  0  0  0999 V2000
    5.0355    1.6541   16.7404 H   0  0  0  0  0  0  0  0  0  0  0  0
    5.4569    1.2455   17.6551 C   0  0  0  0  0  0  0  0  0  0  0  0
    6.6193    0.5809   17.5313 N   0  0  0  0  0  0  0  0  0  0  0  0
    7.1460    0.0566   18.6440 C   0  0  0  0  0  0  0  0  0  0  0  0
    8.0820   -0.4797   18.5325 H   0  0  0  0  0  0  0  0  0  0  0  0
    6.5517    0.1750   19.9264 C   0  0  0  0  0  0  0  0  0  0  0  0
    7.1030   -0.4175   21.0800 N   0  0  0  0  0  0  0  0  0  0  0  0
    7.0795    0.0563   22.4140 C   0  0  0  0  0  0  0  0  0  0  0  0
    6.5648    1.0884   22.8142 O   0  0  0  0  0  0  0  0  0  0  0  0
    7.7946   -0.9819   23.1353 C   0  0  0  0  0  0  0  0  0  0  0  0
    7.8854   -0.9638   24.2029 H   0  0  0  0  0  0  0  0  0  0  0  0
    8.2041   -1.9368   22.2778 C   0  0  0  0  0  0  0  0  0  0  0  0
    8.9565   -3.2029   22.5031 C   0  0  0  0  0  0  0  0  0  0  0  0
    9.2381   -3.2680   23.5596 H   0  0  0  0  0  0  0  0  0  0  0  0
    9.9043   -3.1094   21.9600 H   0  0  0  0  0  0  0  0  0  0  0  0
    8.1968   -4.4742   22.0518 C   0  0  0  0  0  0  0  0  0  0  0  0
    8.8914   -5.3218   22.0715 H   0  0  0  0  0  0  0  0  0  0  0  0
    7.9032   -4.3411   20.9993 H   0  0  0  0  0  0  0  0  0  0  0  0
    6.9735   -4.9145   22.8852 C   0  0  0  0  0  0  0  0  0  0  0  0
    6.7259   -5.9180   22.5086 H   0  0  0  0  0  0  0  0  0  0  0  0
    5.7062   -4.0676   22.6824 C   0  0  0  0  0  0  0  0  0  0  0  0
    5.8256   -3.0244   23.0022 H   0  0  0  0  0  0  0  0  0  0  0  0
    5.3989   -4.0628   21.6272 H   0  0  0  0  0  0  0  0  0  0  0  0
    4.8817   -4.4977   23.2646 H   0  0  0  0  0  0  0  0  0  0  0  0
    7.3434   -5.0833   24.3655 C   0  0  0  0  0  0  0  0  0  0  0  0
    7.5751   -4.1192   24.8349 H   0  0  0  0  0  0  0  0  0  0  0  0
    6.5210   -5.5321   24.9341 H   0  0  0  0  0  0  0  0  0  0  0  0
    8.2249   -5.7306   24.4814 H   0  0  0  0  0  0  0  0  0  0  0  0
    7.8364   -1.6162   20.9639 N   0  0  0  0  0  0  0  0  0  0  0  0
    7.2320   -2.3422   20.5579 H   0  0  0  0  0  0  0  0  0  0  0  0
    5.3614    0.9010   20.0442 C   0  0  0  0  0  0  0  0  0  0  0  0
    4.9322    1.0440   21.0366 H   0  0  0  0  0  0  0  0  0  0  0  0
    4.7921    1.4200   18.8785 C   0  0  0  0  0  0  0  0  0  0  0  0
    3.8580    1.9720   18.9232 H   0  0  0  0  0  0  0  0  0  0  0  0
  1  2  1  0
  2  3  2  0
  3  4  1  0
  4  5  1  0
  4  6  2  0
  6  7  1  0
  7  8  1  0
  8  9  2  0
  8 10  1  0
 10 11  1  0
 10 12  2  0
 12 13  1  0
 13 14  1  0
 13 15  1  0
 13 16  1  0
 16 17  1  0
 16 18  1  0
 16 19  1  0
 19 20  1  0
 19 21  1  0
 21 22  1  0
 21 23  1  0
 21 24  1  0
 19 25  1  0
 25 26  1  0
 25 27  1  0
 25 28  1  0
 12 29  1  0
 29 30  1  0
  6 31  1  0
 31 32  1  0
 31 33  2  0
 33 34  1  0
 33  2  1  0
 29  7  1  0
M  END
>  <cnnaffinity>  (1) 
-4.59252

>  <filename>  (1) 
CC(C)CCc1cc(=O)n(-c2cccnc2)[nH]1

$$$$
