
     RDKit          3D

 39 41  0  0  0  0  0  0  0  0999 V2000
    5.0217    1.6717   16.9600 H   0  0  0  0  0  0  0  0  0  0  0  0
    5.4410    1.1590   17.8241 C   0  0  0  0  0  0  0  0  0  0  0  0
    6.5383    0.4256   17.6057 N   0  0  0  0  0  0  0  0  0  0  0  0
    7.0913   -0.1843   18.6684 C   0  0  0  0  0  0  0  0  0  0  0  0
    7.9886   -0.7565   18.4372 H   0  0  0  0  0  0  0  0  0  0  0  0
    6.6233   -0.0911   19.9937 C   0  0  0  0  0  0  0  0  0  0  0  0
    7.4125   -0.6802   21.1791 C   0  0  0  0  0  0  0  0  0  0  0  0
    6.8285   -1.9844   21.5028 N   0  0  0  0  0  0  0  0  0  0  0  0
    5.8229   -1.8931   21.5790 H   0  0  0  0  0  0  0  0  0  0  0  0
    7.3104   -2.6882   22.6664 C   0  0  0  0  0  0  0  0  0  0  0  0
    7.3868   -2.0698   23.5744 H   0  0  0  0  0  0  0  0  0  0  0  0
    8.2793   -3.1577   22.4665 H   0  0  0  0  0  0  0  0  0  0  0  0
    6.3557   -3.7207   22.9192 N   0  0  0  0  0  0  0  0  0  0  0  0
    6.2129   -4.7606   22.0203 C   0  0  0  0  0  0  0  0  0  0  0  0
    7.0408   -5.0752   21.1959 O   0  0  0  0  0  0  0  0  0  0  0  0
    4.8740   -5.3570   22.3054 C   0  0  0  0  0  0  0  0  0  0  0  0
    4.2792   -6.5141   21.8080 C   0  0  0  0  0  0  0  0  0  0  0  0
    4.7883   -7.1229   21.0589 H   0  0  0  0  0  0  0  0  0  0  0  0
    2.9959   -6.8365   22.2648 C   0  0  0  0  0  0  0  0  0  0  0  0
    2.5312   -7.7661   21.9463 H   0  0  0  0  0  0  0  0  0  0  0  0
    2.3154   -5.9836   23.1559 C   0  0  0  0  0  0  0  0  0  0  0  0
    1.2980   -6.2241   23.4505 H   0  0  0  0  0  0  0  0  0  0  0  0
    2.9184   -4.8226   23.6511 C   0  0  0  0  0  0  0  0  0  0  0  0
    2.3651   -4.1511   24.3049 H   0  0  0  0  0  0  0  0  0  0  0  0
    4.2336   -4.5510   23.2584 C   0  0  0  0  0  0  0  0  0  0  0  0
    5.2219   -3.5060   23.6881 C   0  0  0  0  0  0  0  0  0  0  0  0
    5.1516   -2.6678   24.5544 O   0  0  0  0  0  0  0  0  0  0  0  0
    8.9008   -0.8596   20.8253 C   0  0  0  0  0  0  0  0  0  0  0  0
    9.3152    0.0945   20.4878 H   0  0  0  0  0  0  0  0  0  0  0  0
    9.4848   -1.1969   21.6883 H   0  0  0  0  0  0  0  0  0  0  0  0
    9.0355   -1.6015   20.0338 H   0  0  0  0  0  0  0  0  0  0  0  0
    7.3263    0.2675   22.3935 C   0  0  0  0  0  0  0  0  0  0  0  0
    6.3042    0.3533   22.7727 H   0  0  0  0  0  0  0  0  0  0  0  0
    7.9586   -0.0694   23.2185 H   0  0  0  0  0  0  0  0  0  0  0  0
    7.6663    1.2621   22.1055 H   0  0  0  0  0  0  0  0  0  0  0  0
    5.4203    0.6183   20.1706 C   0  0  0  0  0  0  0  0  0  0  0  0
    4.9513    0.7039   21.1538 H   0  0  0  0  0  0  0  0  0  0  0  0
    4.8344    1.2598   19.0788 C   0  0  0  0  0  0  0  0  0  0  0  0
    3.9421    1.8597   19.2015 H   0  0  0  0  0  0  0  0  0  0  0  0
  1  2  1  0
  2  3  2  0
  3  4  1  0
  4  5  1  0
  4  6  2  0
  6  7  1  0
  7  8  1  0
  8  9  1  0
  8 10  1  0
 10 11  1  0
 10 12  1  0
 10 13  1  0
 13 14  1  0
 14 15  2  0
 14 16  1  0
 16 17  2  0
 17 18  1  0
 17 19  1  0
 19 20  1  0
 19 21  2  0
 21 22  1  0
 21 23  1  0
 23 24  1  0
 23 25  2  0
 25 26  1  0
 26 27  2  0
  7 28  1  0
 28 29  1  0
 28 30  1  0
 28 31  1  0
  7 32  1  0
 32 33  1  0
 32 34  1  0
 32 35  1  0
  6 36  1  0
 36 37  1  0
 36 38  2  0
 38 39  1  0
 38  2  1  0
 26 13  1  0
 25 16  1  0
M  END
>  <cnnaffinity>  (1) 
-4.70858

>  <filename>  (1) 
CC(C)(NCN1C(=O)c2ccccc2C1=O)c1cccnc1

$$$$
