
     RDKit          3D

 42 44  0  0  0  0  0  0  0  0999 V2000
   12.3869   -1.6667   22.0139 C   0  0  0  0  0  0  0  0  0  0  0  0
   10.9719   -1.1131   22.2211 C   0  0  0  0  0  0  0  0  0  0  0  0
    9.9252   -2.2484   22.1992 C   0  0  0  0  0  0  0  0  0  0  0  0
    8.5559   -1.7121   21.9645 C   0  0  0  0  0  0  0  0  0  0  0  0
    8.1965   -1.2793   20.7715 N   0  0  0  0  0  0  0  0  0  0  0  0
    7.0226   -0.6417   21.0083 C   0  0  0  0  0  0  0  0  0  0  0  0
    6.3592    0.0779   19.9233 C   0  0  0  0  0  0  0  0  0  0  0  0
    5.1625    0.8040   20.0498 C   0  0  0  0  0  0  0  0  0  0  0  0
    4.6742    1.4456   18.9118 C   0  0  0  0  0  0  0  0  0  0  0  0
    5.3925    1.3564   17.7138 C   0  0  0  0  0  0  0  0  0  0  0  0
    6.5415    0.6776   17.5877 N   0  0  0  0  0  0  0  0  0  0  0  0
    7.0063    0.0630   18.6773 C   0  0  0  0  0  0  0  0  0  0  0  0
    7.9475   -0.4688   18.5634 H   0  0  0  0  0  0  0  0  0  0  0  0
    5.0281    1.8443   16.8134 H   0  0  0  0  0  0  0  0  0  0  0  0
    3.7592    2.0261   18.9363 H   0  0  0  0  0  0  0  0  0  0  0  0
    4.6398    0.8790   21.0053 H   0  0  0  0  0  0  0  0  0  0  0  0
    6.6175   -0.6955   22.2611 N   0  0  0  0  0  0  0  0  0  0  0  0
    7.6124   -1.3965   22.8788 N   0  0  0  0  0  0  0  0  0  0  0  0
    7.5112   -1.8275   24.2907 C   0  0  0  0  0  0  0  0  0  0  0  0
    6.7373   -3.1479   24.4219 C   0  0  0  0  0  0  0  0  0  0  0  0
    5.7102   -3.0429   24.0516 H   0  0  0  0  0  0  0  0  0  0  0  0
    7.2272   -3.9557   23.8686 H   0  0  0  0  0  0  0  0  0  0  0  0
    6.6920   -3.4449   25.4758 H   0  0  0  0  0  0  0  0  0  0  0  0
    6.8975   -0.7222   25.1506 C   0  0  0  0  0  0  0  0  0  0  0  0
    6.9315   -0.9985   26.2105 H   0  0  0  0  0  0  0  0  0  0  0  0
    5.8540   -0.5467   24.8677 H   0  0  0  0  0  0  0  0  0  0  0  0
    7.4319    0.2213   25.0241 H   0  0  0  0  0  0  0  0  0  0  0  0
    8.5406   -1.9962   24.6237 H   0  0  0  0  0  0  0  0  0  0  0  0
   10.0105   -2.8357   23.1174 H   0  0  0  0  0  0  0  0  0  0  0  0
   10.1489   -2.8849   21.3456 H   0  0  0  0  0  0  0  0  0  0  0  0
   10.8086   -0.2971   23.4304 N   0  0  0  0  0  0  0  0  0  0  0  0
   10.6769    1.0527   23.4957 C   0  0  0  0  0  0  0  0  0  0  0  0
   10.5495    1.3735   24.8329 C   0  0  0  0  0  0  0  0  0  0  0  0
   10.6013    0.1355   25.4980 C   0  0  0  0  0  0  0  0  0  0  0  0
   10.7516   -0.8700   24.6410 N   0  0  0  0  0  0  0  0  0  0  0  0
   10.5072   -0.0822   26.5547 H   0  0  0  0  0  0  0  0  0  0  0  0
   10.4042    2.3454   25.2791 H   0  0  0  0  0  0  0  0  0  0  0  0
   10.6661    1.6409   22.5853 H   0  0  0  0  0  0  0  0  0  0  0  0
   10.7577   -0.4175   21.4014 H   0  0  0  0  0  0  0  0  0  0  0  0
   12.5289   -1.8522   20.9406 H   0  0  0  0  0  0  0  0  0  0  0  0
   13.1457   -0.9558   22.3577 H   0  0  0  0  0  0  0  0  0  0  0  0
   12.5271   -2.6322   22.5164 H   0  0  0  0  0  0  0  0  0  0  0  0
  1  2  1  0
  2  3  1  0
  3  4  1  0
  4  5  2  0
  5  6  1  0
  6  7  1  0
  7  8  2  0
  8  9  1  0
  9 10  2  0
 10 11  1  0
 11 12  2  0
 12 13  1  0
 10 14  1  0
  9 15  1  0
  8 16  1  0
  6 17  2  0
 17 18  1  0
 18 19  1  0
 19 20  1  0
 20 21  1  0
 20 22  1  0
 20 23  1  0
 19 24  1  0
 24 25  1  0
 24 26  1  0
 24 27  1  0
 19 28  1  0
  3 29  1  0
  3 30  1  0
  2 31  1  0
 31 32  1  0
 32 33  2  0
 33 34  1  0
 34 35  2  0
 34 36  1  0
 33 37  1  0
 32 38  1  0
  2 39  1  0
  1 40  1  0
  1 41  1  0
  1 42  1  0
 18  4  1  0
 35 31  1  0
 12  7  1  0
M  END
>  <cnnaffinity>  (1) 
-5.70459

>  <filename>  (1) 
CC(Cc1nc(-c2cccnc2)nn1C(C)C)n1cccn1

$$$$
