
     RDKit          3D

 53 57  0  0  0  0  0  0  0  0999 V2000
    8.5001    2.4163   25.4143 C   0  0  0  0  0  0  0  0  0  0  0  0
    8.9492    2.9480   24.0427 C   0  0  0  0  0  0  0  0  0  0  0  0
    8.8934    1.8552   23.0041 C   0  0  0  0  0  0  0  0  0  0  0  0
    7.8548    1.0929   22.7121 N   0  0  0  0  0  0  0  0  0  0  0  0
    8.3183    0.2843   21.7231 C   0  0  0  0  0  0  0  0  0  0  0  0
    7.4365   -0.6792   20.9793 C   0  0  0  0  0  0  0  0  0  0  0  0
    6.6589   -0.0314   19.8394 C   0  0  0  0  0  0  0  0  0  0  0  0
    5.4531    0.6314   20.0994 C   0  0  0  0  0  0  0  0  0  0  0  0
    4.8129    1.3059   19.0581 C   0  0  0  0  0  0  0  0  0  0  0  0
    5.4017    1.3002   17.7901 C   0  0  0  0  0  0  0  0  0  0  0  0
    6.5475    0.6584   17.5130 N   0  0  0  0  0  0  0  0  0  0  0  0
    7.1479    0.0141   18.5218 C   0  0  0  0  0  0  0  0  0  0  0  0
    8.0810   -0.4943   18.2751 H   0  0  0  0  0  0  0  0  0  0  0  0
    4.9342    1.8271   16.9591 H   0  0  0  0  0  0  0  0  0  0  0  0
    3.8839    1.8405   19.2176 H   0  0  0  0  0  0  0  0  0  0  0  0
    5.0381    0.6260   21.1102 H   0  0  0  0  0  0  0  0  0  0  0  0
    6.7352   -1.0939   21.7088 H   0  0  0  0  0  0  0  0  0  0  0  0
    8.0571   -1.5006   20.6075 H   0  0  0  0  0  0  0  0  0  0  0  0
    9.5929    0.4553   21.4208 N   0  0  0  0  0  0  0  0  0  0  0  0
    9.9433    1.5161   22.2024 N   0  0  0  0  0  0  0  0  0  0  0  0
   11.2524    2.0642   22.2519 C   0  0  0  0  0  0  0  0  0  0  0  0
   11.5112    3.4393   22.2113 C   0  0  0  0  0  0  0  0  0  0  0  0
   12.8215    3.9458   22.3717 C   0  0  0  0  0  0  0  0  0  0  0  0
   13.8874    3.0937   22.6439 C   0  0  0  0  0  0  0  0  0  0  0  0
   13.6474    1.6988   22.6733 C   0  0  0  0  0  0  0  0  0  0  0  0
   12.3524    1.2085   22.4338 C   0  0  0  0  0  0  0  0  0  0  0  0
   12.4850   -0.1596   22.4024 N   0  0  0  0  0  0  0  0  0  0  0  0
   13.8091   -0.4273   22.5922 C   0  0  0  0  0  0  0  0  0  0  0  0
   14.5382    0.6373   22.7630 N   0  0  0  0  0  0  0  0  0  0  0  0
   14.1927   -1.4420   22.6023 H   0  0  0  0  0  0  0  0  0  0  0  0
   11.7555   -0.7676   22.0556 H   0  0  0  0  0  0  0  0  0  0  0  0
   14.9007    3.4684   22.7000 H   0  0  0  0  0  0  0  0  0  0  0  0
   13.0007    5.0169   22.2893 H   0  0  0  0  0  0  0  0  0  0  0  0
   10.6940    4.1462   22.1215 H   0  0  0  0  0  0  0  0  0  0  0  0
    8.2448    4.2364   23.4939 C   0  0  0  0  0  0  0  0  0  0  0  0
    6.7042    4.1867   23.5634 C   0  0  0  0  0  0  0  0  0  0  0  0
    6.1438    4.6626   24.9096 C   0  0  0  0  0  0  0  0  0  0  0  0
    6.6602    5.9333   25.2769 O   0  0  0  0  0  0  0  0  0  0  0  0
    8.0723    5.9478   25.4169 C   0  0  0  0  0  0  0  0  0  0  0  0
    8.7718    5.5521   24.1126 C   0  0  0  0  0  0  0  0  0  0  0  0
    9.8585    5.4997   24.2647 H   0  0  0  0  0  0  0  0  0  0  0  0
    8.5955    6.3633   23.3942 H   0  0  0  0  0  0  0  0  0  0  0  0
    8.3867    5.2997   26.2521 H   0  0  0  0  0  0  0  0  0  0  0  0
    8.3292    6.9787   25.6866 H   0  0  0  0  0  0  0  0  0  0  0  0
    5.0587    4.7900   24.8397 H   0  0  0  0  0  0  0  0  0  0  0  0
    6.3436    3.9272   25.7073 H   0  0  0  0  0  0  0  0  0  0  0  0
    6.2960    4.8465   22.7863 H   0  0  0  0  0  0  0  0  0  0  0  0
    6.3574    3.1699   23.3405 H   0  0  0  0  0  0  0  0  0  0  0  0
    8.5083    4.2787   22.4230 H   0  0  0  0  0  0  0  0  0  0  0  0
   10.0019    3.2130   24.1711 H   0  0  0  0  0  0  0  0  0  0  0  0
    9.1346    1.5654   25.6863 H   0  0  0  0  0  0  0  0  0  0  0  0
    7.4640    2.0563   25.4034 H   0  0  0  0  0  0  0  0  0  0  0  0
    8.6155    3.1727   26.1997 H   0  0  0  0  0  0  0  0  0  0  0  0
  1  2  1  0
  2  3  1  0
  3  4  2  0
  4  5  1  0
  5  6  1  0
  6  7  1  0
  7  8  2  0
  8  9  1  0
  9 10  2  0
 10 11  1  0
 11 12  2  0
 12 13  1  0
 10 14  1  0
  9 15  1  0
  8 16  1  0
  6 17  1  0
  6 18  1  0
  5 19  2  0
 19 20  1  0
 20 21  1  0
 21 22  2  0
 22 23  1  0
 23 24  2  0
 24 25  1  0
 25 26  2  0
 26 27  1  0
 27 28  1  0
 28 29  2  0
 28 30  1  0
 27 31  1  0
 24 32  1  0
 23 33  1  0
 22 34  1  0
  2 35  1  0
 35 36  1  0
 36 37  1  0
 37 38  1  0
 38 39  1  0
 39 40  1  0
 40 41  1  0
 40 42  1  0
 39 43  1  0
 39 44  1  0
 37 45  1  0
 37 46  1  0
 36 47  1  0
 36 48  1  0
 35 49  1  0
  2 50  1  0
  1 51  1  0
  1 52  1  0
  1 53  1  0
 20  3  1  0
 26 21  1  0
 40 35  1  0
 12  7  1  0
 29 25  1  0
M  END
>  <cnnaffinity>  (1) 
-6.73132

>  <filename>  (1) 
CC(c1nc(Cc2cccnc2)nn1-c1cccc2nc[nH]c12)C1CCOCC1

$$$$
