
     RDKit          3D

 30 30  0  0  0  0  0  0  0  0999 V2000
    4.9970    1.6717   17.0731 H   0  0  0  0  0  0  0  0  0  0  0  0
    5.4987    1.2128   17.9231 C   0  0  0  0  0  0  0  0  0  0  0  0
    6.6698    0.6094   17.6712 N   0  0  0  0  0  0  0  0  0  0  0  0
    7.3124    0.0659   18.7035 C   0  0  0  0  0  0  0  0  0  0  0  0
    8.2679   -0.3935   18.4761 H   0  0  0  0  0  0  0  0  0  0  0  0
    6.8237    0.0433   20.0204 C   0  0  0  0  0  0  0  0  0  0  0  0
    7.7278   -0.6474   21.0248 C   0  0  0  0  0  0  0  0  0  0  0  0
    8.9288   -0.5769   20.8635 O   0  0  0  0  0  0  0  0  0  0  0  0
    7.1088   -1.5425   22.2347 C   0  0  0  0  0  0  0  0  0  0  0  0
    6.8162   -0.7538   23.4831 N   0  0  0  0  0  0  0  0  0  0  0  0
    6.1399    0.0063   23.4204 H   0  0  0  0  0  0  0  0  0  0  0  0
    6.0903   -1.3419   24.8715 S   0  0  0  0  0  0  0  0  0  0  0  0
    5.5155   -2.6669   24.7437 O   0  0  0  0  0  0  0  0  0  0  0  0
    5.2938   -0.1699   25.1913 O   0  0  0  0  0  0  0  0  0  0  0  0
    7.3997   -1.4860   26.0207 C   0  0  0  0  0  0  0  0  0  0  0  0
    7.8294   -0.5047   26.2106 H   0  0  0  0  0  0  0  0  0  0  0  0
    6.9389   -1.9065   26.9121 H   0  0  0  0  0  0  0  0  0  0  0  0
    8.1344   -2.1716   25.6095 H   0  0  0  0  0  0  0  0  0  0  0  0
    5.8588   -2.2692   21.7324 C   0  0  0  0  0  0  0  0  0  0  0  0
    6.1223   -2.9053   20.8827 H   0  0  0  0  0  0  0  0  0  0  0  0
    5.4294   -2.8820   22.5267 H   0  0  0  0  0  0  0  0  0  0  0  0
    5.0972   -1.5750   21.3795 H   0  0  0  0  0  0  0  0  0  0  0  0
    8.1518   -2.5822   22.6470 C   0  0  0  0  0  0  0  0  0  0  0  0
    8.4884   -3.1520   21.7776 H   0  0  0  0  0  0  0  0  0  0  0  0
    7.7307   -3.2865   23.3685 H   0  0  0  0  0  0  0  0  0  0  0  0
    9.0239   -2.1022   23.0913 H   0  0  0  0  0  0  0  0  0  0  0  0
    5.5963    0.6828   20.2684 C   0  0  0  0  0  0  0  0  0  0  0  0
    5.1606    0.7277   21.2698 H   0  0  0  0  0  0  0  0  0  0  0  0
    4.9269    1.2787   19.1955 C   0  0  0  0  0  0  0  0  0  0  0  0
    3.9802    1.7854   19.3392 H   0  0  0  0  0  0  0  0  0  0  0  0
  1  2  1  0
  2  3  2  0
  3  4  1  0
  4  5  1  0
  4  6  2  0
  6  7  1  0
  7  8  2  0
  7  9  1  0
  9 10  1  0
 10 11  1  0
 10 12  1  0
 12 13  2  0
 12 14  2  0
 12 15  1  0
 15 16  1  0
 15 17  1  0
 15 18  1  0
  9 19  1  0
 19 20  1  0
 19 21  1  0
 19 22  1  0
  9 23  1  0
 23 24  1  0
 23 25  1  0
 23 26  1  0
  6 27  1  0
 27 28  1  0
 27 29  2  0
 29 30  1  0
 29  2  1  0
M  END
>  <cnnaffinity>  (1) 
-4.52623

>  <filename>  (1) 
CC(C)(NS(C)(=O)=O)C(=O)c1cccnc1

$$$$
