
     RDKit          3D

 48 52  0  0  0  0  0  0  0  0999 V2000
    7.8910    2.4869   25.2807 C   0  0  0  0  0  0  0  0  0  0  0  0
    8.6731    2.9450   24.0462 C   0  0  0  0  0  0  0  0  0  0  0  0
    8.1917    4.2813   23.4616 C   0  0  0  0  0  0  0  0  0  0  0  0
    7.0613    4.3433   22.6370 C   0  0  0  0  0  0  0  0  0  0  0  0
    6.5976    5.5697   22.1516 C   0  0  0  0  0  0  0  0  0  0  0  0
    7.2614    6.7581   22.4820 C   0  0  0  0  0  0  0  0  0  0  0  0
    8.4078    6.7087   23.2830 C   0  0  0  0  0  0  0  0  0  0  0  0
    8.8740    5.4748   23.7593 C   0  0  0  0  0  0  0  0  0  0  0  0
    9.8057    5.4321   24.3214 H   0  0  0  0  0  0  0  0  0  0  0  0
    8.9493    7.6186   23.5281 H   0  0  0  0  0  0  0  0  0  0  0  0
    6.8886    7.7116   22.1123 H   0  0  0  0  0  0  0  0  0  0  0  0
    5.7216    5.5888   21.5082 H   0  0  0  0  0  0  0  0  0  0  0  0
    6.5757    3.4100   22.3604 H   0  0  0  0  0  0  0  0  0  0  0  0
    8.7451    1.8735   23.0247 N   0  0  0  0  0  0  0  0  0  0  0  0
    7.6650    1.1352   22.6549 N   0  0  0  0  0  0  0  0  0  0  0  0
    8.1604    0.3062   21.7571 C   0  0  0  0  0  0  0  0  0  0  0  0
    7.3261   -0.6781   20.9839 C   0  0  0  0  0  0  0  0  0  0  0  0
    6.5846   -0.0387   19.8202 C   0  0  0  0  0  0  0  0  0  0  0  0
    5.3838    0.6362   20.0546 C   0  0  0  0  0  0  0  0  0  0  0  0
    4.7785    1.3230   19.0012 C   0  0  0  0  0  0  0  0  0  0  0  0
    5.4016    1.3068   17.7498 C   0  0  0  0  0  0  0  0  0  0  0  0
    6.5416    0.6437   17.4953 N   0  0  0  0  0  0  0  0  0  0  0  0
    7.1068   -0.0135   18.5157 C   0  0  0  0  0  0  0  0  0  0  0  0
    8.0290   -0.5543   18.2921 H   0  0  0  0  0  0  0  0  0  0  0  0
    4.9649    1.8377   16.9070 H   0  0  0  0  0  0  0  0  0  0  0  0
    3.8512    1.8665   19.1416 H   0  0  0  0  0  0  0  0  0  0  0  0
    4.9564    0.6150   21.0592 H   0  0  0  0  0  0  0  0  0  0  0  0
    8.0082   -1.4532   20.6250 H   0  0  0  0  0  0  0  0  0  0  0  0
    6.6120   -1.1432   21.6728 H   0  0  0  0  0  0  0  0  0  0  0  0
    9.4865    0.4470   21.5230 N   0  0  0  0  0  0  0  0  0  0  0  0
    9.8210    1.4621   22.3045 C   0  0  0  0  0  0  0  0  0  0  0  0
   11.1489    2.0952   22.4177 C   0  0  0  0  0  0  0  0  0  0  0  0
   12.2832    1.2649   22.6289 C   0  0  0  0  0  0  0  0  0  0  0  0
   13.5470    1.7966   22.8064 C   0  0  0  0  0  0  0  0  0  0  0  0
   13.6672    3.1937   22.6577 C   0  0  0  0  0  0  0  0  0  0  0  0
   14.7155    4.0420   22.6170 N   0  0  0  0  0  0  0  0  0  0  0  0
   14.3194    5.3148   22.4367 N   0  0  0  0  0  0  0  0  0  0  0  0
   13.0369    5.3352   22.3342 N   0  0  0  0  0  0  0  0  0  0  0  0
   12.5754    4.0398   22.4404 C   0  0  0  0  0  0  0  0  0  0  0  0
   11.2946    3.4812   22.3494 C   0  0  0  0  0  0  0  0  0  0  0  0
   10.4544    4.1434   22.2313 H   0  0  0  0  0  0  0  0  0  0  0  0
   15.6919    3.8117   22.7207 H   0  0  0  0  0  0  0  0  0  0  0  0
   14.4011    1.1707   23.0346 H   0  0  0  0  0  0  0  0  0  0  0  0
   12.1427    0.1880   22.6476 H   0  0  0  0  0  0  0  0  0  0  0  0
    9.7051    3.0986   24.3720 H   0  0  0  0  0  0  0  0  0  0  0  0
    8.3274    1.5592   25.6612 H   0  0  0  0  0  0  0  0  0  0  0  0
    7.9599    3.2401   26.0721 H   0  0  0  0  0  0  0  0  0  0  0  0
    6.8334    2.3085   25.0631 H   0  0  0  0  0  0  0  0  0  0  0  0
  1  2  1  0
  2  3  1  0
  3  4  2  0
  4  5  1  0
  5  6  2  0
  6  7  1  0
  7  8  2  0
  8  9  1  0
  7 10  1  0
  6 11  1  0
  5 12  1  0
  4 13  1  0
  2 14  1  0
 14 15  1  0
 15 16  2  0
 16 17  1  0
 17 18  1  0
 18 19  2  0
 19 20  1  0
 20 21  2  0
 21 22  1  0
 22 23  2  0
 23 24  1  0
 21 25  1  0
 20 26  1  0
 19 27  1  0
 17 28  1  0
 17 29  1  0
 16 30  1  0
 30 31  2  0
 31 32  1  0
 32 33  2  0
 33 34  1  0
 34 35  2  0
 35 36  1  0
 36 37  1  0
 37 38  2  0
 38 39  1  0
 39 40  2  0
 40 41  1  0
 36 42  1  0
 34 43  1  0
 33 44  1  0
  2 45  1  0
  1 46  1  0
  1 47  1  0
  1 48  1  0
  8  3  1  0
 31 14  1  0
 40 32  1  0
 23 18  1  0
 39 35  1  0
M  END
>  <cnnaffinity>  (1) 
-6.60675

>  <filename>  (1) 
CC(c1ccccc1)n1nc(Cc2cccnc2)nc1-c1ccc2[nH]nnc2c1

$$$$
