
     RDKit          3D

 47 50  0  0  0  0  0  0  0  0999 V2000
    6.5700    0.6258   25.1879 C   0  0  0  0  0  0  0  0  0  0  0  0
    7.6318   -0.4735   25.0254 C   0  0  0  0  0  0  0  0  0  0  0  0
    8.1288   -0.9812   26.3853 C   0  0  0  0  0  0  0  0  0  0  0  0
    8.7370    0.1117   27.0487 O   0  0  0  0  0  0  0  0  0  0  0  0
    9.0277   -0.1555   27.9299 H   0  0  0  0  0  0  0  0  0  0  0  0
    8.8561   -1.7998   26.2397 H   0  0  0  0  0  0  0  0  0  0  0  0
    7.2787   -1.3857   26.9672 H   0  0  0  0  0  0  0  0  0  0  0  0
    7.1113   -1.6282   24.1422 C   0  0  0  0  0  0  0  0  0  0  0  0
    7.2589   -1.3874   22.7052 N   0  0  0  0  0  0  0  0  0  0  0  0
    6.3794   -0.5766   22.0698 N   0  0  0  0  0  0  0  0  0  0  0  0
    6.7947   -0.5979   20.8184 C   0  0  0  0  0  0  0  0  0  0  0  0
    6.1900    0.1507   19.7294 C   0  0  0  0  0  0  0  0  0  0  0  0
    5.0355    0.9366   19.8607 C   0  0  0  0  0  0  0  0  0  0  0  0
    4.6116    1.6550   18.7460 C   0  0  0  0  0  0  0  0  0  0  0  0
    5.3479    1.5664   17.5578 C   0  0  0  0  0  0  0  0  0  0  0  0
    6.4373    0.7967   17.4181 N   0  0  0  0  0  0  0  0  0  0  0  0
    6.8396    0.1077   18.4871 C   0  0  0  0  0  0  0  0  0  0  0  0
    7.7243   -0.5113   18.3590 H   0  0  0  0  0  0  0  0  0  0  0  0
    5.0476    2.1294   16.6778 H   0  0  0  0  0  0  0  0  0  0  0  0
    3.7421    2.3012   18.7836 H   0  0  0  0  0  0  0  0  0  0  0  0
    4.5064    0.9902   20.8147 H   0  0  0  0  0  0  0  0  0  0  0  0
    7.8895   -1.3674   20.6073 N   0  0  0  0  0  0  0  0  0  0  0  0
    8.1623   -1.8447   21.8019 C   0  0  0  0  0  0  0  0  0  0  0  0
    9.3199   -2.7517   22.0822 C   0  0  0  0  0  0  0  0  0  0  0  0
   10.4522   -2.1374   22.9655 C   0  0  0  0  0  0  0  0  0  0  0  0
   10.9080   -3.2589   23.9201 C   0  0  0  0  0  0  0  0  0  0  0  0
    9.7944   -4.2699   23.8846 C   0  0  0  0  0  0  0  0  0  0  0  0
    9.5170   -5.3098   24.7781 C   0  0  0  0  0  0  0  0  0  0  0  0
    8.3662   -6.0801   24.5872 C   0  0  0  0  0  0  0  0  0  0  0  0
    7.5308   -5.8600   23.4782 C   0  0  0  0  0  0  0  0  0  0  0  0
    7.8156   -4.8263   22.5788 C   0  0  0  0  0  0  0  0  0  0  0  0
    8.9289   -4.0166   22.8215 C   0  0  0  0  0  0  0  0  0  0  0  0
    7.1622   -4.6105   21.7339 H   0  0  0  0  0  0  0  0  0  0  0  0
    6.6602   -6.4878   23.3111 H   0  0  0  0  0  0  0  0  0  0  0  0
    8.1145   -6.8315   25.3321 H   0  0  0  0  0  0  0  0  0  0  0  0
   10.1643   -5.5206   25.6291 H   0  0  0  0  0  0  0  0  0  0  0  0
   11.0310   -2.8793   24.9321 H   0  0  0  0  0  0  0  0  0  0  0  0
   11.8691   -3.6989   23.6393 H   0  0  0  0  0  0  0  0  0  0  0  0
   10.0431   -1.3237   23.5748 H   0  0  0  0  0  0  0  0  0  0  0  0
   11.2767   -1.7117   22.3852 H   0  0  0  0  0  0  0  0  0  0  0  0
    9.6923   -3.0091   21.0857 H   0  0  0  0  0  0  0  0  0  0  0  0
    6.0482   -1.8079   24.3339 H   0  0  0  0  0  0  0  0  0  0  0  0
    7.6230   -2.5607   24.3683 H   0  0  0  0  0  0  0  0  0  0  0  0
    8.5110   -0.0426   24.5238 H   0  0  0  0  0  0  0  0  0  0  0  0
    5.7074    0.2485   25.7584 H   0  0  0  0  0  0  0  0  0  0  0  0
    6.2198    0.9674   24.2068 H   0  0  0  0  0  0  0  0  0  0  0  0
    6.9912    1.4721   25.7392 H   0  0  0  0  0  0  0  0  0  0  0  0
  1  2  1  0
  2  3  1  0
  3  4  1  0
  4  5  1  0
  3  6  1  0
  3  7  1  0
  2  8  1  0
  8  9  1  0
  9 10  1  0
 10 11  2  0
 11 12  1  0
 12 13  2  0
 13 14  1  0
 14 15  2  0
 15 16  1  0
 16 17  2  0
 17 18  1  0
 15 19  1  0
 14 20  1  0
 13 21  1  0
 11 22  1  0
 22 23  2  0
 23 24  1  0
 24 25  1  0
 25 26  1  0
 26 27  1  0
 27 28  2  0
 28 29  1  0
 29 30  2  0
 30 31  1  0
 31 32  2  0
 31 33  1  0
 30 34  1  0
 29 35  1  0
 28 36  1  0
 26 37  1  0
 26 38  1  0
 25 39  1  0
 25 40  1  0
 24 41  1  0
  8 42  1  0
  8 43  1  0
  2 44  1  0
  1 45  1  0
  1 46  1  0
  1 47  1  0
 23  9  1  0
 32 24  1  0
 17 12  1  0
 32 27  1  0
M  END
>  <cnnaffinity>  (1) 
-6.09563

>  <filename>  (1) 
CC(CO)Cn1nc(-c2cccnc2)nc1C1CCc2ccccc21

$$$$
