
     RDKit          3D

 29 30  0  0  0  0  0  0  0  0999 V2000
    4.9105    1.8156   16.9642 H   0  0  0  0  0  0  0  0  0  0  0  0
    5.3793    1.3097   17.8073 C   0  0  0  0  0  0  0  0  0  0  0  0
    6.5396    0.6852   17.5420 N   0  0  0  0  0  0  0  0  0  0  0  0
    7.1514    0.0616   18.5572 C   0  0  0  0  0  0  0  0  0  0  0  0
    8.1091   -0.3962   18.3161 H   0  0  0  0  0  0  0  0  0  0  0  0
    6.6554    0.0196   19.8798 C   0  0  0  0  0  0  0  0  0  0  0  0
    7.3670   -0.6425   20.9733 C   0  0  0  0  0  0  0  0  0  0  0  0
    7.5630   -0.3157   22.3130 C   0  0  0  0  0  0  0  0  0  0  0  0
    7.0889    0.8163   22.9107 N   0  0  0  0  0  0  0  0  0  0  0  0
    6.9665    1.5533   22.2373 H   0  0  0  0  0  0  0  0  0  0  0  0
    7.3527    1.1636   24.2892 C   0  0  0  0  0  0  0  0  0  0  0  0
    7.3437    0.2166   24.8467 H   0  0  0  0  0  0  0  0  0  0  0  0
    6.2207    2.0663   24.7709 C   0  0  0  0  0  0  0  0  0  0  0  0
    5.2475    1.5944   24.6017 H   0  0  0  0  0  0  0  0  0  0  0  0
    6.3267    2.2695   25.8413 H   0  0  0  0  0  0  0  0  0  0  0  0
    6.2321    3.0333   24.2465 H   0  0  0  0  0  0  0  0  0  0  0  0
    8.7208    1.8229   24.4843 C   0  0  0  0  0  0  0  0  0  0  0  0
    8.7929    2.7803   23.9463 H   0  0  0  0  0  0  0  0  0  0  0  0
    9.5214    1.1630   24.1346 H   0  0  0  0  0  0  0  0  0  0  0  0
    8.8842    2.0321   25.5495 H   0  0  0  0  0  0  0  0  0  0  0  0
    8.2538   -1.2849   22.9625 N   0  0  0  0  0  0  0  0  0  0  0  0
    8.4843   -2.2063   22.0523 C   0  0  0  0  0  0  0  0  0  0  0  0
    8.9961   -3.1461   22.2103 H   0  0  0  0  0  0  0  0  0  0  0  0
    7.9900   -1.8658   20.8404 N   0  0  0  0  0  0  0  0  0  0  0  0
    7.9773   -2.4391   20.0118 H   0  0  0  0  0  0  0  0  0  0  0  0
    5.4324    0.6703   20.1244 C   0  0  0  0  0  0  0  0  0  0  0  0
    5.0241    0.6354   21.1365 H   0  0  0  0  0  0  0  0  0  0  0  0
    4.7857    1.3251   19.0746 C   0  0  0  0  0  0  0  0  0  0  0  0
    3.8553    1.8576   19.2272 H   0  0  0  0  0  0  0  0  0  0  0  0
  1  2  1  0
  2  3  2  0
  3  4  1  0
  4  5  1  0
  4  6  2  0
  6  7  1  0
  7  8  2  0
  8  9  1  0
  9 10  1  0
  9 11  1  0
 11 12  1  0
 11 13  1  0
 13 14  1  0
 13 15  1  0
 13 16  1  0
 11 17  1  0
 17 18  1  0
 17 19  1  0
 17 20  1  0
  8 21  1  0
 21 22  2  0
 22 23  1  0
 22 24  1  0
 24 25  1  0
  6 26  1  0
 26 27  1  0
 26 28  2  0
 28 29  1  0
 28  2  1  0
 24  7  1  0
M  END
>  <cnnaffinity>  (1) 
-4.60196

>  <filename>  (1) 
CC(C)Nc1nc[nH]c1-c1cccnc1

$$$$
