
     RDKit          3D

 33 34  0  0  0  0  0  0  0  0999 V2000
    4.9331    1.7985   17.0024 H   0  0  0  0  0  0  0  0  0  0  0  0
    5.4046    1.2829   17.8393 C   0  0  0  0  0  0  0  0  0  0  0  0
    6.5611    0.6531   17.5753 N   0  0  0  0  0  0  0  0  0  0  0  0
    7.1876    0.0336   18.5866 C   0  0  0  0  0  0  0  0  0  0  0  0
    8.1408   -0.4378   18.3538 H   0  0  0  0  0  0  0  0  0  0  0  0
    6.6855   -0.0168   19.9087 C   0  0  0  0  0  0  0  0  0  0  0  0
    7.3491   -0.7079   20.9666 N   0  0  0  0  0  0  0  0  0  0  0  0
    6.7000   -1.4955   21.9446 C   0  0  0  0  0  0  0  0  0  0  0  0
    5.6374   -1.6302   21.9365 H   0  0  0  0  0  0  0  0  0  0  0  0
    7.6496   -1.9880   22.7747 C   0  0  0  0  0  0  0  0  0  0  0  0
    7.7146   -2.8328   23.8419 N   0  0  0  0  0  0  0  0  0  0  0  0
    8.6340   -2.8849   24.2427 H   0  0  0  0  0  0  0  0  0  0  0  0
    6.5390   -3.3296   24.5444 C   0  0  0  0  0  0  0  0  0  0  0  0
    5.7318   -4.1774   23.5501 C   0  0  0  0  0  0  0  0  0  0  0  0
    4.8515   -4.6183   24.0265 H   0  0  0  0  0  0  0  0  0  0  0  0
    5.3949   -3.5760   22.7021 H   0  0  0  0  0  0  0  0  0  0  0  0
    6.3562   -4.9876   23.1540 H   0  0  0  0  0  0  0  0  0  0  0  0
    5.7310   -2.1452   25.1026 C   0  0  0  0  0  0  0  0  0  0  0  0
    5.6440   -1.3307   24.3846 H   0  0  0  0  0  0  0  0  0  0  0  0
    6.2574   -1.7355   25.9722 H   0  0  0  0  0  0  0  0  0  0  0  0
    4.7294   -2.4607   25.4086 H   0  0  0  0  0  0  0  0  0  0  0  0
    6.9818   -4.1967   25.7275 C   0  0  0  0  0  0  0  0  0  0  0  0
    7.5257   -3.6041   26.4736 H   0  0  0  0  0  0  0  0  0  0  0  0
    6.0982   -4.6145   26.2276 H   0  0  0  0  0  0  0  0  0  0  0  0
    7.6200   -5.0323   25.4238 H   0  0  0  0  0  0  0  0  0  0  0  0
    8.8590   -1.5141   22.3311 N   0  0  0  0  0  0  0  0  0  0  0  0
    9.7661   -1.6820   22.7110 H   0  0  0  0  0  0  0  0  0  0  0  0
    8.7353   -0.7239   21.2252 C   0  0  0  0  0  0  0  0  0  0  0  0
    9.6499   -0.1888   20.6304 O   0  0  0  0  0  0  0  0  0  0  0  0
    5.4702    0.6379   20.1588 C   0  0  0  0  0  0  0  0  0  0  0  0
    5.0603    0.6392   21.1684 H   0  0  0  0  0  0  0  0  0  0  0  0
    4.8194    1.3005   19.1097 C   0  0  0  0  0  0  0  0  0  0  0  0
    3.8844    1.8337   19.2661 H   0  0  0  0  0  0  0  0  0  0  0  0
  1  2  1  0
  2  3  2  0
  3  4  1  0
  4  5  1  0
  4  6  2  0
  6  7  1  0
  7  8  1  0
  8  9  1  0
  8 10  2  0
 10 11  1  0
 11 12  1  0
 11 13  1  0
 13 14  1  0
 14 15  1  0
 14 16  1  0
 14 17  1  0
 13 18  1  0
 18 19  1  0
 18 20  1  0
 18 21  1  0
 13 22  1  0
 22 23  1  0
 22 24  1  0
 22 25  1  0
 10 26  1  0
 26 27  1  0
 26 28  1  0
 28 29  2  0
  6 30  1  0
 30 31  1  0
 30 32  2  0
 32 33  1  0
 32  2  1  0
 28  7  1  0
M  END
>  <cnnaffinity>  (1) 
-4.86987

>  <filename>  (1) 
CC(C)(C)Nc1cn(-c2cccnc2)c(=O)[nH]1

$$$$
