
     RDKit          3D

 48 51  0  0  0  0  0  0  0  0999 V2000
   11.6854   -0.6888   21.4448 C   0  0  0  0  0  0  0  0  0  0  0  0
   11.2185   -1.6116   22.5753 C   0  0  0  0  0  0  0  0  0  0  0  0
   10.9665   -0.7790   23.8398 C   0  0  0  0  0  0  0  0  0  0  0  0
   11.8662   -0.2152   24.1115 H   0  0  0  0  0  0  0  0  0  0  0  0
   10.1666   -0.0472   23.6871 H   0  0  0  0  0  0  0  0  0  0  0  0
   10.7066   -1.3917   24.7098 H   0  0  0  0  0  0  0  0  0  0  0  0
   10.0137   -2.4782   22.1646 C   0  0  0  0  0  0  0  0  0  0  0  0
    8.7558   -1.7756   21.9898 N   0  0  0  0  0  0  0  0  0  0  0  0
    8.4694   -1.2742   20.7706 N   0  0  0  0  0  0  0  0  0  0  0  0
    7.3416   -0.6316   20.9676 C   0  0  0  0  0  0  0  0  0  0  0  0
    6.6369    0.0377   19.8924 C   0  0  0  0  0  0  0  0  0  0  0  0
    5.4164    0.6766   20.1318 C   0  0  0  0  0  0  0  0  0  0  0  0
    4.8013    1.3156   19.0667 C   0  0  0  0  0  0  0  0  0  0  0  0
    5.4227    1.2890   17.8128 C   0  0  0  0  0  0  0  0  0  0  0  0
    6.5851    0.6579   17.5726 N   0  0  0  0  0  0  0  0  0  0  0  0
    7.1804    0.0467   18.5994 C   0  0  0  0  0  0  0  0  0  0  0  0
    8.1289   -0.4492   18.3785 H   0  0  0  0  0  0  0  0  0  0  0  0
    4.9664    1.7995   16.9707 H   0  0  0  0  0  0  0  0  0  0  0  0
    3.8670    1.8425   19.2097 H   0  0  0  0  0  0  0  0  0  0  0  0
    5.0045    0.6593   21.1440 H   0  0  0  0  0  0  0  0  0  0  0  0
    6.9017   -0.6568   22.2502 N   0  0  0  0  0  0  0  0  0  0  0  0
    7.7944   -1.4084   22.8681 C   0  0  0  0  0  0  0  0  0  0  0  0
    7.7808   -1.8229   24.3242 C   0  0  0  0  0  0  0  0  0  0  0  0
    6.6014   -2.6125   24.7289 N   0  0  0  0  0  0  0  0  0  0  0  0
    6.5991   -3.9700   24.4519 C   0  0  0  0  0  0  0  0  0  0  0  0
    7.5583   -4.5628   23.9874 O   0  0  0  0  0  0  0  0  0  0  0  0
    5.2665   -4.6965   24.6371 C   0  0  0  0  0  0  0  0  0  0  0  0
    4.3275   -4.1134   25.5415 O   0  0  0  0  0  0  0  0  0  0  0  0
    4.2930   -2.7417   25.5561 C   0  0  0  0  0  0  0  0  0  0  0  0
    3.1285   -2.1244   26.0103 C   0  0  0  0  0  0  0  0  0  0  0  0
    3.0315   -0.7284   26.0254 C   0  0  0  0  0  0  0  0  0  0  0  0
    4.1045    0.0464   25.5727 C   0  0  0  0  0  0  0  0  0  0  0  0
    5.2781   -0.5691   25.1321 C   0  0  0  0  0  0  0  0  0  0  0  0
    5.4039   -1.9667   25.1454 C   0  0  0  0  0  0  0  0  0  0  0  0
    6.0544    0.0204   24.6586 H   0  0  0  0  0  0  0  0  0  0  0  0
    4.0325    1.1307   25.5473 H   0  0  0  0  0  0  0  0  0  0  0  0
    2.1179   -0.2555   26.3740 H   0  0  0  0  0  0  0  0  0  0  0  0
    2.3203   -2.7788   26.3211 H   0  0  0  0  0  0  0  0  0  0  0  0
    5.4792   -5.6937   25.0127 H   0  0  0  0  0  0  0  0  0  0  0  0
    4.8310   -4.7853   23.6338 H   0  0  0  0  0  0  0  0  0  0  0  0
    8.6714   -2.4067   24.5598 H   0  0  0  0  0  0  0  0  0  0  0  0
    7.8281   -0.9284   24.9537 H   0  0  0  0  0  0  0  0  0  0  0  0
   10.1903   -2.8964   21.1801 H   0  0  0  0  0  0  0  0  0  0  0  0
    9.8467   -3.3111   22.8513 H   0  0  0  0  0  0  0  0  0  0  0  0
   12.0227   -2.3395   22.7599 H   0  0  0  0  0  0  0  0  0  0  0  0
   12.0015   -1.2402   20.5556 H   0  0  0  0  0  0  0  0  0  0  0  0
   12.5478   -0.0997   21.7751 H   0  0  0  0  0  0  0  0  0  0  0  0
   10.8964    0.0114   21.1437 H   0  0  0  0  0  0  0  0  0  0  0  0
  1  2  1  0
  2  3  1  0
  3  4  1  0
  3  5  1  0
  3  6  1  0
  2  7  1  0
  7  8  1  0
  8  9  1  0
  9 10  2  0
 10 11  1  0
 11 12  2  0
 12 13  1  0
 13 14  2  0
 14 15  1  0
 15 16  2  0
 16 17  1  0
 14 18  1  0
 13 19  1  0
 12 20  1  0
 10 21  1  0
 21 22  2  0
 22 23  1  0
 23 24  1  0
 24 25  1  0
 25 26  2  0
 25 27  1  0
 27 28  1  0
 28 29  1  0
 29 30  2  0
 30 31  1  0
 31 32  2  0
 32 33  1  0
 33 34  2  0
 33 35  1  0
 32 36  1  0
 31 37  1  0
 30 38  1  0
 27 39  1  0
 27 40  1  0
 23 41  1  0
 23 42  1  0
  7 43  1  0
  7 44  1  0
  2 45  1  0
  1 46  1  0
  1 47  1  0
  1 48  1  0
 22  8  1  0
 34 24  1  0
 16 11  1  0
 34 29  1  0
M  END
>  <cnnaffinity>  (1) 
-6.04476

>  <filename>  (1) 
CC(C)Cn1nc(-c2cccnc2)nc1CN1C(=O)COc2ccccc21

$$$$
