
     RDKit          3D

 43 46  0  0  0  0  0  0  0  0999 V2000
   11.8849    2.9457   21.4793 C   0  0  0  0  0  0  0  0  0  0  0  0
   11.5806    1.6186   22.1718 C   0  0  0  0  0  0  0  0  0  0  0  0
   12.0651    1.6238   23.6252 C   0  0  0  0  0  0  0  0  0  0  0  0
   13.1538    1.7663   23.6422 H   0  0  0  0  0  0  0  0  0  0  0  0
   11.8379    0.6705   24.1148 H   0  0  0  0  0  0  0  0  0  0  0  0
   11.5956    2.4381   24.1941 H   0  0  0  0  0  0  0  0  0  0  0  0
   10.1475    1.2887   22.0618 N   0  0  0  0  0  0  0  0  0  0  0  0
    9.7408    0.3074   21.2110 N   0  0  0  0  0  0  0  0  0  0  0  0
    8.4508    0.2113   21.4546 C   0  0  0  0  0  0  0  0  0  0  0  0
    7.5538   -0.7470   20.7173 C   0  0  0  0  0  0  0  0  0  0  0  0
    6.7369   -0.0898   19.6085 C   0  0  0  0  0  0  0  0  0  0  0  0
    5.5873    0.6458   19.9234 C   0  0  0  0  0  0  0  0  0  0  0  0
    4.9087    1.3162   18.9017 C   0  0  0  0  0  0  0  0  0  0  0  0
    5.4123    1.2397   17.6000 C   0  0  0  0  0  0  0  0  0  0  0  0
    6.4957    0.5204   17.2714 N   0  0  0  0  0  0  0  0  0  0  0  0
    7.1295   -0.1222   18.2602 C   0  0  0  0  0  0  0  0  0  0  0  0
    8.0101   -0.6948   17.9700 H   0  0  0  0  0  0  0  0  0  0  0  0
    4.9288    1.7763   16.7840 H   0  0  0  0  0  0  0  0  0  0  0  0
    4.0268    1.9149   19.1008 H   0  0  0  0  0  0  0  0  0  0  0  0
    5.2505    0.6964   20.9609 H   0  0  0  0  0  0  0  0  0  0  0  0
    6.8764   -1.1874   21.4594 H   0  0  0  0  0  0  0  0  0  0  0  0
    8.1779   -1.5542   20.3192 H   0  0  0  0  0  0  0  0  0  0  0  0
    7.9946    1.0581   22.4102 N   0  0  0  0  0  0  0  0  0  0  0  0
    9.0729    1.7527   22.7457 C   0  0  0  0  0  0  0  0  0  0  0  0
    9.0543    2.8606   23.7504 C   0  0  0  0  0  0  0  0  0  0  0  0
    8.8889    2.5097   25.1181 C   0  0  0  0  0  0  0  0  0  0  0  0
    8.7394    3.4681   26.1064 C   0  0  0  0  0  0  0  0  0  0  0  0
    8.7501    4.8164   25.7184 C   0  0  0  0  0  0  0  0  0  0  0  0
    8.5506    5.9518   26.4670 N   0  0  0  0  0  0  0  0  0  0  0  0
    8.5440    7.0485   25.6233 C   0  0  0  0  0  0  0  0  0  0  0  0
    8.7770    6.6416   24.3442 C   0  0  0  0  0  0  0  0  0  0  0  0
    8.9066    5.2081   24.3665 C   0  0  0  0  0  0  0  0  0  0  0  0
    9.0765    4.2119   23.3828 C   0  0  0  0  0  0  0  0  0  0  0  0
    9.1830    4.5079   22.3402 H   0  0  0  0  0  0  0  0  0  0  0  0
    8.8125    7.2897   23.4813 H   0  0  0  0  0  0  0  0  0  0  0  0
    8.3557    8.0418   26.0108 H   0  0  0  0  0  0  0  0  0  0  0  0
    8.2331    5.9367   27.4204 H   0  0  0  0  0  0  0  0  0  0  0  0
    8.5857    3.1739   27.1365 H   0  0  0  0  0  0  0  0  0  0  0  0
    8.8517    1.4502   25.3626 H   0  0  0  0  0  0  0  0  0  0  0  0
   12.0760    0.8011   21.6398 H   0  0  0  0  0  0  0  0  0  0  0  0
   11.3821    3.7659   21.9989 H   0  0  0  0  0  0  0  0  0  0  0  0
   12.9579    3.1529   21.4804 H   0  0  0  0  0  0  0  0  0  0  0  0
   11.5464    2.9165   20.4439 H   0  0  0  0  0  0  0  0  0  0  0  0
  1  2  1  0
  2  3  1  0
  3  4  1  0
  3  5  1  0
  3  6  1  0
  2  7  1  0
  7  8  1  0
  8  9  2  0
  9 10  1  0
 10 11  1  0
 11 12  2  0
 12 13  1  0
 13 14  2  0
 14 15  1  0
 15 16  2  0
 16 17  1  0
 14 18  1  0
 13 19  1  0
 12 20  1  0
 10 21  1  0
 10 22  1  0
  9 23  1  0
 23 24  2  0
 24 25  1  0
 25 26  2  0
 26 27  1  0
 27 28  2  0
 28 29  1  0
 29 30  1  0
 30 31  2  0
 31 32  1  0
 32 33  2  0
 33 34  1  0
 31 35  1  0
 30 36  1  0
 29 37  1  0
 27 38  1  0
 26 39  1  0
  2 40  1  0
  1 41  1  0
  1 42  1  0
  1 43  1  0
 24  7  1  0
 33 25  1  0
 16 11  1  0
 32 28  1  0
M  END
>  <cnnaffinity>  (1) 
-5.39231

>  <filename>  (1) 
CC(C)n1nc(Cc2cccnc2)nc1-c1ccc2[nH]ccc2c1

$$$$
