
     RDKit          3D

 31 32  0  0  0  0  0  0  0  0999 V2000
    4.9479    1.7974   16.9569 H   0  0  0  0  0  0  0  0  0  0  0  0
    5.4039    1.3243   17.8263 C   0  0  0  0  0  0  0  0  0  0  0  0
    6.5779    0.7011   17.6176 N   0  0  0  0  0  0  0  0  0  0  0  0
    7.1492    0.1153   18.6805 C   0  0  0  0  0  0  0  0  0  0  0  0
    8.1075   -0.3723   18.4902 H   0  0  0  0  0  0  0  0  0  0  0  0
    6.6044    0.1009   19.9813 C   0  0  0  0  0  0  0  0  0  0  0  0
    7.2715   -0.6072   21.1045 C   0  0  0  0  0  0  0  0  0  0  0  0
    7.5872   -0.0950   22.3410 C   0  0  0  0  0  0  0  0  0  0  0  0
    7.3753    1.1992   22.8107 N   0  0  0  0  0  0  0  0  0  0  0  0
    6.9199    1.3334   23.6964 H   0  0  0  0  0  0  0  0  0  0  0  0
    7.5254    2.3235   22.0206 C   0  0  0  0  0  0  0  0  0  0  0  0
    8.1635    2.3085   20.9888 O   0  0  0  0  0  0  0  0  0  0  0  0
    6.8723    3.5722   22.6145 C   0  0  0  0  0  0  0  0  0  0  0  0
    6.2939    3.2800   23.5047 H   0  0  0  0  0  0  0  0  0  0  0  0
    7.9931    4.5361   23.0394 C   0  0  0  0  0  0  0  0  0  0  0  0
    7.5721    5.4708   23.4279 H   0  0  0  0  0  0  0  0  0  0  0  0
    8.6198    4.0777   23.8131 H   0  0  0  0  0  0  0  0  0  0  0  0
    8.6303    4.7742   22.1768 H   0  0  0  0  0  0  0  0  0  0  0  0
    5.8943    4.2399   21.6398 C   0  0  0  0  0  0  0  0  0  0  0  0
    5.3806    5.0587   22.1545 H   0  0  0  0  0  0  0  0  0  0  0  0
    6.4251    4.6733   20.7883 H   0  0  0  0  0  0  0  0  0  0  0  0
    5.1397    3.5414   21.2562 H   0  0  0  0  0  0  0  0  0  0  0  0
    8.3894   -1.2557   23.3440 S   0  0  0  0  0  0  0  0  0  0  0  0
    8.2970   -2.4452   22.1011 C   0  0  0  0  0  0  0  0  0  0  0  0
    8.7635   -3.4079   22.2401 H   0  0  0  0  0  0  0  0  0  0  0  0
    7.6486   -1.9777   21.0085 C   0  0  0  0  0  0  0  0  0  0  0  0
    7.3454   -2.5643   20.1554 H   0  0  0  0  0  0  0  0  0  0  0  0
    5.3768    0.7534   20.1651 C   0  0  0  0  0  0  0  0  0  0  0  0
    4.9179    0.7506   21.1547 H   0  0  0  0  0  0  0  0  0  0  0  0
    4.7652    1.3676   19.0705 C   0  0  0  0  0  0  0  0  0  0  0  0
    3.8112    1.8814   19.1686 H   0  0  0  0  0  0  0  0  0  0  0  0
  1  2  1  0
  2  3  2  0
  3  4  1  0
  4  5  1  0
  4  6  2  0
  6  7  1  0
  7  8  2  0
  8  9  1  0
  9 10  1  0
  9 11  1  0
 11 12  2  0
 11 13  1  0
 13 14  1  0
 13 15  1  0
 15 16  1  0
 15 17  1  0
 15 18  1  0
 13 19  1  0
 19 20  1  0
 19 21  1  0
 19 22  1  0
  8 23  1  0
 23 24  1  0
 24 25  1  0
 24 26  2  0
 26 27  1  0
  6 28  1  0
 28 29  1  0
 28 30  2  0
 30 31  1  0
 30  2  1  0
 26  7  1  0
M  END
>  <cnnaffinity>  (1) 
-4.75142

>  <filename>  (1) 
CC(C)C(=O)Nc1sccc1-c1cccnc1

$$$$
