
     RDKit          3D

 41 43  0  0  0  0  0  0  0  0999 V2000
    4.9867    1.7628   16.9585 H   0  0  0  0  0  0  0  0  0  0  0  0
    5.4509    1.2615   17.8068 C   0  0  0  0  0  0  0  0  0  0  0  0
    6.6143    0.6350   17.5711 N   0  0  0  0  0  0  0  0  0  0  0  0
    7.2129    0.0343   18.6135 C   0  0  0  0  0  0  0  0  0  0  0  0
    8.1606   -0.4585   18.4034 H   0  0  0  0  0  0  0  0  0  0  0  0
    6.6890    0.0240   19.9292 C   0  0  0  0  0  0  0  0  0  0  0  0
    7.2969   -0.6531   21.0066 N   0  0  0  0  0  0  0  0  0  0  0  0
    8.0613   -1.2591   20.7607 H   0  0  0  0  0  0  0  0  0  0  0  0
    7.4134   -0.1597   22.2974 C   0  0  0  0  0  0  0  0  0  0  0  0
    7.1173    0.9794   22.6030 O   0  0  0  0  0  0  0  0  0  0  0  0
    7.9719   -1.1897   23.3230 C   0  0  0  0  0  0  0  0  0  0  0  0
    7.2659   -2.5638   23.2520 C   0  0  0  0  0  0  0  0  0  0  0  0
    7.6481   -3.1993   24.0600 H   0  0  0  0  0  0  0  0  0  0  0  0
    7.4620   -3.0712   22.3016 H   0  0  0  0  0  0  0  0  0  0  0  0
    6.1838   -2.4718   23.3763 H   0  0  0  0  0  0  0  0  0  0  0  0
    7.7684   -0.6200   24.7496 C   0  0  0  0  0  0  0  0  0  0  0  0
    6.6969   -0.5436   24.9660 H   0  0  0  0  0  0  0  0  0  0  0  0
    8.2266   -1.2629   25.5104 H   0  0  0  0  0  0  0  0  0  0  0  0
    8.1843    0.3876   24.8426 H   0  0  0  0  0  0  0  0  0  0  0  0
    9.4732   -1.4548   23.0094 C   0  0  0  0  0  0  0  0  0  0  0  0
    9.9065   -2.0383   23.8304 H   0  0  0  0  0  0  0  0  0  0  0  0
    9.5896   -2.0673   22.1045 H   0  0  0  0  0  0  0  0  0  0  0  0
   10.2565   -0.2431   22.8898 N   0  0  0  0  0  0  0  0  0  0  0  0
   10.8146    0.3653   24.0033 C   0  0  0  0  0  0  0  0  0  0  0  0
   10.8599   -0.1203   25.1140 O   0  0  0  0  0  0  0  0  0  0  0  0
   11.3342    1.6662   23.5468 C   0  0  0  0  0  0  0  0  0  0  0  0
   11.9736    2.6462   24.2881 C   0  0  0  0  0  0  0  0  0  0  0  0
   12.0426    2.5076   25.3579 H   0  0  0  0  0  0  0  0  0  0  0  0
   12.5006    3.7457   23.6117 C   0  0  0  0  0  0  0  0  0  0  0  0
   12.9975    4.5209   24.1900 H   0  0  0  0  0  0  0  0  0  0  0  0
   12.3832    3.8430   22.2055 C   0  0  0  0  0  0  0  0  0  0  0  0
   12.8333    4.6866   21.6826 H   0  0  0  0  0  0  0  0  0  0  0  0
   11.6868    2.8661   21.4769 C   0  0  0  0  0  0  0  0  0  0  0  0
   11.5838    2.9615   20.3987 H   0  0  0  0  0  0  0  0  0  0  0  0
   11.1367    1.7816   22.1764 C   0  0  0  0  0  0  0  0  0  0  0  0
   10.3672    0.5698   21.7584 C   0  0  0  0  0  0  0  0  0  0  0  0
    9.9025    0.2751   20.6770 O   0  0  0  0  0  0  0  0  0  0  0  0
    5.4759    0.6824   20.1511 C   0  0  0  0  0  0  0  0  0  0  0  0
    5.0626    0.7034   21.1588 H   0  0  0  0  0  0  0  0  0  0  0  0
    4.8422    1.2963   19.0685 C   0  0  0  0  0  0  0  0  0  0  0  0
    3.8965    1.8116   19.1998 H   0  0  0  0  0  0  0  0  0  0  0  0
  1  2  1  0
  2  3  2  0
  3  4  1  0
  4  5  1  0
  4  6  2  0
  6  7  1  0
  7  8  1  0
  7  9  1  0
  9 10  2  0
  9 11  1  0
 11 12  1  0
 12 13  1  0
 12 14  1  0
 12 15  1  0
 11 16  1  0
 16 17  1  0
 16 18  1  0
 16 19  1  0
 11 20  1  0
 20 21  1  0
 20 22  1  0
 20 23  1  0
 23 24  1  0
 24 25  2  0
 24 26  1  0
 26 27  2  0
 27 28  1  0
 27 29  1  0
 29 30  1  0
 29 31  2  0
 31 32  1  0
 31 33  1  0
 33 34  1  0
 33 35  2  0
 35 36  1  0
 36 37  2  0
  6 38  1  0
 38 39  1  0
 38 40  2  0
 40 41  1  0
 40  2  1  0
 36 23  1  0
 35 26  1  0
M  END
>  <cnnaffinity>  (1) 
-5.62922

>  <filename>  (1) 
CC(C)(CN1C(=O)c2ccccc2C1=O)C(=O)Nc1cccnc1

$$$$
