
     RDKit          3D

 36 38  0  0  0  0  0  0  0  0999 V2000
    5.0050    1.6514   16.9656 H   0  0  0  0  0  0  0  0  0  0  0  0
    5.5547    1.1939   17.7854 C   0  0  0  0  0  0  0  0  0  0  0  0
    6.6750    0.5356   17.4482 N   0  0  0  0  0  0  0  0  0  0  0  0
    7.3923    0.0074   18.4386 C   0  0  0  0  0  0  0  0  0  0  0  0
    8.2958   -0.5310   18.1588 H   0  0  0  0  0  0  0  0  0  0  0  0
    7.0660    0.1297   19.8015 C   0  0  0  0  0  0  0  0  0  0  0  0
    8.0867   -0.4019   20.7686 C   0  0  0  0  0  0  0  0  0  0  0  0
    8.9753   -1.1174   20.3443 O   0  0  0  0  0  0  0  0  0  0  0  0
    8.0168   -0.0792   22.3074 C   0  0  0  0  0  0  0  0  0  0  0  0
    7.6961    1.4129   22.5582 C   0  0  0  0  0  0  0  0  0  0  0  0
    8.4092    2.3878   21.7946 C   0  0  0  0  0  0  0  0  0  0  0  0
    9.1878    2.0646   21.1026 H   0  0  0  0  0  0  0  0  0  0  0  0
    8.1169    3.7403   21.9083 C   0  0  0  0  0  0  0  0  0  0  0  0
    8.5800    4.4881   21.2870 H   0  0  0  0  0  0  0  0  0  0  0  0
    7.1365    4.1807   22.8139 C   0  0  0  0  0  0  0  0  0  0  0  0
    6.5745    5.4658   23.1455 C   0  0  0  0  0  0  0  0  0  0  0  0
    6.8455    6.4233   22.7208 H   0  0  0  0  0  0  0  0  0  0  0  0
    5.6194    5.2422   24.0905 C   0  0  0  0  0  0  0  0  0  0  0  0
    4.9579    5.9469   24.5761 H   0  0  0  0  0  0  0  0  0  0  0  0
    5.5607    3.8921   24.3855 N   0  0  0  0  0  0  0  0  0  0  0  0
    4.8652    3.4598   24.9672 H   0  0  0  0  0  0  0  0  0  0  0  0
    6.4730    3.2180   23.6069 C   0  0  0  0  0  0  0  0  0  0  0  0
    6.7675    1.8434   23.5101 C   0  0  0  0  0  0  0  0  0  0  0  0
    6.2555    1.1501   24.1669 H   0  0  0  0  0  0  0  0  0  0  0  0
    6.9905   -1.0725   22.9131 C   0  0  0  0  0  0  0  0  0  0  0  0
    6.0174   -1.0485   22.4099 H   0  0  0  0  0  0  0  0  0  0  0  0
    6.8596   -0.9005   23.9885 H   0  0  0  0  0  0  0  0  0  0  0  0
    7.3774   -2.0933   22.8132 H   0  0  0  0  0  0  0  0  0  0  0  0
    9.3854   -0.4011   22.9531 C   0  0  0  0  0  0  0  0  0  0  0  0
    9.6513   -1.4386   22.7394 H   0  0  0  0  0  0  0  0  0  0  0  0
    9.3321   -0.2788   24.0393 H   0  0  0  0  0  0  0  0  0  0  0  0
   10.1927    0.2324   22.5684 H   0  0  0  0  0  0  0  0  0  0  0  0
    5.8568    0.7614   20.1340 C   0  0  0  0  0  0  0  0  0  0  0  0
    5.5122    0.8626   21.1631 H   0  0  0  0  0  0  0  0  0  0  0  0
    5.0983    1.3109   19.1015 C   0  0  0  0  0  0  0  0  0  0  0  0
    4.1897    1.8602   19.3181 H   0  0  0  0  0  0  0  0  0  0  0  0
  1  2  1  0
  2  3  2  0
  3  4  1  0
  4  5  1  0
  4  6  2  0
  6  7  1  0
  7  8  2  0
  7  9  1  0
  9 10  1  0
 10 11  2  0
 11 12  1  0
 11 13  1  0
 13 14  1  0
 13 15  2  0
 15 16  1  0
 16 17  1  0
 16 18  2  0
 18 19  1  0
 18 20  1  0
 20 21  1  0
 20 22  1  0
 22 23  2  0
 23 24  1  0
  9 25  1  0
 25 26  1  0
 25 27  1  0
 25 28  1  0
  9 29  1  0
 29 30  1  0
 29 31  1  0
 29 32  1  0
  6 33  1  0
 33 34  1  0
 33 35  2  0
 35 36  1  0
 35  2  1  0
 23 10  1  0
 22 15  1  0
M  END
>  <cnnaffinity>  (1) 
-4.73054

>  <filename>  (1) 
CC(C)(C(=O)c1cccnc1)c1ccc2cc[nH]c2c1

$$$$
