
     RDKit          3D

 53 57  0  0  0  0  0  0  0  0999 V2000
    8.2867    2.4301   25.1274 C   0  0  0  0  0  0  0  0  0  0  0  0
    8.7209    2.9573   23.7610 C   0  0  0  0  0  0  0  0  0  0  0  0
    7.7796    4.0904   23.2553 C   0  0  0  0  0  0  0  0  0  0  0  0
    8.2744    4.6793   21.9328 C   0  0  0  0  0  0  0  0  0  0  0  0
    7.2782    5.7076   21.3624 C   0  0  0  0  0  0  0  0  0  0  0  0
    6.5359    6.3893   22.3690 O   0  0  0  0  0  0  0  0  0  0  0  0
    7.2590    6.6014   23.5641 C   0  0  0  0  0  0  0  0  0  0  0  0
    7.6106    5.2639   24.2651 C   0  0  0  0  0  0  0  0  0  0  0  0
    8.5375    5.4264   24.8318 H   0  0  0  0  0  0  0  0  0  0  0  0
    6.8311    5.0068   24.9928 H   0  0  0  0  0  0  0  0  0  0  0  0
    8.1809    7.1683   23.3467 H   0  0  0  0  0  0  0  0  0  0  0  0
    6.6298    7.2371   24.1919 H   0  0  0  0  0  0  0  0  0  0  0  0
    7.8166    6.4371   20.7353 H   0  0  0  0  0  0  0  0  0  0  0  0
    6.5214    5.2269   20.7351 H   0  0  0  0  0  0  0  0  0  0  0  0
    9.2307    5.1890   22.1191 H   0  0  0  0  0  0  0  0  0  0  0  0
    8.4841    3.8795   21.2179 H   0  0  0  0  0  0  0  0  0  0  0  0
    6.8004    3.6151   23.0860 H   0  0  0  0  0  0  0  0  0  0  0  0
    8.7911    1.8256   22.7947 N   0  0  0  0  0  0  0  0  0  0  0  0
    7.7035    1.0202   22.6460 N   0  0  0  0  0  0  0  0  0  0  0  0
    7.9951    0.2943   21.5869 C   0  0  0  0  0  0  0  0  0  0  0  0
    7.0292   -0.6903   20.9826 C   0  0  0  0  0  0  0  0  0  0  0  0
    6.3067   -0.1114   19.7735 C   0  0  0  0  0  0  0  0  0  0  0  0
    5.1463    0.6556   19.9309 C   0  0  0  0  0  0  0  0  0  0  0  0
    4.6452    1.3540   18.8307 C   0  0  0  0  0  0  0  0  0  0  0  0
    5.3118    1.2400   17.6070 C   0  0  0  0  0  0  0  0  0  0  0  0
    6.3938    0.4695   17.4170 N   0  0  0  0  0  0  0  0  0  0  0  0
    6.8688   -0.1809   18.4858 C   0  0  0  0  0  0  0  0  0  0  0  0
    7.7688   -0.7778   18.3293 H   0  0  0  0  0  0  0  0  0  0  0  0
    4.9646    1.7893   16.7360 H   0  0  0  0  0  0  0  0  0  0  0  0
    3.7713    1.9927   18.9105 H   0  0  0  0  0  0  0  0  0  0  0  0
    4.6591    0.7191   20.9067 H   0  0  0  0  0  0  0  0  0  0  0  0
    7.5874   -1.5885   20.6969 H   0  0  0  0  0  0  0  0  0  0  0  0
    6.3137   -0.9814   21.7566 H   0  0  0  0  0  0  0  0  0  0  0  0
    9.2043    0.5652   21.0287 N   0  0  0  0  0  0  0  0  0  0  0  0
    9.6911    1.5112   21.8128 C   0  0  0  0  0  0  0  0  0  0  0  0
   10.9897    2.1606   21.6306 C   0  0  0  0  0  0  0  0  0  0  0  0
   11.4449    2.7224   20.4522 C   0  0  0  0  0  0  0  0  0  0  0  0
   12.3852    3.7698   20.3706 C   0  0  0  0  0  0  0  0  0  0  0  0
   13.0830    4.1621   21.4902 C   0  0  0  0  0  0  0  0  0  0  0  0
   12.8970    3.3167   22.6214 C   0  0  0  0  0  0  0  0  0  0  0  0
   11.9299    2.2956   22.6539 C   0  0  0  0  0  0  0  0  0  0  0  0
   12.2326    1.4838   23.6850 N   0  0  0  0  0  0  0  0  0  0  0  0
   13.3062    1.9142   24.3598 N   0  0  0  0  0  0  0  0  0  0  0  0
   13.6683    3.0351   23.7495 C   0  0  0  0  0  0  0  0  0  0  0  0
   14.3762    3.7281   24.1817 H   0  0  0  0  0  0  0  0  0  0  0  0
   11.8478    0.5645   23.8373 H   0  0  0  0  0  0  0  0  0  0  0  0
   13.8450    4.9386   21.4698 H   0  0  0  0  0  0  0  0  0  0  0  0
   12.5200    4.1933   19.3848 H   0  0  0  0  0  0  0  0  0  0  0  0
   11.2432    2.2362   19.5545 H   0  0  0  0  0  0  0  0  0  0  0  0
    9.7332    3.3612   23.8270 H   0  0  0  0  0  0  0  0  0  0  0  0
    7.2624    2.0400   25.0687 H   0  0  0  0  0  0  0  0  0  0  0  0
    8.3123    3.2270   25.8777 H   0  0  0  0  0  0  0  0  0  0  0  0
    8.9489    1.6255   25.4556 H   0  0  0  0  0  0  0  0  0  0  0  0
  1  2  1  0
  2  3  1  0
  3  4  1  0
  4  5  1  0
  5  6  1  0
  6  7  1  0
  7  8  1  0
  8  9  1  0
  8 10  1  0
  7 11  1  0
  7 12  1  0
  5 13  1  0
  5 14  1  0
  4 15  1  0
  4 16  1  0
  3 17  1  0
  2 18  1  0
 18 19  1  0
 19 20  2  0
 20 21  1  0
 21 22  1  0
 22 23  2  0
 23 24  1  0
 24 25  2  0
 25 26  1  0
 26 27  2  0
 27 28  1  0
 25 29  1  0
 24 30  1  0
 23 31  1  0
 21 32  1  0
 21 33  1  0
 20 34  1  0
 34 35  2  0
 35 36  1  0
 36 37  2  0
 37 38  1  0
 38 39  2  0
 39 40  1  0
 40 41  2  0
 41 42  1  0
 42 43  1  0
 43 44  2  0
 44 45  1  0
 42 46  1  0
 39 47  1  0
 38 48  1  0
 37 49  1  0
  2 50  1  0
  1 51  1  0
  1 52  1  0
  1 53  1  0
  8  3  1  0
 35 18  1  0
 41 36  1  0
 27 22  1  0
 44 40  1  0
M  END
>  <cnnaffinity>  (1) 
-5.9686

>  <filename>  (1) 
CC(C1CCOCC1)n1nc(Cc2cccnc2)nc1-c1cccc2cn[nH]c12

$$$$
