
     RDKit          3D

 37 39  0  0  0  0  0  0  0  0999 V2000
    4.9854    1.7646   17.0178 H   0  0  0  0  0  0  0  0  0  0  0  0
    5.4413    1.2714   17.8727 C   0  0  0  0  0  0  0  0  0  0  0  0
    6.5986    0.6387   17.6399 N   0  0  0  0  0  0  0  0  0  0  0  0
    7.1881    0.0216   18.6614 C   0  0  0  0  0  0  0  0  0  0  0  0
    8.1288   -0.4805   18.4333 H   0  0  0  0  0  0  0  0  0  0  0  0
    6.6346    0.0288   19.9356 C   0  0  0  0  0  0  0  0  0  0  0  0
    7.4889   -0.8466   21.1818 S   0  0  0  0  0  0  0  0  0  0  0  0
    6.4801   -1.3352   22.1159 O   0  0  0  0  0  0  0  0  0  0  0  0
    8.3747   -1.7801   20.4897 O   0  0  0  0  0  0  0  0  0  0  0  0
    8.6011    0.3642   22.0857 C   0  0  0  0  0  0  0  0  0  0  0  0
    7.7383    1.5296   22.4736 C   0  0  0  0  0  0  0  0  0  0  0  0
    7.6663    2.7815   21.9265 C   0  0  0  0  0  0  0  0  0  0  0  0
    8.3233    3.1577   21.1514 H   0  0  0  0  0  0  0  0  0  0  0  0
    6.6148    3.4843   22.5952 C   0  0  0  0  0  0  0  0  0  0  0  0
    6.0756    4.7823   22.4577 C   0  0  0  0  0  0  0  0  0  0  0  0
    6.4879    5.4571   21.7109 H   0  0  0  0  0  0  0  0  0  0  0  0
    5.0222    5.1607   23.2760 C   0  0  0  0  0  0  0  0  0  0  0  0
    4.5980    6.1537   23.1729 H   0  0  0  0  0  0  0  0  0  0  0  0
    4.4891    4.2640   24.2338 C   0  0  0  0  0  0  0  0  0  0  0  0
    3.6605    4.5906   24.8540 H   0  0  0  0  0  0  0  0  0  0  0  0
    5.0002    2.9786   24.3891 C   0  0  0  0  0  0  0  0  0  0  0  0
    4.5815    2.3034   25.1296 H   0  0  0  0  0  0  0  0  0  0  0  0
    6.0725    2.5930   23.5575 C   0  0  0  0  0  0  0  0  0  0  0  0
    6.7801    1.4126   23.4561 N   0  0  0  0  0  0  0  0  0  0  0  0
    6.5408    0.5313   23.8900 H   0  0  0  0  0  0  0  0  0  0  0  0
    9.2029   -0.3596   23.3094 C   0  0  0  0  0  0  0  0  0  0  0  0
    8.4355   -0.7791   23.9663 H   0  0  0  0  0  0  0  0  0  0  0  0
    9.7924    0.3608   23.8840 H   0  0  0  0  0  0  0  0  0  0  0  0
    9.8623   -1.1732   22.9896 H   0  0  0  0  0  0  0  0  0  0  0  0
    9.7174    0.8110   21.1384 C   0  0  0  0  0  0  0  0  0  0  0  0
   10.3684   -0.0202   20.8593 H   0  0  0  0  0  0  0  0  0  0  0  0
    9.2733    1.2308   20.2378 H   0  0  0  0  0  0  0  0  0  0  0  0
   10.3093    1.5869   21.6310 H   0  0  0  0  0  0  0  0  0  0  0  0
    5.4156    0.6547   20.1936 C   0  0  0  0  0  0  0  0  0  0  0  0
    4.9448    0.6384   21.1795 H   0  0  0  0  0  0  0  0  0  0  0  0
    4.8165    1.3040   19.1227 C   0  0  0  0  0  0  0  0  0  0  0  0
    3.8815    1.8370   19.2423 H   0  0  0  0  0  0  0  0  0  0  0  0
  1  2  1  0
  2  3  2  0
  3  4  1  0
  4  5  1  0
  4  6  2  0
  6  7  1  0
  7  8  2  0
  7  9  2  0
  7 10  1  0
 10 11  1  0
 11 12  2  0
 12 13  1  0
 12 14  1  0
 14 15  2  0
 15 16  1  0
 15 17  1  0
 17 18  1  0
 17 19  2  0
 19 20  1  0
 19 21  1  0
 21 22  1  0
 21 23  2  0
 23 24  1  0
 24 25  1  0
 10 26  1  0
 26 27  1  0
 26 28  1  0
 26 29  1  0
 10 30  1  0
 30 31  1  0
 30 32  1  0
 30 33  1  0
  6 34  1  0
 34 35  1  0
 34 36  2  0
 36 37  1  0
 36  2  1  0
 24 11  1  0
 23 14  1  0
M  END
>  <cnnaffinity>  (1) 
-4.91675

>  <filename>  (1) 
CC(C)(c1cc2ccccc2[nH]1)S(=O)(=O)c1cccnc1

$$$$
