
     RDKit          3D

 49 52  0  0  0  0  0  0  0  0999 V2000
   12.4821   -2.0116   22.2060 C   0  0  0  0  0  0  0  0  0  0  0  0
   11.1716   -1.2113   22.2985 C   0  0  0  0  0  0  0  0  0  0  0  0
   11.2372   -0.0966   21.2524 C   0  0  0  0  0  0  0  0  0  0  0  0
   11.5911   -0.5443   20.3244 H   0  0  0  0  0  0  0  0  0  0  0  0
   11.9464    0.6849   21.5552 H   0  0  0  0  0  0  0  0  0  0  0  0
   10.2551    0.3498   21.0687 H   0  0  0  0  0  0  0  0  0  0  0  0
   10.9859   -0.5228   23.6527 C   0  0  0  0  0  0  0  0  0  0  0  0
   10.6409   -1.4501   24.6632 O   0  0  0  0  0  0  0  0  0  0  0  0
   10.6970   -0.9908   25.5082 H   0  0  0  0  0  0  0  0  0  0  0  0
   10.1980    0.2412   23.5563 H   0  0  0  0  0  0  0  0  0  0  0  0
   11.9331    0.0018   23.8826 H   0  0  0  0  0  0  0  0  0  0  0  0
   10.0135   -2.2043   22.0137 C   0  0  0  0  0  0  0  0  0  0  0  0
    8.6882   -1.6149   21.8832 N   0  0  0  0  0  0  0  0  0  0  0  0
    8.3403   -1.1292   20.6745 N   0  0  0  0  0  0  0  0  0  0  0  0
    7.1447   -0.6083   20.8835 C   0  0  0  0  0  0  0  0  0  0  0  0
    6.4430    0.0931   19.8177 C   0  0  0  0  0  0  0  0  0  0  0  0
    5.2376    0.7842   19.9942 C   0  0  0  0  0  0  0  0  0  0  0  0
    4.6953    1.4367   18.8890 C   0  0  0  0  0  0  0  0  0  0  0  0
    5.3721    1.3751   17.6637 C   0  0  0  0  0  0  0  0  0  0  0  0
    6.5216    0.7096   17.4887 N   0  0  0  0  0  0  0  0  0  0  0  0
    7.0433    0.0939   18.5504 C   0  0  0  0  0  0  0  0  0  0  0  0
    7.9874   -0.4245   18.3913 H   0  0  0  0  0  0  0  0  0  0  0  0
    4.9748    1.8751   16.7826 H   0  0  0  0  0  0  0  0  0  0  0  0
    3.7759    2.0055   18.9572 H   0  0  0  0  0  0  0  0  0  0  0  0
    4.7544    0.8191   20.9741 H   0  0  0  0  0  0  0  0  0  0  0  0
    6.6871   -0.7553   22.1452 N   0  0  0  0  0  0  0  0  0  0  0  0
    7.6692   -1.4000   22.7575 C   0  0  0  0  0  0  0  0  0  0  0  0
    7.6940   -1.8610   24.1642 C   0  0  2  0  0  0  0  0  0  0  0  0
    7.6664   -3.3227   24.5610 C   0  0  0  0  0  0  0  0  0  0  0  0
    6.4798   -2.4381   24.8361 C   0  0  1  0  0  0  0  0  0  0  0  0
    6.1071   -2.0457   26.2335 C   0  0  0  0  0  0  0  0  0  0  0  0
    5.6680   -2.9976   27.1698 C   0  0  0  0  0  0  0  0  0  0  0  0
    5.2452   -2.5915   28.4379 C   0  0  0  0  0  0  0  0  0  0  0  0
    5.2326   -1.3103   28.8313 N   0  0  0  0  0  0  0  0  0  0  0  0
    5.6551   -0.3924   27.9541 C   0  0  0  0  0  0  0  0  0  0  0  0
    6.0894   -0.7180   26.6670 C   0  0  0  0  0  0  0  0  0  0  0  0
    6.4899    0.2669   25.8397 F   0  0  0  0  0  0  0  0  0  0  0  0
    5.6453    0.6500   28.2635 H   0  0  0  0  0  0  0  0  0  0  0  0
    4.9125   -3.3203   29.1736 H   0  0  0  0  0  0  0  0  0  0  0  0
    5.6627   -4.0490   26.9086 H   0  0  0  0  0  0  0  0  0  0  0  0
    5.6185   -2.5811   24.1845 H   0  0  0  0  0  0  0  0  0  0  0  0
    8.2915   -3.6122   25.4057 H   0  0  0  0  0  0  0  0  0  0  0  0
    7.5740   -4.0788   23.7797 H   0  0  0  0  0  0  0  0  0  0  0  0
    8.3203   -1.2329   24.7867 H   0  0  0  0  0  0  0  0  0  0  0  0
    9.9806   -2.9617   22.7983 H   0  0  0  0  0  0  0  0  0  0  0  0
   10.1851   -2.6900   21.0519 H   0  0  0  0  0  0  0  0  0  0  0  0
   12.6931   -2.2503   21.1599 H   0  0  0  0  0  0  0  0  0  0  0  0
   13.3367   -1.4319   22.5743 H   0  0  0  0  0  0  0  0  0  0  0  0
   12.4039   -2.9610   22.7441 H   0  0  0  0  0  0  0  0  0  0  0  0
  1  2  1  0
  2  3  1  0
  3  4  1  0
  3  5  1  0
  3  6  1  0
  2  7  1  0
  7  8  1  0
  8  9  1  0
  7 10  1  0
  7 11  1  0
  2 12  1  0
 12 13  1  0
 13 14  1  0
 14 15  2  0
 15 16  1  0
 16 17  2  0
 17 18  1  0
 18 19  2  0
 19 20  1  0
 20 21  2  0
 21 22  1  0
 19 23  1  0
 18 24  1  0
 17 25  1  0
 15 26  1  0
 26 27  2  0
 27 28  1  0
 28 29  1  0
 29 30  1  0
 30 31  1  0
 31 32  2  0
 32 33  1  0
 33 34  2  0
 34 35  1  0
 35 36  2  0
 36 37  1  0
 35 38  1  0
 33 39  1  0
 32 40  1  0
 30 41  1  6
 29 42  1  0
 29 43  1  0
 28 44  1  1
 12 45  1  0
 12 46  1  0
  1 47  1  0
  1 48  1  0
  1 49  1  0
 27 13  1  0
 30 28  1  0
 36 31  1  0
 21 16  1  0
M  END
>  <cnnaffinity>  (1) 
-6.46443

>  <filename>  (1) 
CC(C)(CO)Cn1nc(-c2cccnc2)nc1[C@@H]1C[C@H]1c1ccncc1F

$$$$
