
     RDKit          3D

 34 34  0  0  0  0  0  0  0  0999 V2000
    4.9382    1.7851   16.9891 H   0  0  0  0  0  0  0  0  0  0  0  0
    5.4103    1.2862   17.8338 C   0  0  0  0  0  0  0  0  0  0  0  0
    6.5692    0.6619   17.5881 N   0  0  0  0  0  0  0  0  0  0  0  0
    7.1729    0.0488   18.6195 C   0  0  0  0  0  0  0  0  0  0  0  0
    8.1130   -0.4415   18.3842 H   0  0  0  0  0  0  0  0  0  0  0  0
    6.6656    0.0055   19.9309 C   0  0  0  0  0  0  0  0  0  0  0  0
    7.3541   -0.7749   21.0475 C   0  0  1  0  0  0  0  0  0  0  0  0
    8.6857   -1.1723   20.6082 N   0  0  0  0  0  0  0  0  0  0  0  0
    9.2083   -0.3108   20.4544 H   0  0  0  0  0  0  0  0  0  0  0  0
    9.1484   -1.6306   21.3862 H   0  0  0  0  0  0  0  0  0  0  0  0
    7.4567    0.0820   22.3184 C   0  0  0  0  0  0  0  0  0  0  0  0
    7.9244    1.0442   22.0794 H   0  0  0  0  0  0  0  0  0  0  0  0
    6.4725    0.2904   22.7491 H   0  0  0  0  0  0  0  0  0  0  0  0
    8.0601   -0.4181   23.0800 H   0  0  0  0  0  0  0  0  0  0  0  0
    6.5500   -2.0690   21.2860 C   0  0  0  0  0  0  0  0  0  0  0  0
    5.5085   -1.8097   21.5083 H   0  0  0  0  0  0  0  0  0  0  0  0
    6.5458   -2.5962   20.3310 H   0  0  0  0  0  0  0  0  0  0  0  0
    7.1349   -2.9810   22.3273 C   0  0  0  0  0  0  0  0  0  0  0  0
    6.9429   -2.9565   23.5952 N   0  0  0  0  0  0  0  0  0  0  0  0
    6.0482   -2.1128   24.2098 N   0  0  0  0  0  0  0  0  0  0  0  0
    5.3743   -1.5188   23.7441 H   0  0  0  0  0  0  0  0  0  0  0  0
    5.8828   -1.9808   25.5563 C   0  0  0  0  0  0  0  0  0  0  0  0
    4.7182   -0.9334   26.1152 S   0  0  0  0  0  0  0  0  0  0  0  0
    6.6637   -2.6895   26.3639 N   0  0  0  0  0  0  0  0  0  0  0  0
    7.3450   -3.2987   25.9429 H   0  0  0  0  0  0  0  0  0  0  0  0
    6.5180   -2.5343   27.3448 H   0  0  0  0  0  0  0  0  0  0  0  0
    8.0779   -4.0771   21.8847 C   0  0  0  0  0  0  0  0  0  0  0  0
    8.2712   -4.0155   20.8123 H   0  0  0  0  0  0  0  0  0  0  0  0
    7.6529   -5.0645   22.1170 H   0  0  0  0  0  0  0  0  0  0  0  0
    9.0173   -3.9721   22.4417 H   0  0  0  0  0  0  0  0  0  0  0  0
    5.4423    0.6622   20.1554 C   0  0  0  0  0  0  0  0  0  0  0  0
    4.9778    0.6628   21.1432 H   0  0  0  0  0  0  0  0  0  0  0  0
    4.8097    1.3152   19.0971 C   0  0  0  0  0  0  0  0  0  0  0  0
    3.8730    1.8441   19.2430 H   0  0  0  0  0  0  0  0  0  0  0  0
  1  2  1  0
  2  3  2  0
  3  4  1  0
  4  5  1  0
  4  6  2  0
  6  7  1  0
  7  8  1  6
  8  9  1  0
  8 10  1  0
  7 11  1  0
 11 12  1  0
 11 13  1  0
 11 14  1  0
  7 15  1  0
 15 16  1  0
 15 17  1  0
 15 18  1  0
 18 19  2  3
 19 20  1  0
 20 21  1  0
 20 22  1  0
 22 23  2  0
 22 24  1  0
 24 25  1  0
 24 26  1  0
 18 27  1  0
 27 28  1  0
 27 29  1  0
 27 30  1  0
  6 31  1  0
 31 32  1  0
 31 33  2  0
 33 34  1  0
 33  2  1  0
M  END
>  <cnnaffinity>  (1) 
-4.21637

>  <filename>  (1) 
CC(C[C@@](C)(N)c1cccnc1)=NNC(N)=S

$$$$
