
     RDKit          3D

 46 50  0  0  0  0  0  0  0  0999 V2000
    8.3513    2.5732   25.3256 C   0  0  0  0  0  0  0  0  0  0  0  0
    8.9613    2.9914   23.9700 C   0  0  0  0  0  0  0  0  0  0  0  0
    8.3111    4.2016   23.3558 C   0  0  0  0  0  0  0  0  0  0  0  0
    7.1198    4.3821   22.7335 C   0  0  0  0  0  0  0  0  0  0  0  0
    7.0268    5.7787   22.4318 C   0  0  0  0  0  0  0  0  0  0  0  0
    8.1805    6.3350   22.8717 C   0  0  0  0  0  0  0  0  0  0  0  0
    8.9731    5.3859   23.4447 O   0  0  0  0  0  0  0  0  0  0  0  0
    8.5893    7.3360   22.8433 H   0  0  0  0  0  0  0  0  0  0  0  0
    6.2060    6.2982   21.9551 H   0  0  0  0  0  0  0  0  0  0  0  0
    6.4300    3.5803   22.4934 H   0  0  0  0  0  0  0  0  0  0  0  0
    8.9158    1.8842   22.9594 C   0  0  0  0  0  0  0  0  0  0  0  0
    7.8655    1.1444   22.6688 N   0  0  0  0  0  0  0  0  0  0  0  0
    8.3327    0.2984   21.7112 C   0  0  0  0  0  0  0  0  0  0  0  0
    7.4385   -0.6677   20.9865 C   0  0  0  0  0  0  0  0  0  0  0  0
    6.6551   -0.0276   19.8455 C   0  0  0  0  0  0  0  0  0  0  0  0
    5.4479    0.6363   20.1033 C   0  0  0  0  0  0  0  0  0  0  0  0
    4.8079    1.3084   19.0585 C   0  0  0  0  0  0  0  0  0  0  0  0
    5.4003    1.2994   17.7922 C   0  0  0  0  0  0  0  0  0  0  0  0
    6.5470    0.6581   17.5166 N   0  0  0  0  0  0  0  0  0  0  0  0
    7.1458    0.0171   18.5287 C   0  0  0  0  0  0  0  0  0  0  0  0
    8.0805   -0.4885   18.2852 H   0  0  0  0  0  0  0  0  0  0  0  0
    4.9338    1.8257   16.9603 H   0  0  0  0  0  0  0  0  0  0  0  0
    3.8774    1.8448   19.2144 H   0  0  0  0  0  0  0  0  0  0  0  0
    5.0291    0.6354   21.1131 H   0  0  0  0  0  0  0  0  0  0  0  0
    8.0468   -1.5002   20.6201 H   0  0  0  0  0  0  0  0  0  0  0  0
    6.7409   -1.0666   21.7279 H   0  0  0  0  0  0  0  0  0  0  0  0
    9.6156    0.4370   21.4256 N   0  0  0  0  0  0  0  0  0  0  0  0
    9.9758    1.5045   22.1961 N   0  0  0  0  0  0  0  0  0  0  0  0
   11.2822    2.0611   22.2278 C   0  0  0  0  0  0  0  0  0  0  0  0
   11.5321    3.4349   22.1654 C   0  0  0  0  0  0  0  0  0  0  0  0
   12.8299    3.9683   22.3360 C   0  0  0  0  0  0  0  0  0  0  0  0
   13.8953    3.1284   22.6386 C   0  0  0  0  0  0  0  0  0  0  0  0
   13.6708    1.7325   22.6763 C   0  0  0  0  0  0  0  0  0  0  0  0
   12.3882    1.2193   22.4198 C   0  0  0  0  0  0  0  0  0  0  0  0
   12.5441   -0.1469   22.3862 N   0  0  0  0  0  0  0  0  0  0  0  0
   13.8754   -0.3870   22.5803 C   0  0  0  0  0  0  0  0  0  0  0  0
   14.5800    0.6900   22.7691 N   0  0  0  0  0  0  0  0  0  0  0  0
   14.2843   -1.3919   22.5875 H   0  0  0  0  0  0  0  0  0  0  0  0
   11.8377   -0.7608   22.0070 H   0  0  0  0  0  0  0  0  0  0  0  0
   14.9028    3.5152   22.7294 H   0  0  0  0  0  0  0  0  0  0  0  0
   12.9819    5.0417   22.2444 H   0  0  0  0  0  0  0  0  0  0  0  0
   10.7065    4.1159   22.0589 H   0  0  0  0  0  0  0  0  0  0  0  0
   10.0073    3.2424   24.1621 H   0  0  0  0  0  0  0  0  0  0  0  0
    8.8638    1.6778   25.6890 H   0  0  0  0  0  0  0  0  0  0  0  0
    8.4823    3.3795   26.0527 H   0  0  0  0  0  0  0  0  0  0  0  0
    7.2874    2.3424   25.2274 H   0  0  0  0  0  0  0  0  0  0  0  0
  1  2  1  0
  2  3  1  0
  3  4  2  0
  4  5  1  0
  5  6  2  0
  6  7  1  0
  6  8  1  0
  5  9  1  0
  4 10  1  0
  2 11  1  0
 11 12  2  0
 12 13  1  0
 13 14  1  0
 14 15  1  0
 15 16  2  0
 16 17  1  0
 17 18  2  0
 18 19  1  0
 19 20  2  0
 20 21  1  0
 18 22  1  0
 17 23  1  0
 16 24  1  0
 14 25  1  0
 14 26  1  0
 13 27  2  0
 27 28  1  0
 28 29  1  0
 29 30  2  0
 30 31  1  0
 31 32  2  0
 32 33  1  0
 33 34  2  0
 34 35  1  0
 35 36  1  0
 36 37  2  0
 36 38  1  0
 35 39  1  0
 32 40  1  0
 31 41  1  0
 30 42  1  0
  2 43  1  0
  1 44  1  0
  1 45  1  0
  1 46  1  0
  7  3  1  0
 28 11  1  0
 34 29  1  0
 20 15  1  0
 37 33  1  0
M  END
>  <cnnaffinity>  (1) 
-6.7225

>  <filename>  (1) 
CC(c1ccco1)c1nc(Cc2cccnc2)nn1-c1cccc2nc[nH]c12

$$$$
