
     RDKit          3D

 50 51  0  0  0  0  0  0  0  0999 V2000
    8.2178   -2.5763   22.2306 C   0  0  0  0  0  0  0  0  0  0  0  0
    8.1912   -1.5231   21.1166 C   0  0  0  0  0  0  0  0  0  0  0  0
    9.5621   -0.8537   20.9938 C   0  0  0  0  0  0  0  0  0  0  0  0
    9.8124   -0.3187   21.9136 H   0  0  0  0  0  0  0  0  0  0  0  0
    9.6245   -0.1404   20.1623 H   0  0  0  0  0  0  0  0  0  0  0  0
   10.3375   -1.6132   20.8489 H   0  0  0  0  0  0  0  0  0  0  0  0
    6.9990   -0.5407   21.2900 C   0  0  0  0  0  0  0  0  0  0  0  0
    7.2126    0.3932   22.5118 C   0  0  0  0  0  0  0  0  0  0  0  0
    6.9593    0.0126   23.6388 O   0  0  0  0  0  0  0  0  0  0  0  0
    7.7107    1.6410   22.2651 N   0  0  0  0  0  0  0  0  0  0  0  0
    8.5642    2.3743   23.2000 C   0  0  0  0  0  0  0  0  0  0  0  0
    8.3034    3.8682   22.9255 C   0  0  0  0  0  0  0  0  0  0  0  0
    9.2921    4.8923   23.4872 C   0  0  0  0  0  0  0  0  0  0  0  0
    8.9945    6.1763   22.9787 O   0  0  0  0  0  0  0  0  0  0  0  0
    8.0323    6.2537   22.9387 H   0  0  0  0  0  0  0  0  0  0  0  0
   10.3151    4.6706   23.1653 H   0  0  0  0  0  0  0  0  0  0  0  0
    9.3064    4.8938   24.5888 H   0  0  0  0  0  0  0  0  0  0  0  0
    7.2937    4.0837   23.2967 H   0  0  0  0  0  0  0  0  0  0  0  0
    8.2629    4.0506   21.8404 H   0  0  0  0  0  0  0  0  0  0  0  0
   10.0366    1.9665   22.9952 C   0  0  0  0  0  0  0  0  0  0  0  0
   10.6273    2.3222   21.7682 C   0  0  0  0  0  0  0  0  0  0  0  0
   11.9898    2.1547   21.5282 C   0  0  0  0  0  0  0  0  0  0  0  0
   12.7890    1.5524   22.5011 C   0  0  0  0  0  0  0  0  0  0  0  0
   12.2088    1.0822   23.6826 C   0  0  0  0  0  0  0  0  0  0  0  0
   10.8376    1.2763   23.9382 C   0  0  0  0  0  0  0  0  0  0  0  0
   10.2211    0.7504   25.2339 C   0  0  0  0  0  0  0  0  0  0  0  0
    9.1984   -0.0887   25.0078 F   0  0  0  0  0  0  0  0  0  0  0  0
    9.7295    1.7623   25.9888 F   0  0  0  0  0  0  0  0  0  0  0  0
   11.1017    0.0909   26.0057 F   0  0  0  0  0  0  0  0  0  0  0  0
   12.8300    0.5643   24.4118 H   0  0  0  0  0  0  0  0  0  0  0  0
   13.8581    1.4438   22.3483 H   0  0  0  0  0  0  0  0  0  0  0  0
   12.4036    2.5287   20.5964 H   0  0  0  0  0  0  0  0  0  0  0  0
   10.0063    2.7487   20.9842 H   0  0  0  0  0  0  0  0  0  0  0  0
    8.2414    2.1178   24.2141 H   0  0  0  0  0  0  0  0  0  0  0  0
    7.8492    1.8526   21.2885 H   0  0  0  0  0  0  0  0  0  0  0  0
    6.5229    0.1234   19.9957 C   0  0  0  0  0  0  0  0  0  0  0  0
    5.3064    0.8178   20.0542 C   0  0  0  0  0  0  0  0  0  0  0  0
    4.8134    1.4302   18.9030 C   0  0  0  0  0  0  0  0  0  0  0  0
    5.5437    1.3171   17.7152 C   0  0  0  0  0  0  0  0  0  0  0  0
    6.6999    0.6467   17.6246 N   0  0  0  0  0  0  0  0  0  0  0  0
    7.1716    0.0720   18.7423 C   0  0  0  0  0  0  0  0  0  0  0  0
    8.1169   -0.4586   18.6212 H   0  0  0  0  0  0  0  0  0  0  0  0
    5.1764    1.7807   16.8015 H   0  0  0  0  0  0  0  0  0  0  0  0
    3.8977    2.0079   18.9273 H   0  0  0  0  0  0  0  0  0  0  0  0
    4.7699    0.8674   21.0053 H   0  0  0  0  0  0  0  0  0  0  0  0
    6.1486   -1.1403   21.6430 H   0  0  0  0  0  0  0  0  0  0  0  0
    7.9712   -2.0521   20.1849 H   0  0  0  0  0  0  0  0  0  0  0  0
    8.4234   -2.1351   23.2110 H   0  0  0  0  0  0  0  0  0  0  0  0
    8.9947   -3.3227   22.0263 H   0  0  0  0  0  0  0  0  0  0  0  0
    7.2574   -3.1013   22.2899 H   0  0  0  0  0  0  0  0  0  0  0  0
  1  2  1  0
  2  3  1  0
  3  4  1  0
  3  5  1  0
  3  6  1  0
  2  7  1  0
  7  8  1  0
  8  9  2  0
  8 10  1  0
 10 11  1  0
 11 12  1  0
 12 13  1  0
 13 14  1  0
 14 15  1  0
 13 16  1  0
 13 17  1  0
 12 18  1  0
 12 19  1  0
 11 20  1  0
 20 21  2  0
 21 22  1  0
 22 23  2  0
 23 24  1  0
 24 25  2  0
 25 26  1  0
 26 27  1  0
 26 28  1  0
 26 29  1  0
 24 30  1  0
 23 31  1  0
 22 32  1  0
 21 33  1  0
 11 34  1  0
 10 35  1  0
  7 36  1  0
 36 37  2  0
 37 38  1  0
 38 39  2  0
 39 40  1  0
 40 41  2  0
 41 42  1  0
 39 43  1  0
 38 44  1  0
 37 45  1  0
  7 46  1  0
  2 47  1  0
  1 48  1  0
  1 49  1  0
  1 50  1  0
 25 20  1  0
 41 36  1  0
M  END
>  <cnnaffinity>  (1) 
-5.37165

>  <filename>  (1) 
CC(C)C(C(=O)NC(CCO)c1ccccc1C(F)(F)F)c1cccnc1

$$$$
