
     RDKit          3D

 53 57  0  0  0  0  0  0  0  0999 V2000
   11.5733    2.4960   20.9653 C   0  0  0  0  0  0  0  0  0  0  0  0
   10.9717    2.3354   22.3554 C   0  0  0  0  0  0  0  0  0  0  0  0
   11.8926    1.5682   23.3628 C   0  0  0  0  0  0  0  0  0  0  0  0
   13.3733    2.0464   23.2432 C   0  0  0  0  0  0  0  0  0  0  0  0
   14.3687    0.9266   22.9269 C   0  0  0  0  0  0  0  0  0  0  0  0
   13.8877    0.0742   21.9091 O   0  0  0  0  0  0  0  0  0  0  0  0
   12.6944   -0.6316   22.2161 C   0  0  0  0  0  0  0  0  0  0  0  0
   11.7852    0.0307   23.2697 C   0  0  0  0  0  0  0  0  0  0  0  0
   12.0061   -0.3579   24.2697 H   0  0  0  0  0  0  0  0  0  0  0  0
   10.7584   -0.2658   23.0486 H   0  0  0  0  0  0  0  0  0  0  0  0
   12.9589   -1.6475   22.5486 H   0  0  0  0  0  0  0  0  0  0  0  0
   12.1661   -0.7391   21.2569 H   0  0  0  0  0  0  0  0  0  0  0  0
   14.6025    0.3512   23.8392 H   0  0  0  0  0  0  0  0  0  0  0  0
   15.3002    1.3539   22.5438 H   0  0  0  0  0  0  0  0  0  0  0  0
   13.4732    2.8125   22.4685 H   0  0  0  0  0  0  0  0  0  0  0  0
   13.7061    2.5243   24.1554 H   0  0  0  0  0  0  0  0  0  0  0  0
   11.5138    1.8438   24.3567 H   0  0  0  0  0  0  0  0  0  0  0  0
    9.6068    1.7424   22.2493 N   0  0  0  0  0  0  0  0  0  0  0  0
    9.3516    0.7806   21.3179 N   0  0  0  0  0  0  0  0  0  0  0  0
    8.1582    0.3404   21.6543 C   0  0  0  0  0  0  0  0  0  0  0  0
    7.4545   -0.7126   20.8528 C   0  0  0  0  0  0  0  0  0  0  0  0
    6.6803   -0.0964   19.7007 C   0  0  0  0  0  0  0  0  0  0  0  0
    5.5328    0.6596   19.9719 C   0  0  0  0  0  0  0  0  0  0  0  0
    4.9028    1.3234   18.9192 C   0  0  0  0  0  0  0  0  0  0  0  0
    5.4530    1.2202   17.6370 C   0  0  0  0  0  0  0  0  0  0  0  0
    6.5435    0.4910   17.3544 N   0  0  0  0  0  0  0  0  0  0  0  0
    7.1317   -0.1473   18.3741 C   0  0  0  0  0  0  0  0  0  0  0  0
    8.0232   -0.7294   18.1345 H   0  0  0  0  0  0  0  0  0  0  0  0
    5.0045    1.7517   16.7999 H   0  0  0  0  0  0  0  0  0  0  0  0
    4.0283    1.9422   19.0856 H   0  0  0  0  0  0  0  0  0  0  0  0
    5.1737    0.7398   21.0011 H   0  0  0  0  0  0  0  0  0  0  0  0
    8.2005   -1.4269   20.4926 H   0  0  0  0  0  0  0  0  0  0  0  0
    6.7742   -1.2387   21.5306 H   0  0  0  0  0  0  0  0  0  0  0  0
    7.6044    0.9494   22.7276 N   0  0  0  0  0  0  0  0  0  0  0  0
    8.5208    1.8445   23.0672 C   0  0  0  0  0  0  0  0  0  0  0  0
    8.4527    2.8027   24.1922 C   0  0  0  0  0  0  0  0  0  0  0  0
    8.2313    2.4425   25.5359 C   0  0  0  0  0  0  0  0  0  0  0  0
    8.4078    3.4006   26.5533 C   0  0  0  0  0  0  0  0  0  0  0  0
    8.7703    4.6805   26.3569 N   0  0  0  0  0  0  0  0  0  0  0  0
    8.8920    5.0041   25.0688 C   0  0  0  0  0  0  0  0  0  0  0  0
    8.7149    4.1656   23.9406 C   0  0  0  0  0  0  0  0  0  0  0  0
    8.8675    5.0044   22.7847 C   0  0  0  0  0  0  0  0  0  0  0  0
    9.1836    6.2615   23.2316 C   0  0  0  0  0  0  0  0  0  0  0  0
    9.2069    6.2469   24.6120 N   0  0  0  0  0  0  0  0  0  0  0  0
    9.3829    6.9788   25.2745 H   0  0  0  0  0  0  0  0  0  0  0  0
    9.3565    7.1654   22.6615 H   0  0  0  0  0  0  0  0  0  0  0  0
    8.7230    4.7057   21.7561 H   0  0  0  0  0  0  0  0  0  0  0  0
    8.2462    3.0943   27.5836 H   0  0  0  0  0  0  0  0  0  0  0  0
    7.9414    1.4301   25.8065 H   0  0  0  0  0  0  0  0  0  0  0  0
   10.8366    3.3280   22.7935 H   0  0  0  0  0  0  0  0  0  0  0  0
   12.0681    1.5757   20.6495 H   0  0  0  0  0  0  0  0  0  0  0  0
   10.7722    2.7135   20.2786 H   0  0  0  0  0  0  0  0  0  0  0  0
   12.2911    3.3204   20.9228 H   0  0  0  0  0  0  0  0  0  0  0  0
  1  2  1  0
  2  3  1  0
  3  4  1  0
  4  5  1  0
  5  6  1  0
  6  7  1  0
  7  8  1  0
  8  9  1  0
  8 10  1  0
  7 11  1  0
  7 12  1  0
  5 13  1  0
  5 14  1  0
  4 15  1  0
  4 16  1  0
  3 17  1  0
  2 18  1  0
 18 19  1  0
 19 20  2  0
 20 21  1  0
 21 22  1  0
 22 23  2  0
 23 24  1  0
 24 25  2  0
 25 26  1  0
 26 27  2  0
 27 28  1  0
 25 29  1  0
 24 30  1  0
 23 31  1  0
 21 32  1  0
 21 33  1  0
 20 34  1  0
 34 35  2  0
 35 36  1  0
 36 37  2  0
 37 38  1  0
 38 39  2  0
 39 40  1  0
 40 41  2  0
 41 42  1  0
 42 43  2  0
 43 44  1  0
 44 45  1  0
 43 46  1  0
 42 47  1  0
 38 48  1  0
 37 49  1  0
  2 50  1  0
  1 51  1  0
  1 52  1  0
  1 53  1  0
  8  3  1  0
 35 18  1  0
 41 36  1  0
 27 22  1  0
 44 40  1  0
M  END
>  <cnnaffinity>  (1) 
-6.09025

>  <filename>  (1) 
CC(C1CCOCC1)n1nc(Cc2cccnc2)nc1-c1ccnc2[nH]ccc12

$$$$
