
     RDKit          3D

 48 51  0  0  0  0  0  0  0  0999 V2000
   12.4812   -1.7739   22.0186 C   0  0  0  0  0  0  0  0  0  0  0  0
   11.0913   -1.1750   22.2845 C   0  0  0  0  0  0  0  0  0  0  0  0
   10.9477   -0.4808   23.6485 C   0  0  0  0  0  0  0  0  0  0  0  0
   10.1135    0.2282   23.6373 H   0  0  0  0  0  0  0  0  0  0  0  0
   10.7640   -1.1842   24.4701 H   0  0  0  0  0  0  0  0  0  0  0  0
   11.8517    0.0828   23.8988 H   0  0  0  0  0  0  0  0  0  0  0  0
   10.0090   -2.2538   22.0757 C   0  0  0  0  0  0  0  0  0  0  0  0
    8.6718   -1.6900   21.9512 N   0  0  0  0  0  0  0  0  0  0  0  0
    8.3284   -1.2190   20.7338 N   0  0  0  0  0  0  0  0  0  0  0  0
    7.2175   -0.5462   20.9632 C   0  0  0  0  0  0  0  0  0  0  0  0
    6.5088    0.1206   19.8819 C   0  0  0  0  0  0  0  0  0  0  0  0
    5.2884    0.7891   20.0493 C   0  0  0  0  0  0  0  0  0  0  0  0
    4.7329    1.4064   18.9310 C   0  0  0  0  0  0  0  0  0  0  0  0
    5.4134    1.3380   17.7096 C   0  0  0  0  0  0  0  0  0  0  0  0
    6.5703    0.6831   17.5407 N   0  0  0  0  0  0  0  0  0  0  0  0
    7.0992    0.0839   18.6091 C   0  0  0  0  0  0  0  0  0  0  0  0
    8.0327   -0.4542   18.4494 H   0  0  0  0  0  0  0  0  0  0  0  0
    5.0106    1.8246   16.8258 H   0  0  0  0  0  0  0  0  0  0  0  0
    3.7942    1.9423   18.9897 H   0  0  0  0  0  0  0  0  0  0  0  0
    4.8007    0.8217   21.0263 H   0  0  0  0  0  0  0  0  0  0  0  0
    6.8423   -0.5196   22.2631 N   0  0  0  0  0  0  0  0  0  0  0  0
    7.7597   -1.2632   22.8585 C   0  0  0  0  0  0  0  0  0  0  0  0
    7.7204   -1.6535   24.3193 C   0  0  0  0  0  0  0  0  0  0  0  0
    6.6157   -2.5841   24.6572 N   0  0  0  0  0  0  0  0  0  0  0  0
    5.3924   -2.0674   25.0627 C   0  0  0  0  0  0  0  0  0  0  0  0
    4.3101   -2.8492   25.2491 C   0  0  0  0  0  0  0  0  0  0  0  0
    4.3800   -4.2662   24.9878 C   0  0  0  0  0  0  0  0  0  0  0  0
    3.2993   -5.1353   25.2815 C   0  0  0  0  0  0  0  0  0  0  0  0
    3.3874   -6.4839   24.9949 C   0  0  0  0  0  0  0  0  0  0  0  0
    4.5341   -6.9950   24.3397 C   0  0  0  0  0  0  0  0  0  0  0  0
    5.5991   -6.1586   24.0468 C   0  0  0  0  0  0  0  0  0  0  0  0
    5.5628   -4.8019   24.4318 C   0  0  0  0  0  0  0  0  0  0  0  0
    6.7637   -3.9394   24.2834 C   0  0  0  0  0  0  0  0  0  0  0  0
    7.8374   -4.3375   23.8433 O   0  0  0  0  0  0  0  0  0  0  0  0
    6.4795   -6.5319   23.5259 H   0  0  0  0  0  0  0  0  0  0  0  0
    4.5749   -8.0482   24.0705 H   0  0  0  0  0  0  0  0  0  0  0  0
    2.5730   -7.1501   25.2736 H   0  0  0  0  0  0  0  0  0  0  0  0
    2.4092   -4.7144   25.7423 H   0  0  0  0  0  0  0  0  0  0  0  0
    3.3805   -2.4178   25.5970 H   0  0  0  0  0  0  0  0  0  0  0  0
    5.3684   -0.9877   25.2089 H   0  0  0  0  0  0  0  0  0  0  0  0
    8.6605   -2.1216   24.6150 H   0  0  0  0  0  0  0  0  0  0  0  0
    7.5982   -0.7410   24.9149 H   0  0  0  0  0  0  0  0  0  0  0  0
   10.0077   -3.0173   22.8589 H   0  0  0  0  0  0  0  0  0  0  0  0
   10.1690   -2.7527   21.1190 H   0  0  0  0  0  0  0  0  0  0  0  0
   10.9047   -0.4205   21.5067 H   0  0  0  0  0  0  0  0  0  0  0  0
   13.2886   -1.1130   22.3526 H   0  0  0  0  0  0  0  0  0  0  0  0
   12.6423   -1.9227   20.9424 H   0  0  0  0  0  0  0  0  0  0  0  0
   12.6058   -2.7396   22.5257 H   0  0  0  0  0  0  0  0  0  0  0  0
  1  2  1  0
  2  3  1  0
  3  4  1  0
  3  5  1  0
  3  6  1  0
  2  7  1  0
  7  8  1  0
  8  9  1  0
  9 10  2  0
 10 11  1  0
 11 12  2  0
 12 13  1  0
 13 14  2  0
 14 15  1  0
 15 16  2  0
 16 17  1  0
 14 18  1  0
 13 19  1  0
 12 20  1  0
 10 21  1  0
 21 22  2  0
 22 23  1  0
 23 24  1  0
 24 25  1  0
 25 26  2  0
 26 27  1  0
 27 28  2  0
 28 29  1  0
 29 30  2  0
 30 31  1  0
 31 32  2  0
 32 33  1  0
 33 34  2  0
 31 35  1  0
 30 36  1  0
 29 37  1  0
 28 38  1  0
 26 39  1  0
 25 40  1  0
 23 41  1  0
 23 42  1  0
  7 43  1  0
  7 44  1  0
  2 45  1  0
  1 46  1  0
  1 47  1  0
  1 48  1  0
 22  8  1  0
 33 24  1  0
 16 11  1  0
 32 27  1  0
M  END
>  <cnnaffinity>  (1) 
-6.20313

>  <filename>  (1) 
CC(C)Cn1nc(-c2cccnc2)nc1Cn1ccc2ccccc2c1=O

$$$$
