
     RDKit          3D

 43 46  0  0  0  0  0  0  0  0999 V2000
    6.0761   -2.7547   26.2852 C   0  0  0  0  0  0  0  0  0  0  0  0
    6.0986   -2.4479   24.7780 C   0  0  0  0  0  0  0  0  0  0  0  0
    7.3443   -1.5815   24.4080 C   0  0  0  0  0  0  0  0  0  0  0  0
    7.5419   -1.3239   22.9359 C   0  0  0  0  0  0  0  0  0  0  0  0
    6.6601   -0.6843   22.1864 N   0  0  0  0  0  0  0  0  0  0  0  0
    7.2572   -0.6049   20.9771 C   0  0  0  0  0  0  0  0  0  0  0  0
    6.6239    0.0541   19.8366 C   0  0  0  0  0  0  0  0  0  0  0  0
    5.4109    0.7595   19.9301 C   0  0  0  0  0  0  0  0  0  0  0  0
    4.9147    1.3733   18.7807 C   0  0  0  0  0  0  0  0  0  0  0  0
    5.6341    1.2530   17.5863 C   0  0  0  0  0  0  0  0  0  0  0  0
    6.7817    0.5667   17.4858 N   0  0  0  0  0  0  0  0  0  0  0  0
    7.2623   -0.0102   18.5912 C   0  0  0  0  0  0  0  0  0  0  0  0
    8.2002   -0.5527   18.4792 H   0  0  0  0  0  0  0  0  0  0  0  0
    5.2705    1.7208   16.6705 H   0  0  0  0  0  0  0  0  0  0  0  0
    3.9962    1.9531   18.7946 H   0  0  0  0  0  0  0  0  0  0  0  0
    4.8768    0.8344   20.8793 H   0  0  0  0  0  0  0  0  0  0  0  0
    8.4524   -1.1652   20.9223 N   0  0  0  0  0  0  0  0  0  0  0  0
    8.6318   -1.6271   22.1786 N   0  0  0  0  0  0  0  0  0  0  0  0
    9.8922   -2.2894   22.4793 C   0  0  0  0  0  0  0  0  0  0  0  0
   10.5539   -1.6492   23.0723 H   0  0  0  0  0  0  0  0  0  0  0  0
   10.3748   -2.5006   21.5237 H   0  0  0  0  0  0  0  0  0  0  0  0
    9.7130   -3.2312   23.0034 H   0  0  0  0  0  0  0  0  0  0  0  0
    7.2458   -0.6106   24.9036 H   0  0  0  0  0  0  0  0  0  0  0  0
    8.2382   -2.0542   24.8214 H   0  0  0  0  0  0  0  0  0  0  0  0
    6.0510   -3.6849   23.9244 C   0  0  0  0  0  0  0  0  0  0  0  0
    5.1757   -3.9863   22.9272 C   0  0  0  0  0  0  0  0  0  0  0  0
    5.5839   -5.1360   22.2800 N   0  0  0  0  0  0  0  0  0  0  0  0
    6.7534   -5.5797   22.8437 C   0  0  0  0  0  0  0  0  0  0  0  0
    7.5822   -6.6717   22.5214 C   0  0  0  0  0  0  0  0  0  0  0  0
    8.7788   -6.7964   23.2144 C   0  0  0  0  0  0  0  0  0  0  0  0
    9.1248   -5.9126   24.2737 C   0  0  0  0  0  0  0  0  0  0  0  0
    8.2821   -4.8699   24.6118 C   0  0  0  0  0  0  0  0  0  0  0  0
    7.0840   -4.6842   23.8851 C   0  0  0  0  0  0  0  0  0  0  0  0
    8.5566   -4.1766   25.4037 H   0  0  0  0  0  0  0  0  0  0  0  0
   10.0446   -6.0530   24.8396 H   0  0  0  0  0  0  0  0  0  0  0  0
    9.4605   -7.6032   22.9599 H   0  0  0  0  0  0  0  0  0  0  0  0
    7.2940   -7.4003   21.7711 H   0  0  0  0  0  0  0  0  0  0  0  0
    5.0983   -5.6043   21.5394 H   0  0  0  0  0  0  0  0  0  0  0  0
    4.3273   -3.4109   22.5753 H   0  0  0  0  0  0  0  0  0  0  0  0
    5.2016   -1.8564   24.5760 H   0  0  0  0  0  0  0  0  0  0  0  0
    5.1527   -3.2710   26.5711 H   0  0  0  0  0  0  0  0  0  0  0  0
    6.1437   -1.8281   26.8678 H   0  0  0  0  0  0  0  0  0  0  0  0
    6.9043   -3.4025   26.5888 H   0  0  0  0  0  0  0  0  0  0  0  0
  1  2  1  0
  2  3  1  0
  3  4  1  0
  4  5  2  0
  5  6  1  0
  6  7  1  0
  7  8  2  0
  8  9  1  0
  9 10  2  0
 10 11  1  0
 11 12  2  0
 12 13  1  0
 10 14  1  0
  9 15  1  0
  8 16  1  0
  6 17  2  0
 17 18  1  0
 18 19  1  0
 19 20  1  0
 19 21  1  0
 19 22  1  0
  3 23  1  0
  3 24  1  0
  2 25  1  0
 25 26  2  0
 26 27  1  0
 27 28  1  0
 28 29  2  0
 29 30  1  0
 30 31  2  0
 31 32  1  0
 32 33  2  0
 32 34  1  0
 31 35  1  0
 30 36  1  0
 29 37  1  0
 27 38  1  0
 26 39  1  0
  2 40  1  0
  1 41  1  0
  1 42  1  0
  1 43  1  0
 18  4  1  0
 33 25  1  0
 12  7  1  0
 33 28  1  0
M  END
>  <cnnaffinity>  (1) 
-5.93364

>  <filename>  (1) 
CC(Cc1nc(-c2cccnc2)nn1C)c1c[nH]c2ccccc12

$$$$
