
     RDKit          3D

 38 39  0  0  0  0  0  0  0  0999 V2000
    7.8862   -2.5389   25.2520 C   0  0  0  0  0  0  0  0  0  0  0  0
    7.0242   -2.7220   24.0078 C   0  0  0  0  0  0  0  0  0  0  0  0
    6.8839   -4.1914   23.5814 C   0  0  0  0  0  0  0  0  0  0  0  0
    6.1059   -5.0841   24.5600 C   0  0  0  0  0  0  0  0  0  0  0  0
    4.6782   -4.6380   24.7805 C   0  0  0  0  0  0  0  0  0  0  0  0
    3.6985   -4.8554   23.7990 C   0  0  0  0  0  0  0  0  0  0  0  0
    2.3911   -4.4293   24.0182 C   0  0  0  0  0  0  0  0  0  0  0  0
    2.1140   -3.7740   25.2174 C   0  0  0  0  0  0  0  0  0  0  0  0
    3.1485   -3.5962   26.1378 C   0  0  0  0  0  0  0  0  0  0  0  0
    4.4052   -4.0093   25.9356 N   0  0  0  0  0  0  0  0  0  0  0  0
    2.9534   -3.1026   27.0874 H   0  0  0  0  0  0  0  0  0  0  0  0
    1.1263   -3.3963   25.4400 H   0  0  0  0  0  0  0  0  0  0  0  0
    1.6117   -4.5951   23.2740 H   0  0  0  0  0  0  0  0  0  0  0  0
    3.9767   -5.3541   22.8798 H   0  0  0  0  0  0  0  0  0  0  0  0
    6.6020   -5.1126   25.5353 H   0  0  0  0  0  0  0  0  0  0  0  0
    6.1091   -6.1068   24.1660 H   0  0  0  0  0  0  0  0  0  0  0  0
    7.8905   -4.5972   23.4177 H   0  0  0  0  0  0  0  0  0  0  0  0
    6.3894   -4.1900   22.6027 H   0  0  0  0  0  0  0  0  0  0  0  0
    7.5675   -1.9826   22.8681 N   0  0  0  0  0  0  0  0  0  0  0  0
    6.7768   -1.6777   21.7919 C   0  0  0  0  0  0  0  0  0  0  0  0
    5.7107   -2.2068   21.5371 O   0  0  0  0  0  0  0  0  0  0  0  0
    7.3765   -0.6923   21.0202 N   0  0  0  0  0  0  0  0  0  0  0  0
    6.7280   -0.0263   19.9464 C   0  0  0  0  0  0  0  0  0  0  0  0
    5.4980    0.5960   20.1836 C   0  0  0  0  0  0  0  0  0  0  0  0
    4.8745    1.2655   19.1283 C   0  0  0  0  0  0  0  0  0  0  0  0
    5.4785    1.2615   17.8665 C   0  0  0  0  0  0  0  0  0  0  0  0
    6.6525    0.6579   17.6203 N   0  0  0  0  0  0  0  0  0  0  0  0
    7.2634    0.0383   18.6402 C   0  0  0  0  0  0  0  0  0  0  0  0
    8.2138   -0.4469   18.4143 H   0  0  0  0  0  0  0  0  0  0  0  0
    4.9993    1.7551   17.0228 H   0  0  0  0  0  0  0  0  0  0  0  0
    3.9293    1.7709   19.2744 H   0  0  0  0  0  0  0  0  0  0  0  0
    5.0785    0.5418   21.1886 H   0  0  0  0  0  0  0  0  0  0  0  0
    8.3759   -0.6468   21.1079 H   0  0  0  0  0  0  0  0  0  0  0  0
    8.3988   -1.4331   22.9734 H   0  0  0  0  0  0  0  0  0  0  0  0
    6.0207   -2.3313   24.2419 H   0  0  0  0  0  0  0  0  0  0  0  0
    8.8839   -2.9769   25.1176 H   0  0  0  0  0  0  0  0  0  0  0  0
    7.4092   -3.0391   26.1051 H   0  0  0  0  0  0  0  0  0  0  0  0
    7.9942   -1.4826   25.5240 H   0  0  0  0  0  0  0  0  0  0  0  0
  1  2  1  0
  2  3  1  0
  3  4  1  0
  4  5  1  0
  5  6  2  0
  6  7  1  0
  7  8  2  0
  8  9  1  0
  9 10  2  0
  9 11  1  0
  8 12  1  0
  7 13  1  0
  6 14  1  0
  4 15  1  0
  4 16  1  0
  3 17  1  0
  3 18  1  0
  2 19  1  0
 19 20  1  0
 20 21  2  0
 20 22  1  0
 22 23  1  0
 23 24  2  0
 24 25  1  0
 25 26  2  0
 26 27  1  0
 27 28  2  0
 28 29  1  0
 26 30  1  0
 25 31  1  0
 24 32  1  0
 22 33  1  0
 19 34  1  0
  2 35  1  0
  1 36  1  0
  1 37  1  0
  1 38  1  0
 10  5  1  0
 28 23  1  0
M  END
>  <cnnaffinity>  (1) 
-4.92682

>  <filename>  (1) 
CC(CCc1ccccn1)NC(=O)Nc1cccnc1

$$$$
