
     RDKit          3D

 41 42  0  0  0  0  0  0  0  0999 V2000
    9.5976    0.5908   20.9984 C   0  0  0  0  0  0  0  0  0  0  0  0
    8.3724    0.2043   21.8172 C   0  0  0  0  0  0  0  0  0  0  0  0
    7.6366    1.4350   22.3651 C   0  0  0  0  0  0  0  0  0  0  0  0
    7.3099    2.1126   21.5647 H   0  0  0  0  0  0  0  0  0  0  0  0
    6.7522    1.1430   22.9415 H   0  0  0  0  0  0  0  0  0  0  0  0
    8.2925    2.0105   23.0280 H   0  0  0  0  0  0  0  0  0  0  0  0
    7.4405   -0.7514   21.0118 C   0  0  0  0  0  0  0  0  0  0  0  0
    6.5609   -1.5798   21.9974 C   0  0  0  0  0  0  0  0  0  0  0  0
    6.5304   -1.3817   23.1981 O   0  0  0  0  0  0  0  0  0  0  0  0
    5.8754   -2.6012   21.3746 N   0  0  0  0  0  0  0  0  0  0  0  0
    5.1625   -3.6588   22.0205 N   0  0  0  0  0  0  0  0  0  0  0  0
    5.4416   -3.9958   23.3569 C   0  0  0  0  0  0  0  0  0  0  0  0
    4.3294   -3.9057   24.0822 N   0  0  0  0  0  0  0  0  0  0  0  0
    4.4291   -3.9832   25.4096 C   0  0  0  0  0  0  0  0  0  0  0  0
    5.6309   -4.2571   26.0564 C   0  0  0  0  0  0  0  0  0  0  0  0
    6.7718   -4.4901   25.2943 C   0  0  0  0  0  0  0  0  0  0  0  0
    6.6732   -4.4034   23.9026 C   0  0  0  0  0  0  0  0  0  0  0  0
    7.8162   -4.6581   22.9823 C   0  0  0  0  0  0  0  0  0  0  0  0
    7.4658   -5.2590   21.8374 F   0  0  0  0  0  0  0  0  0  0  0  0
    8.4559   -3.5136   22.6393 F   0  0  0  0  0  0  0  0  0  0  0  0
    8.7373   -5.4524   23.5651 F   0  0  0  0  0  0  0  0  0  0  0  0
    7.7119   -4.7549   25.7853 H   0  0  0  0  0  0  0  0  0  0  0  0
    5.6679   -4.2899   27.1366 H   0  0  0  0  0  0  0  0  0  0  0  0
    3.5151   -3.8098   25.9721 H   0  0  0  0  0  0  0  0  0  0  0  0
    4.1677   -3.4423   22.1740 H   0  0  0  0  0  0  0  0  0  0  0  0
    6.1557   -2.8070   20.4226 H   0  0  0  0  0  0  0  0  0  0  0  0
    6.6628   -0.0541   19.8770 C   0  0  0  0  0  0  0  0  0  0  0  0
    5.4472    0.6027   20.1164 C   0  0  0  0  0  0  0  0  0  0  0  0
    4.8171    1.2911   19.0714 C   0  0  0  0  0  0  0  0  0  0  0  0
    5.4211    1.3027   17.8109 C   0  0  0  0  0  0  0  0  0  0  0  0
    6.5746    0.6725   17.5471 N   0  0  0  0  0  0  0  0  0  0  0  0
    7.1702    0.0250   18.5590 C   0  0  0  0  0  0  0  0  0  0  0  0
    8.1142   -0.4574   18.3074 H   0  0  0  0  0  0  0  0  0  0  0  0
    4.9529    1.8258   16.9773 H   0  0  0  0  0  0  0  0  0  0  0  0
    3.8897    1.8290   19.2258 H   0  0  0  0  0  0  0  0  0  0  0  0
    5.0139    0.5925   21.1196 H   0  0  0  0  0  0  0  0  0  0  0  0
    8.0820   -1.5113   20.5370 H   0  0  0  0  0  0  0  0  0  0  0  0
    8.7211   -0.3758   22.6819 H   0  0  0  0  0  0  0  0  0  0  0  0
   10.1753   -0.2958   20.7110 H   0  0  0  0  0  0  0  0  0  0  0  0
    9.3009    1.1124   20.0879 H   0  0  0  0  0  0  0  0  0  0  0  0
   10.2557    1.2502   21.5755 H   0  0  0  0  0  0  0  0  0  0  0  0
  1  2  1  0
  2  3  1  0
  3  4  1  0
  3  5  1  0
  3  6  1  0
  2  7  1  0
  7  8  1  0
  8  9  2  0
  8 10  1  0
 10 11  1  0
 11 12  1  0
 12 13  2  0
 13 14  1  0
 14 15  2  0
 15 16  1  0
 16 17  2  0
 17 18  1  0
 18 19  1  0
 18 20  1  0
 18 21  1  0
 16 22  1  0
 15 23  1  0
 14 24  1  0
 11 25  1  0
 10 26  1  0
  7 27  1  0
 27 28  2  0
 28 29  1  0
 29 30  2  0
 30 31  1  0
 31 32  2  0
 32 33  1  0
 30 34  1  0
 29 35  1  0
 28 36  1  0
  7 37  1  0
  2 38  1  0
  1 39  1  0
  1 40  1  0
  1 41  1  0
 17 12  1  0
 32 27  1  0
M  END
>  <cnnaffinity>  (1) 
-5.61884

>  <filename>  (1) 
CC(C)C(C(=O)NNc1ncccc1C(F)(F)F)c1cccnc1

$$$$
