
     RDKit          3D

 33 34  0  0  0  0  0  0  0  0999 V2000
    5.0507    1.7518   17.0143 H   0  0  0  0  0  0  0  0  0  0  0  0
    5.4814    1.2495   17.8794 C   0  0  0  0  0  0  0  0  0  0  0  0
    6.6236    0.5797   17.6604 N   0  0  0  0  0  0  0  0  0  0  0  0
    7.1975   -0.0559   18.6887 C   0  0  0  0  0  0  0  0  0  0  0  0
    8.1330   -0.5782   18.4816 H   0  0  0  0  0  0  0  0  0  0  0  0
    6.6458   -0.0680   19.9865 C   0  0  0  0  0  0  0  0  0  0  0  0
    7.2784   -0.7765   21.0569 N   0  0  0  0  0  0  0  0  0  0  0  0
    6.6869   -1.8199   21.7904 C   0  0  0  0  0  0  0  0  0  0  0  0
    5.6422   -2.0491   21.6685 H   0  0  0  0  0  0  0  0  0  0  0  0
    7.6134   -2.2664   22.6717 C   0  0  0  0  0  0  0  0  0  0  0  0
    7.7693   -3.2516   23.6246 N   0  0  0  0  0  0  0  0  0  0  0  0
    8.4094   -2.9168   24.3297 H   0  0  0  0  0  0  0  0  0  0  0  0
    6.6357   -3.9478   24.2442 C   0  0  0  0  0  0  0  0  0  0  0  0
    5.9794   -4.8153   23.1631 C   0  0  0  0  0  0  0  0  0  0  0  0
    5.0931   -5.3397   23.5371 H   0  0  0  0  0  0  0  0  0  0  0  0
    5.6667   -4.2044   22.3098 H   0  0  0  0  0  0  0  0  0  0  0  0
    6.6949   -5.5659   22.8035 H   0  0  0  0  0  0  0  0  0  0  0  0
    5.6634   -2.9298   24.8609 C   0  0  0  0  0  0  0  0  0  0  0  0
    5.4823   -2.1225   24.1524 H   0  0  0  0  0  0  0  0  0  0  0  0
    6.0928   -2.4697   25.7624 H   0  0  0  0  0  0  0  0  0  0  0  0
    4.7130   -3.4028   25.1294 H   0  0  0  0  0  0  0  0  0  0  0  0
    7.2214   -4.8165   25.3624 C   0  0  0  0  0  0  0  0  0  0  0  0
    7.6752   -4.1774   26.1327 H   0  0  0  0  0  0  0  0  0  0  0  0
    6.4443   -5.4285   25.8385 H   0  0  0  0  0  0  0  0  0  0  0  0
    8.0013   -5.4841   24.9801 H   0  0  0  0  0  0  0  0  0  0  0  0
    8.7180   -1.4713   22.4975 N   0  0  0  0  0  0  0  0  0  0  0  0
    9.5918   -1.5514   22.9814 H   0  0  0  0  0  0  0  0  0  0  0  0
    8.5633   -0.5618   21.5092 C   0  0  0  0  0  0  0  0  0  0  0  0
    9.7297    0.5073   20.9933 S   0  0  0  0  0  0  0  0  0  0  0  0
    5.4511    0.6295   20.2046 C   0  0  0  0  0  0  0  0  0  0  0  0
    5.0020    0.6367   21.1979 H   0  0  0  0  0  0  0  0  0  0  0  0
    4.8592    1.3052   19.1303 C   0  0  0  0  0  0  0  0  0  0  0  0
    3.9379    1.8680   19.2431 H   0  0  0  0  0  0  0  0  0  0  0  0
  1  2  1  0
  2  3  2  0
  3  4  1  0
  4  5  1  0
  4  6  2  0
  6  7  1  0
  7  8  1  0
  8  9  1  0
  8 10  2  0
 10 11  1  0
 11 12  1  0
 11 13  1  0
 13 14  1  0
 14 15  1  0
 14 16  1  0
 14 17  1  0
 13 18  1  0
 18 19  1  0
 18 20  1  0
 18 21  1  0
 13 22  1  0
 22 23  1  0
 22 24  1  0
 22 25  1  0
 10 26  1  0
 26 27  1  0
 26 28  1  0
 28 29  2  0
  6 30  1  0
 30 31  1  0
 30 32  2  0
 32 33  1  0
 32  2  1  0
 28  7  1  0
M  END
>  <cnnaffinity>  (1) 
-5.0317

>  <filename>  (1) 
CC(C)(C)Nc1cn(-c2cccnc2)c(=S)[nH]1

$$$$
