
     RDKit          3D

 39 40  0  0  0  0  0  0  0  0999 V2000
   10.7668   -0.7803   22.3046 C   0  0  0  0  0  0  0  0  0  0  0  0
    9.3424   -0.3488   22.6403 C   0  0  0  0  0  0  0  0  0  0  0  0
    9.2743    0.9834   23.4228 C   0  0  0  0  0  0  0  0  0  0  0  0
    7.8459    1.4164   23.7277 C   0  0  0  0  0  0  0  0  0  0  0  0
    7.0562    0.6754   24.6335 C   0  0  0  0  0  0  0  0  0  0  0  0
    5.6981    0.9457   24.8223 C   0  0  0  0  0  0  0  0  0  0  0  0
    5.0916    1.9882   24.1141 C   0  0  0  0  0  0  0  0  0  0  0  0
    5.8425    2.7479   23.2162 C   0  0  0  0  0  0  0  0  0  0  0  0
    7.1984    2.4572   23.0278 C   0  0  0  0  0  0  0  0  0  0  0  0
    8.0534    3.4026   21.8357 Cl  0  0  0  0  0  0  0  0  0  0  0  0
    5.3968    3.5477   22.6306 H   0  0  0  0  0  0  0  0  0  0  0  0
    4.0399    2.2211   24.2606 H   0  0  0  0  0  0  0  0  0  0  0  0
    5.1074    0.3423   25.5099 H   0  0  0  0  0  0  0  0  0  0  0  0
    7.5110   -0.1526   25.1749 H   0  0  0  0  0  0  0  0  0  0  0  0
    9.7728    1.7416   22.8125 H   0  0  0  0  0  0  0  0  0  0  0  0
    9.8466    0.8973   24.3491 H   0  0  0  0  0  0  0  0  0  0  0  0
    8.6390   -0.1689   21.3445 N   0  0  0  0  0  4  0  0  0  0  0  0
    7.2026   -0.5208   21.2681 C   0  0  0  0  0  0  0  0  0  0  0  0
    7.0832   -2.0375   21.1461 C   0  0  0  0  0  0  0  0  0  0  0  0
    7.6149   -2.3582   20.2539 H   0  0  0  0  0  0  0  0  0  0  0  0
    7.5545   -2.5103   22.0119 H   0  0  0  0  0  0  0  0  0  0  0  0
    6.0516   -2.3821   21.0931 H   0  0  0  0  0  0  0  0  0  0  0  0
    6.5986    0.2297   20.1104 C   0  0  0  0  0  0  0  0  0  0  0  0
    5.3402    0.8543   20.1787 C   0  0  0  0  0  0  0  0  0  0  0  0
    4.7943    1.4061   19.0163 C   0  0  0  0  0  0  0  0  0  0  0  0
    5.5335    1.3221   17.8319 C   0  0  0  0  0  0  0  0  0  0  0  0
    6.7331    0.7357   17.7442 N   0  0  0  0  0  0  0  0  0  0  0  0
    7.2382    0.2094   18.8651 C   0  0  0  0  0  0  0  0  0  0  0  0
    8.2114   -0.2677   18.7618 H   0  0  0  0  0  0  0  0  0  0  0  0
    5.1328    1.7306   16.9057 H   0  0  0  0  0  0  0  0  0  0  0  0
    3.8242    1.8979   19.0060 H   0  0  0  0  0  0  0  0  0  0  0  0
    4.8075    0.9328   21.1315 H   0  0  0  0  0  0  0  0  0  0  0  0
    6.6948   -0.2144   22.1834 H   0  0  0  0  0  0  0  0  0  0  0  0
    8.7180    0.8439   21.0804 H   0  0  0  0  0  0  0  0  0  0  0  0
    9.1350   -0.7160   20.6155 H   0  0  0  0  0  0  0  0  0  0  0  0
    8.8507   -1.1368   23.2377 H   0  0  0  0  0  0  0  0  0  0  0  0
   11.2696   -0.0213   21.6959 H   0  0  0  0  0  0  0  0  0  0  0  0
   11.3769   -0.9534   23.1917 H   0  0  0  0  0  0  0  0  0  0  0  0
   10.7459   -1.7125   21.7313 H   0  0  0  0  0  0  0  0  0  0  0  0
  1  2  1  0
  2  3  1  0
  3  4  1  0
  4  5  2  0
  5  6  1  0
  6  7  2  0
  7  8  1  0
  8  9  2  0
  9 10  1  0
  8 11  1  0
  7 12  1  0
  6 13  1  0
  5 14  1  0
  3 15  1  0
  3 16  1  0
  2 17  1  0
 17 18  1  0
 18 19  1  0
 19 20  1  0
 19 21  1  0
 19 22  1  0
 18 23  1  0
 23 24  2  0
 24 25  1  0
 25 26  2  0
 26 27  1  0
 27 28  2  0
 28 29  1  0
 26 30  1  0
 25 31  1  0
 24 32  1  0
 18 33  1  0
 17 34  1  0
 17 35  1  0
  2 36  1  0
  1 37  1  0
  1 38  1  0
  1 39  1  0
  9  4  1  0
 28 23  1  0
M  CHG  1  17   1
M  END
>  <cnnaffinity>  (1) 
-5.13364

>  <filename>  (1) 
CC(Cc1ccccc1Cl)[NH2+]C(C)c1cccnc1

$$$$
