
     RDKit          3D

 36 38  0  0  0  0  0  0  0  0999 V2000
    4.9668    1.7613   17.0179 H   0  0  0  0  0  0  0  0  0  0  0  0
    5.4302    1.2710   17.8719 C   0  0  0  0  0  0  0  0  0  0  0  0
    6.5883    0.6434   17.6353 N   0  0  0  0  0  0  0  0  0  0  0  0
    7.1908    0.0276   18.6499 C   0  0  0  0  0  0  0  0  0  0  0  0
    8.1330   -0.4619   18.4051 H   0  0  0  0  0  0  0  0  0  0  0  0
    6.6432    0.0249   19.9254 C   0  0  0  0  0  0  0  0  0  0  0  0
    7.5001   -0.8475   21.1653 S   0  0  0  0  0  0  0  0  0  0  0  0
    8.4051   -1.7634   20.4845 O   0  0  0  0  0  0  0  0  0  0  0  0
    6.4780   -1.3469   22.0785 O   0  0  0  0  0  0  0  0  0  0  0  0
    8.5730    0.3795   22.0798 C   0  0  0  0  0  0  0  0  0  0  0  0
    7.6507    1.4468   22.5738 C   0  0  0  0  0  0  0  0  0  0  0  0
    7.6663    2.6756   21.9642 O   0  0  0  0  0  0  0  0  0  0  0  0
    6.7397    3.4429   22.6105 C   0  0  0  0  0  0  0  0  0  0  0  0
    6.4013    4.7767   22.3472 C   0  0  0  0  0  0  0  0  0  0  0  0
    6.8865    5.3508   21.5613 H   0  0  0  0  0  0  0  0  0  0  0  0
    5.3920    5.3294   23.1421 C   0  0  0  0  0  0  0  0  0  0  0  0
    5.0808    6.3601   22.9732 H   0  0  0  0  0  0  0  0  0  0  0  0
    4.7484    4.5861   24.1605 C   0  0  0  0  0  0  0  0  0  0  0  0
    3.9615    5.0502   24.7537 H   0  0  0  0  0  0  0  0  0  0  0  0
    5.1090    3.2667   24.4082 C   0  0  0  0  0  0  0  0  0  0  0  0
    4.6303    2.6747   25.1836 H   0  0  0  0  0  0  0  0  0  0  0  0
    6.1217    2.6919   23.6245 C   0  0  0  0  0  0  0  0  0  0  0  0
    6.7338    1.3964   23.5719 C   0  0  0  0  0  0  0  0  0  0  0  0
    6.4918    0.5311   24.1748 H   0  0  0  0  0  0  0  0  0  0  0  0
    9.2147   -0.3537   23.2777 C   0  0  0  0  0  0  0  0  0  0  0  0
    9.8806   -1.1538   22.9343 H   0  0  0  0  0  0  0  0  0  0  0  0
    9.8077    0.3633   23.8621 H   0  0  0  0  0  0  0  0  0  0  0  0
    8.4539   -0.7856   23.9347 H   0  0  0  0  0  0  0  0  0  0  0  0
    9.6672    0.8928   21.1388 C   0  0  0  0  0  0  0  0  0  0  0  0
   10.2944    0.0669   20.7861 H   0  0  0  0  0  0  0  0  0  0  0  0
   10.2972    1.6291   21.6534 H   0  0  0  0  0  0  0  0  0  0  0  0
    9.1886    1.3786   20.2930 H   0  0  0  0  0  0  0  0  0  0  0  0
    5.4270    0.6533   20.1926 C   0  0  0  0  0  0  0  0  0  0  0  0
    4.9678    0.6351   21.1864 H   0  0  0  0  0  0  0  0  0  0  0  0
    4.8200    1.3033   19.1270 C   0  0  0  0  0  0  0  0  0  0  0  0
    3.8875    1.8334   19.2525 H   0  0  0  0  0  0  0  0  0  0  0  0
  1  2  1  0
  2  3  2  0
  3  4  1  0
  4  5  1  0
  4  6  2  0
  6  7  1  0
  7  8  2  0
  7  9  2  0
  7 10  1  0
 10 11  1  0
 11 12  1  0
 12 13  1  0
 13 14  2  0
 14 15  1  0
 14 16  1  0
 16 17  1  0
 16 18  2  0
 18 19  1  0
 18 20  1  0
 20 21  1  0
 20 22  2  0
 22 23  1  0
 23 24  1  0
 10 25  1  0
 25 26  1  0
 25 27  1  0
 25 28  1  0
 10 29  1  0
 29 30  1  0
 29 31  1  0
 29 32  1  0
  6 33  1  0
 33 34  1  0
 33 35  2  0
 35 36  1  0
 35  2  1  0
 23 11  2  0
 22 13  1  0
M  END
>  <cnnaffinity>  (1) 
-4.70402

>  <filename>  (1) 
CC(C)(c1cc2ccccc2o1)S(=O)(=O)c1cccnc1

$$$$
