
     RDKit          3D

 48 52  0  0  0  0  0  0  0  0999 V2000
    9.5266    2.2094   25.3402 C   0  0  0  0  0  0  0  0  0  0  0  0
    8.9274    2.7004   24.0198 C   0  0  0  0  0  0  0  0  0  0  0  0
    9.4986    4.0510   23.5402 C   0  0  0  0  0  0  0  0  0  0  0  0
   10.7274    4.5873   23.9511 C   0  0  0  0  0  0  0  0  0  0  0  0
   11.0820    5.8734   23.5369 C   0  0  0  0  0  0  0  0  0  0  0  0
   10.3403    6.6295   22.7137 N   0  0  0  0  0  0  0  0  0  0  0  0
    9.2083    6.0857   22.2560 C   0  0  0  0  0  0  0  0  0  0  0  0
    8.7442    4.8248   22.6430 C   0  0  0  0  0  0  0  0  0  0  0  0
    7.7972    4.4675   22.2517 H   0  0  0  0  0  0  0  0  0  0  0  0
    8.6314    6.6981   21.5635 H   0  0  0  0  0  0  0  0  0  0  0  0
   11.9943    6.3375   23.9118 H   0  0  0  0  0  0  0  0  0  0  0  0
   11.4259    4.0364   24.5693 H   0  0  0  0  0  0  0  0  0  0  0  0
    8.9452    1.6430   22.9871 N   0  0  0  0  0  0  0  0  0  0  0  0
    7.8263    0.9187   22.7292 N   0  0  0  0  0  0  0  0  0  0  0  0
    8.1822    0.1697   21.7072 C   0  0  0  0  0  0  0  0  0  0  0  0
    7.2459   -0.7549   20.9944 C   0  0  0  0  0  0  0  0  0  0  0  0
    6.5191   -0.0751   19.8414 C   0  0  0  0  0  0  0  0  0  0  0  0
    5.3330    0.6335   20.0629 C   0  0  0  0  0  0  0  0  0  0  0  0
    4.7561    1.3380   19.0041 C   0  0  0  0  0  0  0  0  0  0  0  0
    5.3904    1.3148   17.7592 C   0  0  0  0  0  0  0  0  0  0  0  0
    6.5274    0.6426   17.5226 N   0  0  0  0  0  0  0  0  0  0  0  0
    7.0688   -0.0254   18.5481 C   0  0  0  0  0  0  0  0  0  0  0  0
    8.0073   -0.5409   18.3386 H   0  0  0  0  0  0  0  0  0  0  0  0
    4.9688    1.8553   16.9132 H   0  0  0  0  0  0  0  0  0  0  0  0
    3.8457    1.9117   19.1328 H   0  0  0  0  0  0  0  0  0  0  0  0
    4.8854    0.6447   21.0586 H   0  0  0  0  0  0  0  0  0  0  0  0
    7.8419   -1.5992   20.6336 H   0  0  0  0  0  0  0  0  0  0  0  0
    6.5381   -1.1307   21.7389 H   0  0  0  0  0  0  0  0  0  0  0  0
    9.4619    0.3448   21.2874 N   0  0  0  0  0  0  0  0  0  0  0  0
    9.9227    1.2522   22.1302 C   0  0  0  0  0  0  0  0  0  0  0  0
   11.2604    1.8878   22.1289 C   0  0  0  0  0  0  0  0  0  0  0  0
   12.2248    1.6366   23.1491 C   0  0  0  0  0  0  0  0  0  0  0  0
   13.3095    2.4717   23.3206 C   0  0  0  0  0  0  0  0  0  0  0  0
   13.4602    3.6031   22.4662 C   0  0  0  0  0  0  0  0  0  0  0  0
   14.3319    4.7352   22.3266 C   0  0  0  0  0  0  0  0  0  0  0  0
   14.0077    5.4893   21.2857 N   0  0  0  0  0  0  0  0  0  0  0  0
   12.9477    4.8683   20.7252 N   0  0  0  0  0  0  0  0  0  0  0  0
   12.5604    3.7484   21.3880 C   0  0  0  0  0  0  0  0  0  0  0  0
   11.4996    2.8553   21.1658 C   0  0  0  0  0  0  0  0  0  0  0  0
   10.8244    2.9372   20.3299 H   0  0  0  0  0  0  0  0  0  0  0  0
   12.4315    5.2991   19.9791 H   0  0  0  0  0  0  0  0  0  0  0  0
   15.1305    5.0490   22.9827 H   0  0  0  0  0  0  0  0  0  0  0  0
   14.0203    2.2339   24.0933 H   0  0  0  0  0  0  0  0  0  0  0  0
   12.0856    0.7718   23.7971 H   0  0  0  0  0  0  0  0  0  0  0  0
    7.8546    2.8677   24.1792 H   0  0  0  0  0  0  0  0  0  0  0  0
   10.5994    2.0088   25.2530 H   0  0  0  0  0  0  0  0  0  0  0  0
    9.3755    2.9792   26.1027 H   0  0  0  0  0  0  0  0  0  0  0  0
    9.0193    1.2938   25.6569 H   0  0  0  0  0  0  0  0  0  0  0  0
  1  2  1  0
  2  3  1  0
  3  4  2  0
  4  5  1  0
  5  6  2  0
  6  7  1  0
  7  8  2  0
  8  9  1  0
  7 10  1  0
  5 11  1  0
  4 12  1  0
  2 13  1  0
 13 14  1  0
 14 15  2  0
 15 16  1  0
 16 17  1  0
 17 18  2  0
 18 19  1  0
 19 20  2  0
 20 21  1  0
 21 22  2  0
 22 23  1  0
 20 24  1  0
 19 25  1  0
 18 26  1  0
 16 27  1  0
 16 28  1  0
 15 29  1  0
 29 30  2  0
 30 31  1  0
 31 32  2  0
 32 33  1  0
 33 34  2  0
 34 35  1  0
 35 36  2  0
 36 37  1  0
 37 38  1  0
 38 39  2  0
 39 40  1  0
 37 41  1  0
 35 42  1  0
 33 43  1  0
 32 44  1  0
  2 45  1  0
  1 46  1  0
  1 47  1  0
  1 48  1  0
  8  3  1  0
 30 13  1  0
 39 31  1  0
 22 17  1  0
 38 34  1  0
M  END
>  <cnnaffinity>  (1) 
-6.70904

>  <filename>  (1) 
CC(c1ccncc1)n1nc(Cc2cccnc2)nc1-c1ccc2cn[nH]c2c1

$$$$
