
     RDKit          3D

 32 33  0  0  0  0  0  0  0  0999 V2000
    4.9285    1.7996   16.9832 H   0  0  0  0  0  0  0  0  0  0  0  0
    5.3886    1.2950   17.8329 C   0  0  0  0  0  0  0  0  0  0  0  0
    6.5460    0.6649   17.5776 N   0  0  0  0  0  0  0  0  0  0  0  0
    7.1483    0.0421   18.5955 C   0  0  0  0  0  0  0  0  0  0  0  0
    8.1125   -0.4123   18.3885 H   0  0  0  0  0  0  0  0  0  0  0  0
    6.6252   -0.0228   19.9058 C   0  0  0  0  0  0  0  0  0  0  0  0
    7.3422   -0.7055   20.9165 N   0  0  0  0  0  0  0  0  0  0  0  0
    8.7550   -0.6656   21.1858 C   0  0  0  0  0  0  0  0  0  0  0  0
    9.5738   -0.0624   20.5191 O   0  0  0  0  0  0  0  0  0  0  0  0
    8.9191   -1.4746   22.3679 C   0  0  0  0  0  0  0  0  0  0  0  0
    9.8733   -1.6736   22.8167 H   0  0  0  0  0  0  0  0  0  0  0  0
    7.6982   -1.9094   22.7351 C   0  0  0  0  0  0  0  0  0  0  0  0
    7.3579   -2.6643   23.8412 N   0  0  0  0  0  0  0  0  0  0  0  0
    8.0792   -2.7492   24.5277 H   0  0  0  0  0  0  0  0  0  0  0  0
    6.2142   -3.4142   23.9754 C   0  0  0  0  0  0  0  0  0  0  0  0
    5.4421   -3.5754   23.0421 O   0  0  0  0  0  0  0  0  0  0  0  0
    5.9645   -4.0175   25.3831 C   0  0  0  0  0  0  0  0  0  0  0  0
    6.6534   -3.5292   26.0889 H   0  0  0  0  0  0  0  0  0  0  0  0
    4.5129   -3.7369   25.8359 C   0  0  0  0  0  0  0  0  0  0  0  0
    4.2668   -2.6690   25.8584 H   0  0  0  0  0  0  0  0  0  0  0  0
    3.8093   -4.2177   25.1484 H   0  0  0  0  0  0  0  0  0  0  0  0
    4.3251   -4.1370   26.8395 H   0  0  0  0  0  0  0  0  0  0  0  0
    6.2427   -5.5416   25.4000 C   0  0  0  0  0  0  0  0  0  0  0  0
    6.0508   -5.9717   26.3932 H   0  0  0  0  0  0  0  0  0  0  0  0
    5.5810   -6.0545   24.6934 H   0  0  0  0  0  0  0  0  0  0  0  0
    7.2774   -5.7864   25.1327 H   0  0  0  0  0  0  0  0  0  0  0  0
    6.7401   -1.4585   21.9135 N   0  0  0  0  0  0  0  0  0  0  0  0
    5.7663   -1.7117   22.0195 H   0  0  0  0  0  0  0  0  0  0  0  0
    5.4189    0.6421   20.1628 C   0  0  0  0  0  0  0  0  0  0  0  0
    5.0083    0.6582   21.1712 H   0  0  0  0  0  0  0  0  0  0  0  0
    4.7996    1.3109   19.1025 C   0  0  0  0  0  0  0  0  0  0  0  0
    3.8725    1.8475   19.2499 H   0  0  0  0  0  0  0  0  0  0  0  0
  1  2  1  0
  2  3  2  0
  3  4  1  0
  4  5  1  0
  4  6  2  0
  6  7  1  0
  7  8  1  0
  8  9  2  0
  8 10  1  0
 10 11  1  0
 10 12  2  0
 12 13  1  0
 13 14  1  0
 13 15  1  0
 15 16  2  0
 15 17  1  0
 17 18  1  0
 17 19  1  0
 19 20  1  0
 19 21  1  0
 19 22  1  0
 17 23  1  0
 23 24  1  0
 23 25  1  0
 23 26  1  0
 12 27  1  0
 27 28  1  0
  6 29  1  0
 29 30  1  0
 29 31  2  0
 31 32  1  0
 31  2  1  0
 27  7  1  0
M  END
>  <cnnaffinity>  (1) 
-5.01857

>  <filename>  (1) 
CC(C)C(=O)Nc1cc(=O)n(-c2cccnc2)[nH]1

$$$$
