
     RDKit          3D

 51 54  0  0  0  0  0  0  0  0999 V2000
   12.4743   -1.9411   22.0575 C   0  0  0  0  0  0  0  0  0  0  0  0
   11.1127   -1.2621   22.2739 C   0  0  0  0  0  0  0  0  0  0  0  0
   10.9445   -0.4863   23.5915 C   0  0  0  0  0  0  0  0  0  0  0  0
   12.0328    0.3729   23.8626 O   0  0  0  0  0  0  0  0  0  0  0  0
   12.2916    0.7678   23.0198 H   0  0  0  0  0  0  0  0  0  0  0  0
   10.0114    0.1012   23.5592 H   0  0  0  0  0  0  0  0  0  0  0  0
   10.8623   -1.1456   24.4631 H   0  0  0  0  0  0  0  0  0  0  0  0
   10.0155   -2.3209   22.0853 C   0  0  0  0  0  0  0  0  0  0  0  0
    8.6817   -1.7634   21.9779 N   0  0  0  0  0  0  0  0  0  0  0  0
    8.3589   -1.2310   20.7871 N   0  0  0  0  0  0  0  0  0  0  0  0
    7.1996   -0.6444   21.0147 C   0  0  0  0  0  0  0  0  0  0  0  0
    6.5160    0.0566   19.9359 C   0  0  0  0  0  0  0  0  0  0  0  0
    5.3070    0.7414   20.1072 C   0  0  0  0  0  0  0  0  0  0  0  0
    4.7593    1.3744   18.9928 C   0  0  0  0  0  0  0  0  0  0  0  0
    5.4378    1.3078   17.7699 C   0  0  0  0  0  0  0  0  0  0  0  0
    6.5959    0.6541   17.5980 N   0  0  0  0  0  0  0  0  0  0  0  0
    7.1184    0.0466   18.6662 C   0  0  0  0  0  0  0  0  0  0  0  0
    8.0609   -0.4744   18.5078 H   0  0  0  0  0  0  0  0  0  0  0  0
    5.0343    1.7997   16.8877 H   0  0  0  0  0  0  0  0  0  0  0  0
    3.8283    1.9255   19.0583 H   0  0  0  0  0  0  0  0  0  0  0  0
    4.8243    0.7808   21.0864 H   0  0  0  0  0  0  0  0  0  0  0  0
    6.7695   -0.7470   22.2970 N   0  0  0  0  0  0  0  0  0  0  0  0
    7.7164   -1.4674   22.8793 C   0  0  0  0  0  0  0  0  0  0  0  0
    7.7890   -1.8572   24.3438 C   0  0  0  0  0  0  0  0  0  0  0  0
    6.7716   -2.8027   24.8202 N   0  0  0  0  0  0  0  0  0  0  0  0
    5.4459   -2.2801   25.1570 C   0  0  0  0  0  0  0  0  0  0  0  0
    4.8430   -3.1254   26.2777 C   0  0  0  0  0  0  0  0  0  0  0  0
    4.7374   -4.5558   25.7834 C   0  0  0  0  0  0  0  0  0  0  0  0
    3.6867   -5.4012   26.1616 C   0  0  0  0  0  0  0  0  0  0  0  0
    3.5771   -6.6887   25.6258 C   0  0  0  0  0  0  0  0  0  0  0  0
    4.5080   -7.1303   24.6775 C   0  0  0  0  0  0  0  0  0  0  0  0
    5.5551   -6.2977   24.2848 C   0  0  0  0  0  0  0  0  0  0  0  0
    5.7000   -5.0232   24.8592 C   0  0  0  0  0  0  0  0  0  0  0  0
    6.8578   -4.1379   24.4391 C   0  0  0  0  0  0  0  0  0  0  0  0
    7.8020   -4.5498   23.7785 O   0  0  0  0  0  0  0  0  0  0  0  0
    6.2618   -6.6136   23.5210 H   0  0  0  0  0  0  0  0  0  0  0  0
    4.4119   -8.1205   24.2402 H   0  0  0  0  0  0  0  0  0  0  0  0
    2.7618   -7.3388   25.9361 H   0  0  0  0  0  0  0  0  0  0  0  0
    2.9313   -5.0367   26.8555 H   0  0  0  0  0  0  0  0  0  0  0  0
    5.4832   -3.0750   27.1654 H   0  0  0  0  0  0  0  0  0  0  0  0
    3.8577   -2.7362   26.5580 H   0  0  0  0  0  0  0  0  0  0  0  0
    5.5141   -1.2159   25.4072 H   0  0  0  0  0  0  0  0  0  0  0  0
    4.7993   -2.3788   24.2789 H   0  0  0  0  0  0  0  0  0  0  0  0
    8.7791   -2.2641   24.5752 H   0  0  0  0  0  0  0  0  0  0  0  0
    7.6829   -0.9363   24.9337 H   0  0  0  0  0  0  0  0  0  0  0  0
   10.1827   -2.7931   21.1192 H   0  0  0  0  0  0  0  0  0  0  0  0
   10.0264   -3.1063   22.8461 H   0  0  0  0  0  0  0  0  0  0  0  0
   10.9577   -0.5125   21.4808 H   0  0  0  0  0  0  0  0  0  0  0  0
   12.5100   -2.8897   22.6086 H   0  0  0  0  0  0  0  0  0  0  0  0
   13.3093   -1.3318   22.4105 H   0  0  0  0  0  0  0  0  0  0  0  0
   12.6520   -2.1612   20.9944 H   0  0  0  0  0  0  0  0  0  0  0  0
  1  2  1  0
  2  3  1  0
  3  4  1  0
  4  5  1  0
  3  6  1  0
  3  7  1  0
  2  8  1  0
  8  9  1  0
  9 10  1  0
 10 11  2  0
 11 12  1  0
 12 13  2  0
 13 14  1  0
 14 15  2  0
 15 16  1  0
 16 17  2  0
 17 18  1  0
 15 19  1  0
 14 20  1  0
 13 21  1  0
 11 22  1  0
 22 23  2  0
 23 24  1  0
 24 25  1  0
 25 26  1  0
 26 27  1  0
 27 28  1  0
 28 29  2  0
 29 30  1  0
 30 31  2  0
 31 32  1  0
 32 33  2  0
 33 34  1  0
 34 35  2  0
 32 36  1  0
 31 37  1  0
 30 38  1  0
 29 39  1  0
 27 40  1  0
 27 41  1  0
 26 42  1  0
 26 43  1  0
 24 44  1  0
 24 45  1  0
  8 46  1  0
  8 47  1  0
  2 48  1  0
  1 49  1  0
  1 50  1  0
  1 51  1  0
 23  9  1  0
 34 25  1  0
 17 12  1  0
 33 28  1  0
M  END
>  <cnnaffinity>  (1) 
-6.17517

>  <filename>  (1) 
CC(CO)Cn1nc(-c2cccnc2)nc1CN1CCc2ccccc2C1=O

$$$$
