
     RDKit          3D

 43 45  0  0  0  0  0  0  0  0999 V2000
    3.0156    6.6689   24.5850 C   0  0  0  0  0  0  0  0  0  0  0  0
    4.5088    6.5377   24.8024 C   0  0  0  0  0  0  0  0  0  0  0  0
    5.2727    7.7522   24.2776 C   0  0  0  0  0  0  0  0  0  0  0  0
    6.3349    7.7177   24.5384 H   0  0  0  0  0  0  0  0  0  0  0  0
    4.8579    8.6713   24.6968 H   0  0  0  0  0  0  0  0  0  0  0  0
    5.1914    7.8219   23.1869 H   0  0  0  0  0  0  0  0  0  0  0  0
    4.9806    5.2983   24.1626 N   0  0  0  0  0  4  0  0  0  0  0  0
    6.3464    4.8812   24.5163 C   0  0  0  0  0  0  0  0  0  0  0  0
    6.6418    3.5429   23.9055 C   0  0  0  0  0  0  0  0  0  0  0  0
    6.4153    2.3614   24.6329 C   0  0  0  0  0  0  0  0  0  0  0  0
    6.7112    1.1218   24.0722 C   0  0  0  0  0  0  0  0  0  0  0  0
    7.2419    1.0287   22.7791 C   0  0  0  0  0  0  0  0  0  0  0  0
    7.5601   -0.3036   22.2457 C   0  0  0  0  0  0  0  0  0  0  0  0
    8.1802   -1.3573   22.8829 C   0  0  0  0  0  0  0  0  0  0  0  0
    8.3483   -2.3251   21.8777 C   0  0  0  0  0  0  0  0  0  0  0  0
    7.8663   -1.9222   20.7134 N   0  0  0  0  0  0  0  0  0  0  0  0
    7.3645   -0.6938   20.9372 N   0  0  0  0  0  0  0  0  0  0  0  0
    6.6483   -0.0166   19.9132 C   0  0  0  0  0  0  0  0  0  0  0  0
    5.4277    0.6269   20.1669 C   0  0  0  0  0  0  0  0  0  0  0  0
    4.8100    1.2954   19.1065 C   0  0  0  0  0  0  0  0  0  0  0  0
    5.4109    1.2894   17.8426 C   0  0  0  0  0  0  0  0  0  0  0  0
    6.5769    0.6693   17.5995 N   0  0  0  0  0  0  0  0  0  0  0  0
    7.1743    0.0339   18.6095 C   0  0  0  0  0  0  0  0  0  0  0  0
    8.1213   -0.4419   18.3767 H   0  0  0  0  0  0  0  0  0  0  0  0
    4.9365    1.7840   16.9952 H   0  0  0  0  0  0  0  0  0  0  0  0
    3.8812    1.8349   19.2525 H   0  0  0  0  0  0  0  0  0  0  0  0
    5.0126    0.6405   21.1775 H   0  0  0  0  0  0  0  0  0  0  0  0
    8.7993   -3.3046   21.9510 H   0  0  0  0  0  0  0  0  0  0  0  0
    8.5115   -1.3696   23.9139 H   0  0  0  0  0  0  0  0  0  0  0  0
    7.5134    2.2116   22.0657 C   0  0  0  0  0  0  0  0  0  0  0  0
    7.2178    3.4513   22.6237 C   0  0  0  0  0  0  0  0  0  0  0  0
    7.4281    4.3516   22.0468 H   0  0  0  0  0  0  0  0  0  0  0  0
    7.9323    2.1311   21.0673 H   0  0  0  0  0  0  0  0  0  0  0  0
    6.5267    0.2031   24.6224 H   0  0  0  0  0  0  0  0  0  0  0  0
    6.0187    2.4064   25.6463 H   0  0  0  0  0  0  0  0  0  0  0  0
    6.4563    4.8325   25.6058 H   0  0  0  0  0  0  0  0  0  0  0  0
    7.0860    5.6059   24.1642 H   0  0  0  0  0  0  0  0  0  0  0  0
    4.9500    5.4294   23.1198 H   0  0  0  0  0  0  0  0  0  0  0  0
    4.3507    4.4868   24.3544 H   0  0  0  0  0  0  0  0  0  0  0  0
    4.7067    6.4588   25.8775 H   0  0  0  0  0  0  0  0  0  0  0  0
    2.6472    7.5676   25.0860 H   0  0  0  0  0  0  0  0  0  0  0  0
    2.7757    6.7667   23.5202 H   0  0  0  0  0  0  0  0  0  0  0  0
    2.4730    5.8137   24.9997 H   0  0  0  0  0  0  0  0  0  0  0  0
  1  2  1  0
  2  3  1  0
  3  4  1  0
  3  5  1  0
  3  6  1  0
  2  7  1  0
  7  8  1  0
  8  9  1  0
  9 10  2  0
 10 11  1  0
 11 12  2  0
 12 13  1  0
 13 14  2  0
 14 15  1  0
 15 16  2  0
 16 17  1  0
 17 18  1  0
 18 19  2  0
 19 20  1  0
 20 21  2  0
 21 22  1  0
 22 23  2  0
 23 24  1  0
 21 25  1  0
 20 26  1  0
 19 27  1  0
 15 28  1  0
 14 29  1  0
 12 30  1  0
 30 31  2  0
 31 32  1  0
 30 33  1  0
 11 34  1  0
 10 35  1  0
  8 36  1  0
  8 37  1  0
  7 38  1  0
  7 39  1  0
  2 40  1  0
  1 41  1  0
  1 42  1  0
  1 43  1  0
 31  9  1  0
 17 13  1  0
 23 18  1  0
M  CHG  1   7   1
M  END
>  <cnnaffinity>  (1) 
-4.94523

>  <filename>  (1) 
CC(C)[NH2+]Cc1ccc(-c2ccnn2-c2cccnc2)cc1

$$$$
