
     RDKit          3D

 39 40  0  0  0  0  0  0  0  0999 V2000
    8.3577   -3.9462   21.4540 C   0  0  0  0  0  0  0  0  0  0  0  0
    7.4556   -2.8333   21.9332 C   0  0  0  0  0  0  0  0  0  0  0  0
    6.0896   -3.3689   22.4175 C   0  0  0  0  0  0  0  0  0  0  0  0
    6.1578   -3.9996   23.7985 C   0  0  0  0  0  0  0  0  0  0  0  0
    6.4573   -3.1720   24.8951 C   0  0  0  0  0  0  0  0  0  0  0  0
    6.5627   -3.6718   26.1915 C   0  0  0  0  0  0  0  0  0  0  0  0
    6.3301   -5.0278   26.4317 C   0  0  0  0  0  0  0  0  0  0  0  0
    6.0608   -5.8811   25.3647 C   0  0  0  0  0  0  0  0  0  0  0  0
    5.9959   -5.3745   24.0627 C   0  0  0  0  0  0  0  0  0  0  0  0
    5.7307   -6.5128   22.7594 Cl  0  0  0  0  0  0  0  0  0  0  0  0
    5.9064   -6.9369   25.5429 H   0  0  0  0  0  0  0  0  0  0  0  0
    6.3502   -5.4298   27.4405 H   0  0  0  0  0  0  0  0  0  0  0  0
    6.8540   -3.0155   27.0035 H   0  0  0  0  0  0  0  0  0  0  0  0
    6.5857   -2.1045   24.7148 H   0  0  0  0  0  0  0  0  0  0  0  0
    5.6998   -4.0721   21.6776 H   0  0  0  0  0  0  0  0  0  0  0  0
    5.3951   -2.5236   22.4305 H   0  0  0  0  0  0  0  0  0  0  0  0
    7.3068   -1.8642   20.8172 N   0  0  0  0  0  4  0  0  0  0  0  0
    7.2542   -0.4106   21.1222 C   0  0  1  0  0  0  0  0  0  0  0  0
    8.6756    0.1206   21.3454 C   0  0  0  0  0  0  0  0  0  0  0  0
    8.6823    1.1719   21.6430 H   0  0  0  0  0  0  0  0  0  0  0  0
    9.2742    0.0265   20.4330 H   0  0  0  0  0  0  0  0  0  0  0  0
    9.1743   -0.4614   22.1303 H   0  0  0  0  0  0  0  0  0  0  0  0
    6.5297    0.1798   19.9401 C   0  0  0  0  0  0  0  0  0  0  0  0
    5.2997    0.8414   20.0636 C   0  0  0  0  0  0  0  0  0  0  0  0
    4.7366    1.4249   18.9256 C   0  0  0  0  0  0  0  0  0  0  0  0
    5.4151    1.3083   17.7098 C   0  0  0  0  0  0  0  0  0  0  0  0
    6.5541    0.6124   17.5616 N   0  0  0  0  0  0  0  0  0  0  0  0
    7.0667    0.0379   18.6570 C   0  0  0  0  0  0  0  0  0  0  0  0
    7.9517   -0.5810   18.4854 H   0  0  0  0  0  0  0  0  0  0  0  0
    5.0121    1.7605   16.8049 H   0  0  0  0  0  0  0  0  0  0  0  0
    3.7931    1.9629   18.9688 H   0  0  0  0  0  0  0  0  0  0  0  0
    4.7905    0.8673   21.0297 H   0  0  0  0  0  0  0  0  0  0  0  0
    6.6527   -0.2406   22.0255 H   0  0  0  0  0  0  0  0  0  0  0  0
    6.4490   -2.0913   20.2649 H   0  0  0  0  0  0  0  0  0  0  0  0
    8.1120   -1.9680   20.1628 H   0  0  0  0  0  0  0  0  0  0  0  0
    7.9411   -2.3226   22.7751 H   0  0  0  0  0  0  0  0  0  0  0  0
    9.2341   -3.4717   21.0122 H   0  0  0  0  0  0  0  0  0  0  0  0
    7.8649   -4.5609   20.6937 H   0  0  0  0  0  0  0  0  0  0  0  0
    8.6573   -4.6013   22.2732 H   0  0  0  0  0  0  0  0  0  0  0  0
  1  2  1  0
  2  3  1  0
  3  4  1  0
  4  5  2  0
  5  6  1  0
  6  7  2  0
  7  8  1  0
  8  9  2  0
  9 10  1  0
  8 11  1  0
  7 12  1  0
  6 13  1  0
  5 14  1  0
  3 15  1  0
  3 16  1  0
  2 17  1  0
 17 18  1  0
 18 19  1  0
 19 20  1  0
 19 21  1  0
 19 22  1  0
 18 23  1  0
 23 24  2  0
 24 25  1  0
 25 26  2  0
 26 27  1  0
 27 28  2  0
 28 29  1  0
 26 30  1  0
 25 31  1  0
 24 32  1  0
 18 33  1  1
 17 34  1  0
 17 35  1  0
  2 36  1  0
  1 37  1  0
  1 38  1  0
  1 39  1  0
  9  4  1  0
 28 23  1  0
M  CHG  1  17   1
M  END
>  <cnnaffinity>  (1) 
-5.01296

>  <filename>  (1) 
CC(Cc1ccccc1Cl)[NH2+][C@@H](C)c1cccnc1

$$$$
