
     RDKit          3D

 31 32  0  0  0  0  0  0  0  0999 V2000
    8.0340    1.4757   22.2140 C   0  0  0  0  0  0  0  0  0  0  0  0
    8.5599    0.2704   21.4212 C   0  0  0  0  0  0  0  0  0  0  0  0
    7.4372   -0.6717   20.9379 C   0  0  0  0  0  0  0  0  0  0  0  0
    6.6178   -0.0582   19.8401 C   0  0  0  0  0  0  0  0  0  0  0  0
    5.4200    0.6108   20.1011 C   0  0  0  0  0  0  0  0  0  0  0  0
    4.7989    1.2960   19.0560 C   0  0  0  0  0  0  0  0  0  0  0  0
    5.4004    1.2964   17.7942 C   0  0  0  0  0  0  0  0  0  0  0  0
    6.5431    0.6477   17.5189 N   0  0  0  0  0  0  0  0  0  0  0  0
    7.1270   -0.0037   18.5290 C   0  0  0  0  0  0  0  0  0  0  0  0
    8.0709   -0.5039   18.3044 H   0  0  0  0  0  0  0  0  0  0  0  0
    4.9493    1.8427   16.9685 H   0  0  0  0  0  0  0  0  0  0  0  0
    3.8797    1.8434   19.2153 H   0  0  0  0  0  0  0  0  0  0  0  0
    5.0044    0.6120   21.1124 H   0  0  0  0  0  0  0  0  0  0  0  0
    6.8088   -0.9371   21.8023 H   0  0  0  0  0  0  0  0  0  0  0  0
    7.9138   -1.5961   20.5882 H   0  0  0  0  0  0  0  0  0  0  0  0
    9.4700   -0.5694   22.1822 N   0  0  0  0  0  0  0  0  0  0  0  0
   10.6024   -0.0792   22.7766 C   0  0  0  0  0  0  0  0  0  0  0  0
   11.4250    0.8707   22.1599 C   0  0  0  0  0  0  0  0  0  0  0  0
   12.5274    1.3547   22.8508 C   0  0  0  0  0  0  0  0  0  0  0  0
   12.8409    0.9905   24.0999 N   0  0  0  0  0  0  0  0  0  0  0  0
   12.0600    0.0716   24.6790 C   0  0  0  0  0  0  0  0  0  0  0  0
   10.9689   -0.5201   24.0545 C   0  0  0  0  0  0  0  0  0  0  0  0
   10.0522   -1.7663   24.8562 Cl  0  0  0  0  0  0  0  0  0  0  0  0
   12.3027   -0.2206   25.6949 H   0  0  0  0  0  0  0  0  0  0  0  0
   13.1763    2.1046   22.4018 H   0  0  0  0  0  0  0  0  0  0  0  0
   11.1541    1.2660   21.1923 H   0  0  0  0  0  0  0  0  0  0  0  0
    8.9514   -1.1398   22.8358 H   0  0  0  0  0  0  0  0  0  0  0  0
    9.1083    0.6425   20.5425 H   0  0  0  0  0  0  0  0  0  0  0  0
    7.4242    2.1203   21.5752 H   0  0  0  0  0  0  0  0  0  0  0  0
    7.4140    1.1534   23.0627 H   0  0  0  0  0  0  0  0  0  0  0  0
    8.8622    2.0791   22.6051 H   0  0  0  0  0  0  0  0  0  0  0  0
  1  2  1  0
  2  3  1  0
  3  4  1  0
  4  5  2  0
  5  6  1  0
  6  7  2  0
  7  8  1  0
  8  9  2  0
  9 10  1  0
  7 11  1  0
  6 12  1  0
  5 13  1  0
  3 14  1  0
  3 15  1  0
  2 16  1  0
 16 17  1  0
 17 18  2  0
 18 19  1  0
 19 20  2  0
 20 21  1  0
 21 22  2  0
 22 23  1  0
 21 24  1  0
 19 25  1  0
 18 26  1  0
 16 27  1  0
  2 28  1  0
  1 29  1  0
  1 30  1  0
  1 31  1  0
  9  4  1  0
 22 17  1  0
M  END
>  <cnnaffinity>  (1) 
-4.83675

>  <filename>  (1) 
CC(Cc1cccnc1)Nc1ccncc1Cl

$$$$
