
     RDKit          3D

 49 53  0  0  0  0  0  0  0  0999 V2000
    9.3526    2.0044   25.4005 C   0  0  0  0  0  0  0  0  0  0  0  0
    8.9696    2.7645   24.1324 C   0  0  0  0  0  0  0  0  0  0  0  0
    7.6744    3.5428   24.2146 C   0  0  0  0  0  0  0  0  0  0  0  0
    7.7635    4.9402   24.7497 C   0  0  0  0  0  0  0  0  0  0  0  0
    7.5473    4.7114   23.2759 C   0  0  0  0  0  0  0  0  0  0  0  0
    6.5765    4.9340   22.8405 H   0  0  0  0  0  0  0  0  0  0  0  0
    8.4052    4.8970   22.6163 H   0  0  0  0  0  0  0  0  0  0  0  0
    6.9494    5.3434   25.3437 H   0  0  0  0  0  0  0  0  0  0  0  0
    8.7531    5.2883   25.0471 H   0  0  0  0  0  0  0  0  0  0  0  0
    6.7886    2.9556   24.4406 H   0  0  0  0  0  0  0  0  0  0  0  0
    8.9789    1.8513   22.9683 N   0  0  0  0  0  0  0  0  0  0  0  0
    7.8687    1.2022   22.5434 N   0  0  0  0  0  0  0  0  0  0  0  0
    8.3463    0.3129   21.6944 C   0  0  0  0  0  0  0  0  0  0  0  0
    7.4312   -0.6366   20.9627 C   0  0  0  0  0  0  0  0  0  0  0  0
    6.6458   -0.0105   19.8101 C   0  0  0  0  0  0  0  0  0  0  0  0
    5.4353    0.6549   20.0528 C   0  0  0  0  0  0  0  0  0  0  0  0
    4.8063    1.3230   18.9980 C   0  0  0  0  0  0  0  0  0  0  0  0
    5.4052    1.2954   17.7361 C   0  0  0  0  0  0  0  0  0  0  0  0
    6.5418    0.6329   17.4680 N   0  0  0  0  0  0  0  0  0  0  0  0
    7.1286   -0.0049   18.4880 C   0  0  0  0  0  0  0  0  0  0  0  0
    8.0453   -0.5457   18.2471 H   0  0  0  0  0  0  0  0  0  0  0  0
    4.9571    1.8237   16.8970 H   0  0  0  0  0  0  0  0  0  0  0  0
    3.8804    1.8717   19.1416 H   0  0  0  0  0  0  0  0  0  0  0  0
    4.9994    0.6508   21.0547 H   0  0  0  0  0  0  0  0  0  0  0  0
    8.0415   -1.4766   20.6180 H   0  0  0  0  0  0  0  0  0  0  0  0
    6.7280   -1.0412   21.7013 H   0  0  0  0  0  0  0  0  0  0  0  0
    9.6983    0.3136   21.5717 N   0  0  0  0  0  0  0  0  0  0  0  0
   10.0712    1.2925   22.3840 C   0  0  0  0  0  0  0  0  0  0  0  0
   11.4203    1.7727   22.6339 C   0  0  0  0  0  0  0  0  0  0  0  0
   11.5274    3.1203   22.9597 C   0  0  0  0  0  0  0  0  0  0  0  0
   11.7871    3.7180   24.0624 N   0  0  0  0  0  0  0  0  0  0  0  0
   11.3657    5.3880   22.2357 C   0  0  0  0  0  0  0  0  0  0  0  0
   12.6627    5.1268   22.4375 N   0  0  0  0  0  0  0  0  0  0  0  0
   13.8225    5.7761   21.8064 C   0  0  0  0  0  0  0  0  0  0  0  0
   13.5423    6.7598   21.4280 H   0  0  0  0  0  0  0  0  0  0  0  0
   14.1849    5.1374   20.9909 H   0  0  0  0  0  0  0  0  0  0  0  0
   14.6161    5.8948   22.5506 H   0  0  0  0  0  0  0  0  0  0  0  0
   12.8575    3.8893   23.0879 C   0  0  0  0  0  0  0  0  0  0  0  0
   14.0296    3.0814   22.8430 C   0  0  0  0  0  0  0  0  0  0  0  0
   13.8722    1.7005   22.7354 C   0  0  0  0  0  0  0  0  0  0  0  0
   12.6216    1.0554   22.5707 C   0  0  0  0  0  0  0  0  0  0  0  0
   12.6066   -0.0075   22.3613 H   0  0  0  0  0  0  0  0  0  0  0  0
   14.7783    1.1141   22.6239 H   0  0  0  0  0  0  0  0  0  0  0  0
   14.9826    3.5507   22.6466 H   0  0  0  0  0  0  0  0  0  0  0  0
   11.1734    6.2659   21.6156 H   0  0  0  0  0  0  0  0  0  0  0  0
    9.7050    3.5377   23.9406 H   0  0  0  0  0  0  0  0  0  0  0  0
    9.4127    2.6910   26.2485 H   0  0  0  0  0  0  0  0  0  0  0  0
   10.3268    1.5157   25.2805 H   0  0  0  0  0  0  0  0  0  0  0  0
    8.6161    1.2282   25.6389 H   0  0  0  0  0  0  0  0  0  0  0  0
  1  2  1  0
  2  3  1  0
  3  4  1  0
  4  5  1  0
  5  6  1  0
  5  7  1  0
  4  8  1  0
  4  9  1  0
  3 10  1  0
  2 11  1  0
 11 12  1  0
 12 13  2  0
 13 14  1  0
 14 15  1  0
 15 16  2  0
 16 17  1  0
 17 18  2  0
 18 19  1  0
 19 20  2  0
 20 21  1  0
 18 22  1  0
 17 23  1  0
 16 24  1  0
 14 25  1  0
 14 26  1  0
 13 27  1  0
 27 28  2  0
 28 29  1  0
 29 30  2  0
 30 31  1  0
 31 32  2  0
 32 33  1  0
 33 34  1  0
 34 35  1  0
 34 36  1  0
 34 37  1  0
 33 38  1  0
 38 39  2  0
 39 40  1  0
 40 41  2  0
 41 42  1  0
 40 43  1  0
 39 44  1  0
 32 45  1  0
  2 46  1  0
  1 47  1  0
  1 48  1  0
  1 49  1  0
  5  3  1  0
 28 11  1  0
 41 29  1  0
 20 15  1  0
 38 30  1  0
M  END
>  <cnnaffinity>  (1) 
-6.38026

>  <filename>  (1) 
CC(C1CC1)n1nc(Cc2cccnc2)nc1-c1cccc2c1ncn2C

$$$$
