
     RDKit          3D

 41 42  0  0  0  0  0  0  0  0999 V2000
    7.6470    1.2333   22.6088 C   0  0  0  0  0  0  0  0  0  0  0  0
    8.4247    0.2520   21.7175 C   0  0  0  0  0  0  0  0  0  0  0  0
    9.5201   -0.4647   22.5195 C   0  0  0  0  0  0  0  0  0  0  0  0
    9.1024   -1.0212   23.3666 H   0  0  0  0  0  0  0  0  0  0  0  0
   10.2366    0.2499   22.9352 H   0  0  0  0  0  0  0  0  0  0  0  0
   10.0731   -1.1769   21.8953 H   0  0  0  0  0  0  0  0  0  0  0  0
    7.4933   -0.7856   21.0093 C   0  0  0  0  0  0  0  0  0  0  0  0
    6.7414   -1.6569   22.0400 C   0  0  0  0  0  0  0  0  0  0  0  0
    6.1633   -2.8108   21.3693 N   0  0  0  0  0  0  0  0  0  0  0  0
    5.4652   -4.0345   22.2215 S   0  0  0  0  0  0  0  0  0  0  0  0
    4.4277   -3.4721   23.0618 O   0  0  0  0  0  0  0  0  0  0  0  0
    5.1420   -4.9459   21.1445 O   0  0  0  0  0  0  0  0  0  0  0  0
    6.7477   -4.7288   23.2309 C   0  0  0  0  0  0  0  0  0  0  0  0
    6.8454   -4.4293   24.6038 C   0  0  0  0  0  0  0  0  0  0  0  0
    7.7951   -5.0998   25.3804 C   0  0  0  0  0  0  0  0  0  0  0  0
    8.6369   -6.0597   24.8135 C   0  0  0  0  0  0  0  0  0  0  0  0
    8.5419   -6.3358   23.4433 C   0  0  0  0  0  0  0  0  0  0  0  0
    7.5996   -5.6800   22.6525 C   0  0  0  0  0  0  0  0  0  0  0  0
    7.5096   -5.9469   21.6003 H   0  0  0  0  0  0  0  0  0  0  0  0
    9.1865   -7.0840   22.9916 H   0  0  0  0  0  0  0  0  0  0  0  0
    9.3624   -6.5865   25.4310 H   0  0  0  0  0  0  0  0  0  0  0  0
    7.8734   -4.8728   26.4423 H   0  0  0  0  0  0  0  0  0  0  0  0
    6.1898   -3.7041   25.0827 H   0  0  0  0  0  0  0  0  0  0  0  0
    5.4049   -2.6338   20.7276 H   0  0  0  0  0  0  0  0  0  0  0  0
    7.4529   -2.0422   22.7759 H   0  0  0  0  0  0  0  0  0  0  0  0
    6.0150   -1.0520   22.5942 H   0  0  0  0  0  0  0  0  0  0  0  0
    6.6251   -0.1329   19.9140 C   0  0  0  0  0  0  0  0  0  0  0  0
    5.3863    0.5003   20.1277 C   0  0  0  0  0  0  0  0  0  0  0  0
    4.7951    1.2224   19.0773 C   0  0  0  0  0  0  0  0  0  0  0  0
    5.4403    1.2674   17.8359 C   0  0  0  0  0  0  0  0  0  0  0  0
    6.5922    0.6262   17.5843 N   0  0  0  0  0  0  0  0  0  0  0  0
    7.1432   -0.0492   18.5987 C   0  0  0  0  0  0  0  0  0  0  0  0
    8.0600   -0.5824   18.3512 H   0  0  0  0  0  0  0  0  0  0  0  0
    5.0172    1.8287   17.0031 H   0  0  0  0  0  0  0  0  0  0  0  0
    3.8548    1.7547   19.2029 H   0  0  0  0  0  0  0  0  0  0  0  0
    4.8783    0.4462   21.0960 H   0  0  0  0  0  0  0  0  0  0  0  0
    8.1381   -1.4970   20.4688 H   0  0  0  0  0  0  0  0  0  0  0  0
    8.9245    0.8296   20.9255 H   0  0  0  0  0  0  0  0  0  0  0  0
    6.8923    1.7949   22.0438 H   0  0  0  0  0  0  0  0  0  0  0  0
    8.3202    1.9603   23.0783 H   0  0  0  0  0  0  0  0  0  0  0  0
    7.1328    0.6991   23.4190 H   0  0  0  0  0  0  0  0  0  0  0  0
  1  2  1  0
  2  3  1  0
  3  4  1  0
  3  5  1  0
  3  6  1  0
  2  7  1  0
  7  8  1  0
  8  9  1  0
  9 10  1  0
 10 11  2  0
 10 12  2  0
 10 13  1  0
 13 14  2  0
 14 15  1  0
 15 16  2  0
 16 17  1  0
 17 18  2  0
 18 19  1  0
 17 20  1  0
 16 21  1  0
 15 22  1  0
 14 23  1  0
  9 24  1  0
  8 25  1  0
  8 26  1  0
  7 27  1  0
 27 28  2  0
 28 29  1  0
 29 30  2  0
 30 31  1  0
 31 32  2  0
 32 33  1  0
 30 34  1  0
 29 35  1  0
 28 36  1  0
  7 37  1  0
  2 38  1  0
  1 39  1  0
  1 40  1  0
  1 41  1  0
 18 13  1  0
 32 27  1  0
M  END
>  <cnnaffinity>  (1) 
-5.46278

>  <filename>  (1) 
CC(C)C(CNS(=O)(=O)c1ccccc1)c1cccnc1

$$$$
