
     RDKit          3D

 29 30  0  0  0  0  0  0  0  0999 V2000
    4.9180    1.7768   17.0009 H   0  0  0  0  0  0  0  0  0  0  0  0
    5.4046    1.2909   17.8430 C   0  0  0  0  0  0  0  0  0  0  0  0
    6.5716    0.6779   17.5838 N   0  0  0  0  0  0  0  0  0  0  0  0
    7.1731    0.0467   18.5963 C   0  0  0  0  0  0  0  0  0  0  0  0
    8.1234   -0.4357   18.3777 H   0  0  0  0  0  0  0  0  0  0  0  0
    6.6520   -0.0013   19.8980 C   0  0  0  0  0  0  0  0  0  0  0  0
    7.3724   -0.7033   20.9492 C   0  0  0  0  0  0  0  0  0  0  0  0
    8.0417   -1.8939   20.7559 N   0  0  0  0  0  0  0  0  0  0  0  0
    8.5127   -2.2262   21.9234 C   0  0  0  0  0  0  0  0  0  0  0  0
    9.0927   -3.1188   22.1224 H   0  0  0  0  0  0  0  0  0  0  0  0
    8.2078   -1.2962   22.8824 N   0  0  0  0  0  0  0  0  0  0  0  0
    8.4864   -1.3056   23.8434 H   0  0  0  0  0  0  0  0  0  0  0  0
    7.5006   -0.3007   22.2654 C   0  0  0  0  0  0  0  0  0  0  0  0
    7.0715    0.8315   22.9132 N   0  0  0  0  0  0  0  0  0  0  0  0
    6.8982    1.6223   22.3093 H   0  0  0  0  0  0  0  0  0  0  0  0
    7.1370    1.0988   24.3291 C   0  0  0  0  0  0  0  0  0  0  0  0
    7.0078    0.1412   24.8430 H   0  0  0  0  0  0  0  0  0  0  0  0
    8.4821    1.7018   24.7096 C   0  0  0  0  0  0  0  0  0  0  0  0
    9.3050    1.0441   24.4173 H   0  0  0  0  0  0  0  0  0  0  0  0
    8.5354    1.8692   25.7897 H   0  0  0  0  0  0  0  0  0  0  0  0
    8.6269    2.6670   24.2088 H   0  0  0  0  0  0  0  0  0  0  0  0
    5.9779    2.0040   24.7280 C   0  0  0  0  0  0  0  0  0  0  0  0
    5.0185    1.5618   24.4455 H   0  0  0  0  0  0  0  0  0  0  0  0
    6.0615    2.9887   24.2526 H   0  0  0  0  0  0  0  0  0  0  0  0
    5.9726    2.1593   25.8114 H   0  0  0  0  0  0  0  0  0  0  0  0
    5.4365    0.6580   20.1571 C   0  0  0  0  0  0  0  0  0  0  0  0
    5.0080    0.6292   21.1622 H   0  0  0  0  0  0  0  0  0  0  0  0
    4.8023    1.3111   19.1066 C   0  0  0  0  0  0  0  0  0  0  0  0
    3.8714    1.8445   19.2602 H   0  0  0  0  0  0  0  0  0  0  0  0
  1  2  1  0
  2  3  2  0
  3  4  1  0
  4  5  1  0
  4  6  2  0
  6  7  1  0
  7  8  1  0
  8  9  2  0
  9 10  1  0
  9 11  1  0
 11 12  1  0
 11 13  1  0
 13 14  1  0
 14 15  1  0
 14 16  1  0
 16 17  1  0
 16 18  1  0
 18 19  1  0
 18 20  1  0
 18 21  1  0
 16 22  1  0
 22 23  1  0
 22 24  1  0
 22 25  1  0
  6 26  1  0
 26 27  1  0
 26 28  2  0
 28 29  1  0
 28  2  1  0
 13  7  2  0
M  END
>  <cnnaffinity>  (1) 
-4.50432

>  <filename>  (1) 
CC(C)Nc1[nH]cnc1-c1cccnc1

$$$$
