
     RDKit          3D

 33 35  0  0  0  0  0  0  0  0999 V2000
    4.9255    1.7777   17.0001 H   0  0  0  0  0  0  0  0  0  0  0  0
    5.4065    1.2877   17.8442 C   0  0  0  0  0  0  0  0  0  0  0  0
    6.5694    0.6717   17.5854 N   0  0  0  0  0  0  0  0  0  0  0  0
    7.1806    0.0554   18.6005 C   0  0  0  0  0  0  0  0  0  0  0  0
    8.1266   -0.4305   18.3761 H   0  0  0  0  0  0  0  0  0  0  0  0
    6.6628    0.0040   19.9087 C   0  0  0  0  0  0  0  0  0  0  0  0
    7.4075   -0.7212   20.9520 C   0  0  0  0  0  0  0  0  0  0  0  0
    8.5388   -1.3411   20.7552 N   0  0  0  0  0  0  0  0  0  0  0  0
    9.0182   -1.9428   21.8816 N   0  0  0  0  0  0  0  0  0  0  0  0
    8.2512   -1.7758   22.9165 C   0  0  0  0  0  0  0  0  0  0  0  0
    8.5260   -2.3179   24.2870 C   0  0  0  0  0  0  0  0  0  0  0  0
    7.7498   -3.4101   24.6954 O   0  0  0  0  0  0  0  0  0  0  0  0
    8.0127   -4.6434   24.0190 C   0  0  0  0  0  0  0  0  0  0  0  0
    8.9547   -4.5581   23.4566 H   0  0  0  0  0  0  0  0  0  0  0  0
    6.8833   -4.9362   23.0410 C   0  0  0  0  0  0  0  0  0  0  0  0
    5.9319   -5.0202   23.5768 H   0  0  0  0  0  0  0  0  0  0  0  0
    7.0769   -5.8831   22.5234 H   0  0  0  0  0  0  0  0  0  0  0  0
    6.7952   -4.1410   22.2945 H   0  0  0  0  0  0  0  0  0  0  0  0
    8.1711   -5.7333   25.0660 C   0  0  0  0  0  0  0  0  0  0  0  0
    8.9859   -5.5023   25.7587 H   0  0  0  0  0  0  0  0  0  0  0  0
    8.4210   -6.6685   24.5649 H   0  0  0  0  0  0  0  0  0  0  0  0
    7.2502   -5.8699   25.6421 H   0  0  0  0  0  0  0  0  0  0  0  0
    8.8422   -1.3463   25.3875 C   0  0  0  0  0  0  0  0  0  0  0  0
    8.9019   -0.2919   25.1345 H   0  0  0  0  0  0  0  0  0  0  0  0
    8.4209   -1.5577   26.3665 H   0  0  0  0  0  0  0  0  0  0  0  0
    9.9089   -2.2570   24.8548 C   0  0  0  0  0  0  0  0  0  0  0  0
   10.1814   -3.1018   25.4820 H   0  0  0  0  0  0  0  0  0  0  0  0
   10.6928   -1.8359   24.2384 H   0  0  0  0  0  0  0  0  0  0  0  0
    6.8407   -0.8392   22.5856 S   0  0  0  0  0  0  0  0  0  0  0  0
    5.4402    0.6503   20.1662 C   0  0  0  0  0  0  0  0  0  0  0  0
    4.9940    0.6424   21.1631 H   0  0  0  0  0  0  0  0  0  0  0  0
    4.8109    1.3061   19.1098 C   0  0  0  0  0  0  0  0  0  0  0  0
    3.8795    1.8390   19.2595 H   0  0  0  0  0  0  0  0  0  0  0  0
  1  2  1  0
  2  3  2  0
  3  4  1  0
  4  5  1  0
  4  6  2  0
  6  7  1  0
  7  8  2  0
  8  9  1  0
  9 10  2  0
 10 11  1  0
 11 12  1  0
 12 13  1  0
 13 14  1  0
 13 15  1  0
 15 16  1  0
 15 17  1  0
 15 18  1  0
 13 19  1  0
 19 20  1  0
 19 21  1  0
 19 22  1  0
 11 23  1  0
 23 24  1  0
 23 25  1  0
 23 26  1  0
 26 27  1  0
 26 28  1  0
 10 29  1  0
  6 30  1  0
 30 31  1  0
 30 32  2  0
 32 33  1  0
 32  2  1  0
 29  7  1  0
 26 11  1  0
M  END
>  <cnnaffinity>  (1) 
-5.02394

>  <filename>  (1) 
CC(C)OC1(c2nnc(-c3cccnc3)s2)CC1

$$$$
