
     RDKit          3D

 45 48  0  0  0  0  0  0  0  0999 V2000
   11.7028   -0.6700   21.3595 C   0  0  0  0  0  0  0  0  0  0  0  0
   11.2579   -1.5202   22.5535 C   0  0  0  0  0  0  0  0  0  0  0  0
   11.0247   -0.6466   23.7976 C   0  0  0  0  0  0  0  0  0  0  0  0
   12.2576    0.0116   24.0645 O   0  0  0  0  0  0  0  0  0  0  0  0
   12.1326    0.6511   24.7699 H   0  0  0  0  0  0  0  0  0  0  0  0
   10.2079    0.0720   23.6035 H   0  0  0  0  0  0  0  0  0  0  0  0
   10.7151   -1.2643   24.6599 H   0  0  0  0  0  0  0  0  0  0  0  0
   10.0647   -2.4326   22.2170 C   0  0  0  0  0  0  0  0  0  0  0  0
    8.7822   -1.7847   21.9949 N   0  0  0  0  0  0  0  0  0  0  0  0
    8.4754   -1.3069   20.7668 N   0  0  0  0  0  0  0  0  0  0  0  0
    7.3541   -0.6460   20.9786 C   0  0  0  0  0  0  0  0  0  0  0  0
    6.6380    0.0201   19.9100 C   0  0  0  0  0  0  0  0  0  0  0  0
    5.4177    0.6630   20.1513 C   0  0  0  0  0  0  0  0  0  0  0  0
    4.8058    1.3059   19.0846 C   0  0  0  0  0  0  0  0  0  0  0  0
    5.4308    1.2770   17.8334 C   0  0  0  0  0  0  0  0  0  0  0  0
    6.5920    0.6473   17.5921 N   0  0  0  0  0  0  0  0  0  0  0  0
    7.1854    0.0331   18.6189 C   0  0  0  0  0  0  0  0  0  0  0  0
    8.1371   -0.4590   18.4063 H   0  0  0  0  0  0  0  0  0  0  0  0
    4.9780    1.7865   16.9891 H   0  0  0  0  0  0  0  0  0  0  0  0
    3.8742    1.8384   19.2226 H   0  0  0  0  0  0  0  0  0  0  0  0
    4.9978    0.6549   21.1598 H   0  0  0  0  0  0  0  0  0  0  0  0
    6.9351   -0.6389   22.2694 N   0  0  0  0  0  0  0  0  0  0  0  0
    7.8174   -1.4091   22.8657 C   0  0  0  0  0  0  0  0  0  0  0  0
    7.7918   -1.8074   24.2540 C   0  0  0  0  0  0  0  0  0  0  0  0
    7.8777   -0.8070   25.1909 C   0  0  0  0  0  0  0  0  0  0  0  0
    7.9793   -1.0291   26.5163 N   0  0  0  0  0  0  0  0  0  0  0  0
    7.9302   -2.2829   26.9276 C   0  0  0  0  0  0  0  0  0  0  0  0
    7.7620   -3.4044   26.0705 C   0  0  0  0  0  0  0  0  0  0  0  0
    7.6369   -4.7437   26.5393 C   0  0  0  0  0  0  0  0  0  0  0  0
    7.6479   -5.0506   28.2494 Cl  0  0  0  0  0  0  0  0  0  0  0  0
    7.4805   -5.8042   25.6761 C   0  0  0  0  0  0  0  0  0  0  0  0
    7.4386   -5.5707   24.2798 C   0  0  0  0  0  0  0  0  0  0  0  0
    7.5427   -4.2875   23.7792 C   0  0  0  0  0  0  0  0  0  0  0  0
    7.6998   -3.1743   24.6629 C   0  0  0  0  0  0  0  0  0  0  0  0
    7.5008   -4.1141   22.7101 H   0  0  0  0  0  0  0  0  0  0  0  0
    7.3155   -6.4038   23.5942 H   0  0  0  0  0  0  0  0  0  0  0  0
    7.3811   -6.8050   26.0857 H   0  0  0  0  0  0  0  0  0  0  0  0
    8.0238   -2.4439   27.9889 H   0  0  0  0  0  0  0  0  0  0  0  0
    7.9245    0.2370   24.8803 H   0  0  0  0  0  0  0  0  0  0  0  0
   10.2455   -2.9385   21.2779 H   0  0  0  0  0  0  0  0  0  0  0  0
    9.9378   -3.1910   22.9943 H   0  0  0  0  0  0  0  0  0  0  0  0
   12.0793   -2.2186   22.7760 H   0  0  0  0  0  0  0  0  0  0  0  0
   10.8850   -0.0443   20.9840 H   0  0  0  0  0  0  0  0  0  0  0  0
   12.0801   -1.2868   20.5381 H   0  0  0  0  0  0  0  0  0  0  0  0
   12.5128   -0.0083   21.6825 H   0  0  0  0  0  0  0  0  0  0  0  0
  1  2  1  0
  2  3  1  0
  3  4  1  0
  4  5  1  0
  3  6  1  0
  3  7  1  0
  2  8  1  0
  8  9  1  0
  9 10  1  0
 10 11  2  0
 11 12  1  0
 12 13  2  0
 13 14  1  0
 14 15  2  0
 15 16  1  0
 16 17  2  0
 17 18  1  0
 15 19  1  0
 14 20  1  0
 13 21  1  0
 11 22  1  0
 22 23  2  0
 23 24  1  0
 24 25  2  0
 25 26  1  0
 26 27  2  0
 27 28  1  0
 28 29  2  0
 29 30  1  0
 29 31  1  0
 31 32  2  0
 32 33  1  0
 33 34  2  0
 33 35  1  0
 32 36  1  0
 31 37  1  0
 27 38  1  0
 25 39  1  0
  8 40  1  0
  8 41  1  0
  2 42  1  0
  1 43  1  0
  1 44  1  0
  1 45  1  0
 23  9  1  0
 34 24  1  0
 17 12  1  0
 34 28  1  0
M  END
>  <cnnaffinity>  (1) 
-6.24755

>  <filename>  (1) 
CC(CO)Cn1nc(-c2cccnc2)nc1-c1cncc2c(Cl)cccc12

$$$$
