
     RDKit          3D

 51 55  0  0  0  0  0  0  0  0999 V2000
    8.6607    2.2124   25.4905 C   0  0  0  0  0  0  0  0  0  0  0  0
    8.9979    2.8047   24.1092 C   0  0  0  0  0  0  0  0  0  0  0  0
    8.1635    4.0638   23.7418 C   0  0  0  0  0  0  0  0  0  0  0  0
    8.4284    5.2279   24.6589 C   0  0  0  0  0  0  0  0  0  0  0  0
    9.5507    6.0537   24.4933 C   0  0  0  0  0  0  0  0  0  0  0  0
    9.7815    7.0778   25.4133 C   0  0  0  0  0  0  0  0  0  0  0  0
    8.9845    7.3306   26.4601 N   0  0  0  0  0  0  0  0  0  0  0  0
    7.9119    6.5431   26.6134 C   0  0  0  0  0  0  0  0  0  0  0  0
    7.5960    5.4907   25.7528 C   0  0  0  0  0  0  0  0  0  0  0  0
    6.7186    4.8779   25.9366 H   0  0  0  0  0  0  0  0  0  0  0  0
    7.2693    6.7627   27.4639 H   0  0  0  0  0  0  0  0  0  0  0  0
   10.6460    7.7314   25.3074 H   0  0  0  0  0  0  0  0  0  0  0  0
   10.2341    5.9163   23.6597 H   0  0  0  0  0  0  0  0  0  0  0  0
    7.0968    3.8101   23.7418 H   0  0  0  0  0  0  0  0  0  0  0  0
    8.4002    4.3531   22.7101 H   0  0  0  0  0  0  0  0  0  0  0  0
    8.9257    1.7798   23.0080 C   0  0  0  0  0  0  0  0  0  0  0  0
    7.8885    1.0170   22.7237 N   0  0  0  0  0  0  0  0  0  0  0  0
    8.3313    0.2449   21.6983 C   0  0  0  0  0  0  0  0  0  0  0  0
    7.4264   -0.7065   20.9572 C   0  0  0  0  0  0  0  0  0  0  0  0
    6.6570   -0.0407   19.8173 C   0  0  0  0  0  0  0  0  0  0  0  0
    5.4527    0.6253   20.0778 C   0  0  0  0  0  0  0  0  0  0  0  0
    4.8113    1.3085   19.0431 C   0  0  0  0  0  0  0  0  0  0  0  0
    5.4012    1.3022   17.7769 C   0  0  0  0  0  0  0  0  0  0  0  0
    6.5410    0.6526   17.4948 N   0  0  0  0  0  0  0  0  0  0  0  0
    7.1419    0.0000   18.4978 C   0  0  0  0  0  0  0  0  0  0  0  0
    8.0665   -0.5214   18.2416 H   0  0  0  0  0  0  0  0  0  0  0  0
    4.9406    1.8368   16.9489 H   0  0  0  0  0  0  0  0  0  0  0  0
    3.8869    1.8510   19.2071 H   0  0  0  0  0  0  0  0  0  0  0  0
    5.0444    0.6106   21.0894 H   0  0  0  0  0  0  0  0  0  0  0  0
    6.7193   -1.1222   21.6862 H   0  0  0  0  0  0  0  0  0  0  0  0
    8.0432   -1.5285   20.5797 H   0  0  0  0  0  0  0  0  0  0  0  0
    9.5910    0.4569   21.3512 N   0  0  0  0  0  0  0  0  0  0  0  0
    9.9554    1.4865   22.1626 N   0  0  0  0  0  0  0  0  0  0  0  0
   11.2571    2.0665   22.1822 C   0  0  0  0  0  0  0  0  0  0  0  0
   11.4702    3.4451   22.2065 C   0  0  0  0  0  0  0  0  0  0  0  0
   12.7502    3.9870   22.4461 C   0  0  0  0  0  0  0  0  0  0  0  0
   13.8456    3.1614   22.6692 C   0  0  0  0  0  0  0  0  0  0  0  0
   13.6570    1.7595   22.6424 C   0  0  0  0  0  0  0  0  0  0  0  0
   12.3835    1.2471   22.3339 C   0  0  0  0  0  0  0  0  0  0  0  0
   12.5557   -0.1140   22.2672 N   0  0  0  0  0  0  0  0  0  0  0  0
   13.8729   -0.3564   22.5196 C   0  0  0  0  0  0  0  0  0  0  0  0
   14.5650    0.7179   22.7649 N   0  0  0  0  0  0  0  0  0  0  0  0
   14.2728   -1.3596   22.5330 H   0  0  0  0  0  0  0  0  0  0  0  0
   11.8786   -0.7358   21.8523 H   0  0  0  0  0  0  0  0  0  0  0  0
   14.8254    3.5916   22.7992 H   0  0  0  0  0  0  0  0  0  0  0  0
   12.8920    5.0623   22.4417 H   0  0  0  0  0  0  0  0  0  0  0  0
   10.6332    4.1221   22.1118 H   0  0  0  0  0  0  0  0  0  0  0  0
   10.0388    3.1299   24.1790 H   0  0  0  0  0  0  0  0  0  0  0  0
    9.3159    1.3613   25.7084 H   0  0  0  0  0  0  0  0  0  0  0  0
    7.6235    1.8660   25.5586 H   0  0  0  0  0  0  0  0  0  0  0  0
    8.8227    2.9526   26.2812 H   0  0  0  0  0  0  0  0  0  0  0  0
  1  2  1  0
  2  3  1  0
  3  4  1  0
  4  5  2  0
  5  6  1  0
  6  7  2  0
  7  8  1  0
  8  9  2  0
  9 10  1  0
  8 11  1  0
  6 12  1  0
  5 13  1  0
  3 14  1  0
  3 15  1  0
  2 16  1  0
 16 17  2  0
 17 18  1  0
 18 19  1  0
 19 20  1  0
 20 21  2  0
 21 22  1  0
 22 23  2  0
 23 24  1  0
 24 25  2  0
 25 26  1  0
 23 27  1  0
 22 28  1  0
 21 29  1  0
 19 30  1  0
 19 31  1  0
 18 32  2  0
 32 33  1  0
 33 34  1  0
 34 35  2  0
 35 36  1  0
 36 37  2  0
 37 38  1  0
 38 39  2  0
 39 40  1  0
 40 41  1  0
 41 42  2  0
 41 43  1  0
 40 44  1  0
 37 45  1  0
 36 46  1  0
 35 47  1  0
  2 48  1  0
  1 49  1  0
  1 50  1  0
  1 51  1  0
  9  4  1  0
 33 16  1  0
 39 34  1  0
 25 20  1  0
 42 38  1  0
M  END
>  <cnnaffinity>  (1) 
-6.98231

>  <filename>  (1) 
CC(Cc1ccncc1)c1nc(Cc2cccnc2)nn1-c1cccc2nc[nH]c12

$$$$
