
     RDKit          3D

 43 46  0  0  0  0  0  0  0  0999 V2000
   11.8493    2.4274   21.1745 C   0  0  0  0  0  0  0  0  0  0  0  0
   11.4199    1.7047   22.4545 C   0  0  0  0  0  0  0  0  0  0  0  0
   10.0111    1.3069   22.3698 N   0  0  0  0  0  0  0  0  0  0  0  0
    9.6381    0.3938   21.4499 N   0  0  0  0  0  0  0  0  0  0  0  0
    8.3450    0.2482   21.6767 C   0  0  0  0  0  0  0  0  0  0  0  0
    7.5155   -0.6990   20.8536 C   0  0  0  0  0  0  0  0  0  0  0  0
    6.7249   -0.0464   19.7163 C   0  0  0  0  0  0  0  0  0  0  0  0
    5.5364    0.6416   20.0021 C   0  0  0  0  0  0  0  0  0  0  0  0
    4.8741    1.3159   18.9729 C   0  0  0  0  0  0  0  0  0  0  0  0
    5.4256    1.2876   17.6897 C   0  0  0  0  0  0  0  0  0  0  0  0
    6.5470    0.6170   17.3829 N   0  0  0  0  0  0  0  0  0  0  0  0
    7.1655   -0.0311   18.3787 C   0  0  0  0  0  0  0  0  0  0  0  0
    8.0771   -0.5608   18.1007 H   0  0  0  0  0  0  0  0  0  0  0  0
    4.9427    1.8199   16.8711 H   0  0  0  0  0  0  0  0  0  0  0  0
    3.9580    1.8709   19.1508 H   0  0  0  0  0  0  0  0  0  0  0  0
    5.1473    0.6593   21.0225 H   0  0  0  0  0  0  0  0  0  0  0  0
    8.1922   -1.4688   20.4672 H   0  0  0  0  0  0  0  0  0  0  0  0
    6.8212   -1.1912   21.5447 H   0  0  0  0  0  0  0  0  0  0  0  0
    7.8550    1.0044   22.6857 N   0  0  0  0  0  0  0  0  0  0  0  0
    8.9122    1.7040   23.0737 C   0  0  0  0  0  0  0  0  0  0  0  0
    8.9621    2.7761   24.0908 C   0  0  0  0  0  0  0  0  0  0  0  0
    8.2772    2.6920   25.2666 C   0  0  0  0  0  0  0  0  0  0  0  0
    8.2144    3.8132   26.1443 C   0  0  0  0  0  0  0  0  0  0  0  0
    7.6085    4.0659   27.3525 C   0  0  0  0  0  0  0  0  0  0  0  0
    7.9050    5.4044   27.7113 C   0  0  0  0  0  0  0  0  0  0  0  0
    8.6858    5.9513   26.7296 C   0  0  0  0  0  0  0  0  0  0  0  0
    8.8913    4.9897   25.7636 N   0  0  0  0  0  0  0  0  0  0  0  0
    9.6736    5.1034   24.6054 C   0  0  0  0  0  0  0  0  0  0  0  0
   10.2641    6.0996   24.2496 O   0  0  0  0  0  0  0  0  0  0  0  0
    9.7380    3.9369   23.8561 N   0  0  0  0  0  0  0  0  0  0  0  0
   10.1282    4.1973   22.9616 H   0  0  0  0  0  0  0  0  0  0  0  0
    9.0772    6.9516   26.6004 H   0  0  0  0  0  0  0  0  0  0  0  0
    7.5560    5.9171   28.5958 H   0  0  0  0  0  0  0  0  0  0  0  0
    7.0226    3.3398   27.9026 H   0  0  0  0  0  0  0  0  0  0  0  0
    7.7842    1.7810   25.5718 H   0  0  0  0  0  0  0  0  0  0  0  0
   12.3096    0.4814   22.7775 C   0  0  0  0  0  0  0  0  0  0  0  0
   13.6124    0.8318   22.7013 F   0  0  0  0  0  0  0  0  0  0  0  0
   12.1261   -0.5402   21.9416 F   0  0  0  0  0  0  0  0  0  0  0  0
   12.1037    0.0535   24.0368 F   0  0  0  0  0  0  0  0  0  0  0  0
   11.5268    2.3475   23.3281 H   0  0  0  0  0  0  0  0  0  0  0  0
   11.0173    2.9652   20.7232 H   0  0  0  0  0  0  0  0  0  0  0  0
   12.6724    3.1220   21.3642 H   0  0  0  0  0  0  0  0  0  0  0  0
   12.1537    1.7010   20.4284 H   0  0  0  0  0  0  0  0  0  0  0  0
  1  2  1  0
  2  3  1  0
  3  4  1  0
  4  5  2  0
  5  6  1  0
  6  7  1  0
  7  8  2  0
  8  9  1  0
  9 10  2  0
 10 11  1  0
 11 12  2  0
 12 13  1  0
 10 14  1  0
  9 15  1  0
  8 16  1  0
  6 17  1  0
  6 18  1  0
  5 19  1  0
 19 20  2  0
 20 21  1  0
 21 22  2  0
 22 23  1  0
 23 24  2  0
 24 25  1  0
 25 26  2  0
 26 27  1  0
 27 28  1  0
 28 29  2  0
 28 30  1  0
 30 31  1  0
 26 32  1  0
 25 33  1  0
 24 34  1  0
 22 35  1  0
  2 36  1  0
 36 37  1  0
 36 38  1  0
 36 39  1  0
  2 40  1  0
  1 41  1  0
  1 42  1  0
  1 43  1  0
 20  3  1  0
 30 21  1  0
 12  7  1  0
 27 23  1  0
M  END
>  <cnnaffinity>  (1) 
-6.00679

>  <filename>  (1) 
CC(n1nc(Cc2cccnc2)nc1-c1cc2cccn2c(=O)[nH]1)C(F)(F)F

$$$$
