
     RDKit          3D

 45 48  0  0  0  0  0  0  0  0999 V2000
   11.8349    2.6266   21.0591 C   0  0  0  0  0  0  0  0  0  0  0  0
   11.3900    2.0209   22.3983 C   0  0  0  0  0  0  0  0  0  0  0  0
    9.9829    1.6190   22.3297 N   0  0  0  0  0  0  0  0  0  0  0  0
    9.6300    0.6733   21.4316 N   0  0  0  0  0  0  0  0  0  0  0  0
    8.3569    0.4575   21.7095 C   0  0  0  0  0  0  0  0  0  0  0  0
    7.5658   -0.5491   20.9292 C   0  0  0  0  0  0  0  0  0  0  0  0
    6.7598    0.0315   19.7752 C   0  0  0  0  0  0  0  0  0  0  0  0
    5.5437    0.6685   20.0469 C   0  0  0  0  0  0  0  0  0  0  0  0
    4.8627    1.3060   19.0074 C   0  0  0  0  0  0  0  0  0  0  0  0
    5.4186    1.2720   17.7252 C   0  0  0  0  0  0  0  0  0  0  0  0
    6.5520    0.6169   17.4317 N   0  0  0  0  0  0  0  0  0  0  0  0
    7.1916    0.0062   18.4380 C   0  0  0  0  0  0  0  0  0  0  0  0
    8.0938   -0.5456   18.1701 H   0  0  0  0  0  0  0  0  0  0  0  0
    4.9339    1.7842   16.8930 H   0  0  0  0  0  0  0  0  0  0  0  0
    3.9313    1.8358   19.1778 H   0  0  0  0  0  0  0  0  0  0  0  0
    5.1546    0.6478   21.0672 H   0  0  0  0  0  0  0  0  0  0  0  0
    8.2742   -1.3043   20.5754 H   0  0  0  0  0  0  0  0  0  0  0  0
    6.8822   -1.0370   21.6312 H   0  0  0  0  0  0  0  0  0  0  0  0
    7.8720    1.1849   22.7423 N   0  0  0  0  0  0  0  0  0  0  0  0
    8.9025    1.9339   23.1000 C   0  0  0  0  0  0  0  0  0  0  0  0
    8.9308    2.8954   24.2196 C   0  0  0  0  0  0  0  0  0  0  0  0
    8.5823    2.5059   25.5227 C   0  0  0  0  0  0  0  0  0  0  0  0
    8.6374    3.4163   26.5810 C   0  0  0  0  0  0  0  0  0  0  0  0
    9.0176    4.7439   26.3559 C   0  0  0  0  0  0  0  0  0  0  0  0
    9.3264    5.1526   25.0673 C   0  0  0  0  0  0  0  0  0  0  0  0
    9.3023    4.2308   23.9941 C   0  0  0  0  0  0  0  0  0  0  0  0
    9.5756    4.6307   22.7187 O   0  0  0  0  0  0  0  0  0  0  0  0
    9.9523    6.0043   22.5254 C   0  0  0  0  0  0  0  0  0  0  0  0
    9.2510    6.9041   23.5332 C   0  0  0  0  0  0  0  0  0  0  0  0
    9.5945    6.4824   24.8512 O   0  0  0  0  0  0  0  0  0  0  0  0
    9.5636    7.9439   23.4512 H   0  0  0  0  0  0  0  0  0  0  0  0
    8.1624    6.8409   23.3758 H   0  0  0  0  0  0  0  0  0  0  0  0
   11.0416    6.1034   22.6078 H   0  0  0  0  0  0  0  0  0  0  0  0
    9.6314    6.2675   21.5175 H   0  0  0  0  0  0  0  0  0  0  0  0
    9.0502    5.5111   27.1239 H   0  0  0  0  0  0  0  0  0  0  0  0
    8.3639    3.0889   27.5779 H   0  0  0  0  0  0  0  0  0  0  0  0
    8.2270    1.4947   25.6933 H   0  0  0  0  0  0  0  0  0  0  0  0
   12.2590    0.8260   22.8662 C   0  0  0  0  0  0  0  0  0  0  0  0
   12.1252   -0.2606   22.1035 F   0  0  0  0  0  0  0  0  0  0  0  0
   11.9849    0.4767   24.1361 F   0  0  0  0  0  0  0  0  0  0  0  0
   13.5608    1.1833   22.8418 F   0  0  0  0  0  0  0  0  0  0  0  0
   11.4863    2.7465   23.2053 H   0  0  0  0  0  0  0  0  0  0  0  0
   12.3049    1.8823   20.4296 H   0  0  0  0  0  0  0  0  0  0  0  0
   10.9610    2.9600   20.5056 H   0  0  0  0  0  0  0  0  0  0  0  0
   12.5271    3.4625   21.1928 H   0  0  0  0  0  0  0  0  0  0  0  0
  1  2  1  0
  2  3  1  0
  3  4  1  0
  4  5  2  0
  5  6  1  0
  6  7  1  0
  7  8  2  0
  8  9  1  0
  9 10  2  0
 10 11  1  0
 11 12  2  0
 12 13  1  0
 10 14  1  0
  9 15  1  0
  8 16  1  0
  6 17  1  0
  6 18  1  0
  5 19  1  0
 19 20  2  0
 20 21  1  0
 21 22  2  0
 22 23  1  0
 23 24  2  0
 24 25  1  0
 25 26  2  0
 26 27  1  0
 27 28  1  0
 28 29  1  0
 29 30  1  0
 29 31  1  0
 29 32  1  0
 28 33  1  0
 28 34  1  0
 24 35  1  0
 23 36  1  0
 22 37  1  0
  2 38  1  0
 38 39  1  0
 38 40  1  0
 38 41  1  0
  2 42  1  0
  1 43  1  0
  1 44  1  0
  1 45  1  0
 20  3  1  0
 26 21  1  0
 12  7  1  0
 30 25  1  0
M  END
>  <cnnaffinity>  (1) 
-5.93699

>  <filename>  (1) 
CC(n1nc(Cc2cccnc2)nc1-c1cccc2c1OCCO2)C(F)(F)F

$$$$
