
     RDKit          3D

 36 37  0  0  0  0  0  0  0  0999 V2000
    6.7005   -2.0023   21.3142 C   0  0  0  0  0  0  0  0  0  0  0  0
    7.4293   -0.7050   21.0002 C   0  0  0  0  0  0  0  0  0  0  0  0
    7.5465    0.1339   22.1804 N   0  0  0  0  0  0  0  0  0  0  0  0
    8.2736    1.3042   22.1701 C   0  0  0  0  0  0  0  0  0  0  0  0
    8.9675    1.5666   21.1886 O   0  0  0  0  0  0  0  0  0  0  0  0
    8.2561    2.1351   23.2874 N   0  0  0  0  0  0  0  0  0  0  0  0
    7.5755    1.7747   24.5349 C   0  0  0  0  0  0  0  0  0  0  0  0
    7.8119    2.4933   25.3307 H   0  0  0  0  0  0  0  0  0  0  0  0
    7.8868    0.7871   24.8869 H   0  0  0  0  0  0  0  0  0  0  0  0
    6.4894    1.7758   24.3973 H   0  0  0  0  0  0  0  0  0  0  0  0
    8.9710    3.3363   23.2644 C   0  0  0  0  0  0  0  0  0  0  0  0
    8.4290    4.4187   22.5760 C   0  0  0  0  0  0  0  0  0  0  0  0
    9.0792    5.6500   22.5424 C   0  0  0  0  0  0  0  0  0  0  0  0
   10.2786    5.8044   23.2331 C   0  0  0  0  0  0  0  0  0  0  0  0
   10.8522    4.7248   23.9189 C   0  0  0  0  0  0  0  0  0  0  0  0
   10.2162    3.4690   23.9012 C   0  0  0  0  0  0  0  0  0  0  0  0
   11.2191    1.6394   24.7575 I   0  0  0  0  0  0  0  0  0  0  0  0
   11.7984    4.8668   24.4365 H   0  0  0  0  0  0  0  0  0  0  0  0
   10.7764    6.7638   23.2003 H   0  0  0  0  0  0  0  0  0  0  0  0
    8.6658    6.4715   21.9639 H   0  0  0  0  0  0  0  0  0  0  0  0
    7.5008    4.2762   22.0439 H   0  0  0  0  0  0  0  0  0  0  0  0
    6.9351   -0.0291   22.9757 H   0  0  0  0  0  0  0  0  0  0  0  0
    6.6744    0.0288   19.9229 C   0  0  0  0  0  0  0  0  0  0  0  0
    5.4487    0.6563   20.1631 C   0  0  0  0  0  0  0  0  0  0  0  0
    4.8186    1.2980   19.0972 C   0  0  0  0  0  0  0  0  0  0  0  0
    5.4108    1.2912   17.8313 C   0  0  0  0  0  0  0  0  0  0  0  0
    6.5762    0.6678   17.5882 N   0  0  0  0  0  0  0  0  0  0  0  0
    7.1912    0.0612   18.6209 C   0  0  0  0  0  0  0  0  0  0  0  0
    8.1360   -0.4367   18.4313 H   0  0  0  0  0  0  0  0  0  0  0  0
    4.9108    1.8176   17.0226 H   0  0  0  0  0  0  0  0  0  0  0  0
    3.8789    1.8206   19.2325 H   0  0  0  0  0  0  0  0  0  0  0  0
    4.9969    0.6554   21.1526 H   0  0  0  0  0  0  0  0  0  0  0  0
    8.4353   -0.9559   20.6428 H   0  0  0  0  0  0  0  0  0  0  0  0
    6.6466   -2.6188   20.4110 H   0  0  0  0  0  0  0  0  0  0  0  0
    5.6850   -1.7898   21.6570 H   0  0  0  0  0  0  0  0  0  0  0  0
    7.2240   -2.5667   22.0903 H   0  0  0  0  0  0  0  0  0  0  0  0
  1  2  1  0
  2  3  1  0
  3  4  1  0
  4  5  2  0
  4  6  1  0
  6  7  1  0
  7  8  1  0
  7  9  1  0
  7 10  1  0
  6 11  1  0
 11 12  2  0
 12 13  1  0
 13 14  2  0
 14 15  1  0
 15 16  2  0
 16 17  1  0
 15 18  1  0
 14 19  1  0
 13 20  1  0
 12 21  1  0
  3 22  1  0
  2 23  1  0
 23 24  2  0
 24 25  1  0
 25 26  2  0
 26 27  1  0
 27 28  2  0
 28 29  1  0
 26 30  1  0
 25 31  1  0
 24 32  1  0
  2 33  1  0
  1 34  1  0
  1 35  1  0
  1 36  1  0
 16 11  1  0
 28 23  1  0
M  END
>  <cnnaffinity>  (1) 
-5.45643

>  <filename>  (1) 
CC(NC(=O)N(C)c1ccccc1I)c1cccnc1

$$$$
