
     RDKit          3D

 34 35  0  0  0  0  0  0  0  0999 V2000
    8.2171   -0.0398   25.4124 C   0  0  0  0  0  0  0  0  0  0  0  0
    8.3074    0.0617   23.8866 C   0  0  0  0  0  0  0  0  0  0  0  0
    7.6368   -1.1725   23.3583 N   0  0  0  0  0  0  0  0  0  0  0  0
    7.1312   -1.4349   22.1218 C   0  0  0  0  0  0  0  0  0  0  0  0
    6.0215   -2.6451   21.9051 S   0  0  0  0  0  0  0  0  0  0  0  0
    7.6509   -0.6516   21.1299 N   0  0  0  0  0  0  0  0  0  0  0  0
    6.8506   -0.0900   20.0838 C   0  0  0  0  0  0  0  0  0  0  0  0
    5.6719    0.5908   20.3952 C   0  0  0  0  0  0  0  0  0  0  0  0
    5.0280    1.2997   19.3743 C   0  0  0  0  0  0  0  0  0  0  0  0
    5.5402    1.2268   18.0732 C   0  0  0  0  0  0  0  0  0  0  0  0
    6.6304    0.5118   17.7508 N   0  0  0  0  0  0  0  0  0  0  0  0
    7.2669   -0.1296   18.7417 C   0  0  0  0  0  0  0  0  0  0  0  0
    8.1632   -0.7001   18.4934 H   0  0  0  0  0  0  0  0  0  0  0  0
    5.0598    1.7566   17.2531 H   0  0  0  0  0  0  0  0  0  0  0  0
    4.1540    1.9098   19.5859 H   0  0  0  0  0  0  0  0  0  0  0  0
    5.2856    0.5506   21.4193 H   0  0  0  0  0  0  0  0  0  0  0  0
    8.3766   -0.0310   21.4675 H   0  0  0  0  0  0  0  0  0  0  0  0
    7.0994   -1.7244   24.0169 H   0  0  0  0  0  0  0  0  0  0  0  0
    7.8324    1.4259   23.2885 C   0  0  0  0  0  0  0  0  0  0  0  0
    8.6376    1.9339   22.3413 N   0  0  0  0  0  0  0  0  0  0  0  0
    8.1987    3.0146   21.6973 C   0  0  0  0  0  0  0  0  0  0  0  0
    6.9582    3.5899   21.9457 C   0  0  0  0  0  0  0  0  0  0  0  0
    6.1867    2.9864   22.9393 C   0  0  0  0  0  0  0  0  0  0  0  0
    4.7450    3.4961   23.1987 C   0  0  0  0  0  0  0  0  0  0  0  0
    4.1855    3.0381   24.3213 F   0  0  0  0  0  0  0  0  0  0  0  0
    3.9302    3.1581   22.1684 F   0  0  0  0  0  0  0  0  0  0  0  0
    4.7190    4.8413   23.2765 F   0  0  0  0  0  0  0  0  0  0  0  0
    6.6467    1.9211   23.6311 N   0  0  0  0  0  0  0  0  0  0  0  0
    6.6338    4.4671   21.3958 H   0  0  0  0  0  0  0  0  0  0  0  0
    8.8548    3.4282   20.9383 H   0  0  0  0  0  0  0  0  0  0  0  0
    9.3599    0.0095   23.5790 H   0  0  0  0  0  0  0  0  0  0  0  0
    7.1775    0.0912   25.7448 H   0  0  0  0  0  0  0  0  0  0  0  0
    8.8417    0.6991   25.9275 H   0  0  0  0  0  0  0  0  0  0  0  0
    8.5766   -1.0314   25.7179 H   0  0  0  0  0  0  0  0  0  0  0  0
  1  2  1  0
  2  3  1  0
  3  4  1  0
  4  5  2  0
  4  6  1  0
  6  7  1  0
  7  8  2  0
  8  9  1  0
  9 10  2  0
 10 11  1  0
 11 12  2  0
 12 13  1  0
 10 14  1  0
  9 15  1  0
  8 16  1  0
  6 17  1  0
  3 18  1  0
  2 19  1  0
 19 20  2  0
 20 21  1  0
 21 22  2  0
 22 23  1  0
 23 24  1  0
 24 25  1  0
 24 26  1  0
 24 27  1  0
 23 28  2  0
 22 29  1  0
 21 30  1  0
  2 31  1  0
  1 32  1  0
  1 33  1  0
  1 34  1  0
 12  7  1  0
 28 19  1  0
M  END
>  <cnnaffinity>  (1) 
-5.58004

>  <filename>  (1) 
CC(NC(=S)Nc1cccnc1)c1nccc(C(F)(F)F)n1

$$$$
