
     RDKit          3D

 28 29  0  0  0  0  0  0  0  0999 V2000
    7.0913   -2.0338   21.1247 C   0  0  0  0  0  0  0  0  0  0  0  0
    7.1944   -0.5245   21.2227 C   0  0  0  0  0  0  0  0  0  0  0  0
    8.6095   -0.1463   21.1780 N   0  0  0  0  0  0  0  0  0  0  0  0
    9.0255    1.0730   21.6526 C   0  0  0  0  0  0  0  0  0  0  0  0
    8.0235    1.9218   21.8623 N   0  0  0  0  0  0  0  0  0  0  0  0
    8.3100    3.1477   22.2716 C   0  0  0  0  0  0  0  0  0  0  0  0
    9.6219    3.5390   22.5278 C   0  0  0  0  0  0  0  0  0  0  0  0
   10.6809    2.6623   22.3119 C   0  0  0  0  0  0  0  0  0  0  0  0
   12.7960    3.3095   22.7199 I   0  0  0  0  0  0  0  0  0  0  0  0
   10.3791    1.3805   21.8583 C   0  0  0  0  0  0  0  0  0  0  0  0
   11.6442    0.1835   21.6306 Cl  0  0  0  0  0  0  0  0  0  0  0  0
    9.8139    4.5443   22.8681 H   0  0  0  0  0  0  0  0  0  0  0  0
    7.4873    3.8494   22.3837 H   0  0  0  0  0  0  0  0  0  0  0  0
    9.3037   -0.8144   20.8693 H   0  0  0  0  0  0  0  0  0  0  0  0
    6.5205    0.1414   20.0571 C   0  0  0  0  0  0  0  0  0  0  0  0
    5.2888    0.7978   20.1690 C   0  0  0  0  0  0  0  0  0  0  0  0
    4.7573    1.3804   19.0185 C   0  0  0  0  0  0  0  0  0  0  0  0
    5.4546    1.3030   17.8081 C   0  0  0  0  0  0  0  0  0  0  0  0
    6.6349    0.6664   17.7004 N   0  0  0  0  0  0  0  0  0  0  0  0
    7.1511    0.1052   18.8086 C   0  0  0  0  0  0  0  0  0  0  0  0
    8.1036   -0.4088   18.7333 H   0  0  0  0  0  0  0  0  0  0  0  0
    5.0140    1.7479   16.9205 H   0  0  0  0  0  0  0  0  0  0  0  0
    3.8097    1.9057   19.0484 H   0  0  0  0  0  0  0  0  0  0  0  0
    4.7667    0.8701   21.1223 H   0  0  0  0  0  0  0  0  0  0  0  0
    6.7457   -0.2097   22.1740 H   0  0  0  0  0  0  0  0  0  0  0  0
    7.4179   -2.3404   20.1398 H   0  0  0  0  0  0  0  0  0  0  0  0
    7.7268   -2.5145   21.8732 H   0  0  0  0  0  0  0  0  0  0  0  0
    6.0605   -2.3715   21.2669 H   0  0  0  0  0  0  0  0  0  0  0  0
  1  2  1  0
  2  3  1  0
  3  4  1  0
  4  5  2  0
  5  6  1  0
  6  7  2  0
  7  8  1  0
  8  9  1  0
  8 10  2  0
 10 11  1  0
  7 12  1  0
  6 13  1  0
  3 14  1  0
  2 15  1  0
 15 16  2  0
 16 17  1  0
 17 18  2  0
 18 19  1  0
 19 20  2  0
 20 21  1  0
 18 22  1  0
 17 23  1  0
 16 24  1  0
  2 25  1  0
  1 26  1  0
  1 27  1  0
  1 28  1  0
 10  4  1  0
 20 15  1  0
M  END
>  <cnnaffinity>  (1) 
-5.6214

>  <filename>  (1) 
CC(Nc1nccc(I)c1Cl)c1cccnc1

$$$$
