
     RDKit          3D

 42 43  0  0  0  0  0  0  0  0999 V2000
    7.3863   -2.0081   25.2524 C   0  0  0  0  0  0  0  0  0  0  0  0
    6.9747   -2.7178   23.9632 C   0  0  0  0  0  0  0  0  0  0  0  0
    7.4837   -1.9022   22.8669 N   0  0  0  0  0  0  0  0  0  0  0  0
    6.7230   -1.6696   21.7480 C   0  0  0  0  0  0  0  0  0  0  0  0
    5.6720   -2.2216   21.4854 O   0  0  0  0  0  0  0  0  0  0  0  0
    7.3672   -0.7538   20.9413 N   0  0  0  0  0  0  0  0  0  0  0  0
    6.7481   -0.0491   19.8793 C   0  0  0  0  0  0  0  0  0  0  0  0
    5.5075    0.5573   20.1058 C   0  0  0  0  0  0  0  0  0  0  0  0
    4.9035    1.2511   19.0554 C   0  0  0  0  0  0  0  0  0  0  0  0
    5.5331    1.2884   17.8054 C   0  0  0  0  0  0  0  0  0  0  0  0
    6.7126    0.6918   17.5671 N   0  0  0  0  0  0  0  0  0  0  0  0
    7.3102    0.0575   18.5857 C   0  0  0  0  0  0  0  0  0  0  0  0
    8.2712   -0.4079   18.3709 H   0  0  0  0  0  0  0  0  0  0  0  0
    5.0676    1.8088   16.9693 H   0  0  0  0  0  0  0  0  0  0  0  0
    3.9565    1.7542   19.1947 H   0  0  0  0  0  0  0  0  0  0  0  0
    5.0520    0.4705   21.0938 H   0  0  0  0  0  0  0  0  0  0  0  0
    8.3315   -0.5931   21.1778 H   0  0  0  0  0  0  0  0  0  0  0  0
    8.0417   -1.1107   23.1334 H   0  0  0  0  0  0  0  0  0  0  0  0
    7.5601   -4.1577   23.8463 C   0  0  0  0  0  0  0  0  0  0  0  0
    7.2282   -4.8577   22.5093 C   0  0  0  0  0  0  0  0  0  0  0  0
    6.1492   -4.9171   22.3179 H   0  0  0  0  0  0  0  0  0  0  0  0
    7.6795   -4.3177   21.6701 H   0  0  0  0  0  0  0  0  0  0  0  0
    7.6422   -5.8733   22.5027 H   0  0  0  0  0  0  0  0  0  0  0  0
    7.1307   -5.0060   25.0373 C   0  0  0  0  0  0  0  0  0  0  0  0
    5.7660   -5.2696   25.2320 C   0  0  0  0  0  0  0  0  0  0  0  0
    5.3299   -6.0505   26.3065 C   0  0  0  0  0  0  0  0  0  0  0  0
    6.2495   -6.5495   27.2283 C   0  0  0  0  0  0  0  0  0  0  0  0
    7.6095   -6.2779   27.0655 C   0  0  0  0  0  0  0  0  0  0  0  0
    8.0594   -5.5283   25.9699 C   0  0  0  0  0  0  0  0  0  0  0  0
    9.5504   -5.3168   25.7615 C   0  0  0  0  0  0  0  0  0  0  0  0
    9.8886   -4.0034   25.7288 F   0  0  0  0  0  0  0  0  0  0  0  0
    9.9526   -5.8425   24.5858 F   0  0  0  0  0  0  0  0  0  0  0  0
   10.3196   -5.8598   26.7125 F   0  0  0  0  0  0  0  0  0  0  0  0
    8.3245   -6.6700   27.7873 H   0  0  0  0  0  0  0  0  0  0  0  0
    5.9181   -7.1533   28.0705 H   0  0  0  0  0  0  0  0  0  0  0  0
    4.2715   -6.2584   26.4292 H   0  0  0  0  0  0  0  0  0  0  0  0
    5.0322   -4.8666   24.5336 H   0  0  0  0  0  0  0  0  0  0  0  0
    8.6447   -4.0195   23.8766 H   0  0  0  0  0  0  0  0  0  0  0  0
    5.8747   -2.7703   23.8986 H   0  0  0  0  0  0  0  0  0  0  0  0
    7.0483   -0.9655   25.2466 H   0  0  0  0  0  0  0  0  0  0  0  0
    8.4799   -2.0247   25.3337 H   0  0  0  0  0  0  0  0  0  0  0  0
    6.9732   -2.4861   26.1459 H   0  0  0  0  0  0  0  0  0  0  0  0
  1  2  1  0
  2  3  1  0
  3  4  1  0
  4  5  2  0
  4  6  1  0
  6  7  1  0
  7  8  2  0
  8  9  1  0
  9 10  2  0
 10 11  1  0
 11 12  2  0
 12 13  1  0
 10 14  1  0
  9 15  1  0
  8 16  1  0
  6 17  1  0
  3 18  1  0
  2 19  1  0
 19 20  1  0
 20 21  1  0
 20 22  1  0
 20 23  1  0
 19 24  1  0
 24 25  2  0
 25 26  1  0
 26 27  2  0
 27 28  1  0
 28 29  2  0
 29 30  1  0
 30 31  1  0
 30 32  1  0
 30 33  1  0
 28 34  1  0
 27 35  1  0
 26 36  1  0
 25 37  1  0
 19 38  1  0
  2 39  1  0
  1 40  1  0
  1 41  1  0
  1 42  1  0
 12  7  1  0
 29 24  1  0
M  END
>  <cnnaffinity>  (1) 
-5.01943

>  <filename>  (1) 
CC(NC(=O)Nc1cccnc1)C(C)c1ccccc1C(F)(F)F

$$$$
