
     RDKit          3D

 42 45  0  0  0  0  0  0  0  0999 V2000
   11.9760    0.5330   23.5485 C   0  0  0  0  0  0  0  0  0  0  0  0
   11.3693    1.8889   23.1703 C   0  0  0  0  0  0  0  0  0  0  0  0
    9.9708    1.7136   22.7235 N   0  0  0  0  0  0  0  0  0  0  0  0
    9.7302    0.7812   21.7800 N   0  0  0  0  0  0  0  0  0  0  0  0
    8.4142    0.7218   21.7186 C   0  0  0  0  0  0  0  0  0  0  0  0
    7.7128   -0.3466   20.9144 C   0  0  0  0  0  0  0  0  0  0  0  0
    6.8333    0.1341   19.7649 C   0  0  0  0  0  0  0  0  0  0  0  0
    5.5944    0.7353   20.0292 C   0  0  0  0  0  0  0  0  0  0  0  0
    4.8798    1.3078   18.9738 C   0  0  0  0  0  0  0  0  0  0  0  0
    5.4161    1.2335   17.6855 C   0  0  0  0  0  0  0  0  0  0  0  0
    6.5578    0.5911   17.3952 N   0  0  0  0  0  0  0  0  0  0  0  0
    7.2334    0.0534   18.4177 C   0  0  0  0  0  0  0  0  0  0  0  0
    8.1580   -0.4625   18.1549 H   0  0  0  0  0  0  0  0  0  0  0  0
    4.9103    1.7064   16.8463 H   0  0  0  0  0  0  0  0  0  0  0  0
    3.9388    1.8231   19.1354 H   0  0  0  0  0  0  0  0  0  0  0  0
    5.2088    0.7597   21.0505 H   0  0  0  0  0  0  0  0  0  0  0  0
    8.4858   -1.0392   20.5627 H   0  0  0  0  0  0  0  0  0  0  0  0
    7.0988   -0.8995   21.6371 H   0  0  0  0  0  0  0  0  0  0  0  0
    7.7861    1.5853   22.5463 N   0  0  0  0  0  0  0  0  0  0  0  0
    8.7805    2.2199   23.1603 C   0  0  0  0  0  0  0  0  0  0  0  0
    8.7187    3.2925   24.1720 C   0  0  0  0  0  0  0  0  0  0  0  0
    9.7655    3.7834   24.8139 N   0  0  0  0  0  0  0  0  0  0  0  0
    9.3092    4.7367   25.6508 C   0  0  0  0  0  0  0  0  0  0  0  0
    7.9362    4.8700   25.5470 C   0  0  0  0  0  0  0  0  0  0  0  0
    6.9367    5.6882   26.1542 C   0  0  0  0  0  0  0  0  0  0  0  0
    5.6226    5.5175   25.7955 C   0  0  0  0  0  0  0  0  0  0  0  0
    5.2560    4.5258   24.8212 C   0  0  0  0  0  0  0  0  0  0  0  0
    6.2105    3.7476   24.2285 C   0  0  0  0  0  0  0  0  0  0  0  0
    7.5507    3.9168   24.5828 N   0  0  0  0  0  0  0  0  0  0  0  0
    6.0360    2.9824   23.4828 H   0  0  0  0  0  0  0  0  0  0  0  0
    4.2088    4.3942   24.5569 H   0  0  0  0  0  0  0  0  0  0  0  0
    4.8504    6.1366   26.2461 H   0  0  0  0  0  0  0  0  0  0  0  0
    7.2433    6.4359   26.8790 H   0  0  0  0  0  0  0  0  0  0  0  0
    9.9699    5.2784   26.3101 H   0  0  0  0  0  0  0  0  0  0  0  0
   12.1597    2.7126   22.1397 C   0  0  0  0  0  0  0  0  0  0  0  0
   13.4517    2.7881   22.5298 F   0  0  0  0  0  0  0  0  0  0  0  0
   12.1456    2.2069   20.9074 F   0  0  0  0  0  0  0  0  0  0  0  0
   11.6999    3.9757   22.0923 F   0  0  0  0  0  0  0  0  0  0  0  0
   11.3541    2.5487   24.0362 H   0  0  0  0  0  0  0  0  0  0  0  0
   13.0195    0.6364   23.8503 H   0  0  0  0  0  0  0  0  0  0  0  0
   11.4074    0.1418   24.3978 H   0  0  0  0  0  0  0  0  0  0  0  0
   11.9023   -0.1821   22.7206 H   0  0  0  0  0  0  0  0  0  0  0  0
  1  2  1  0
  2  3  1  0
  3  4  1  0
  4  5  2  0
  5  6  1  0
  6  7  1  0
  7  8  2  0
  8  9  1  0
  9 10  2  0
 10 11  1  0
 11 12  2  0
 12 13  1  0
 10 14  1  0
  9 15  1  0
  8 16  1  0
  6 17  1  0
  6 18  1  0
  5 19  1  0
 19 20  2  0
 20 21  1  0
 21 22  2  0
 22 23  1  0
 23 24  2  0
 24 25  1  0
 25 26  2  0
 26 27  1  0
 27 28  2  0
 28 29  1  0
 28 30  1  0
 27 31  1  0
 26 32  1  0
 25 33  1  0
 23 34  1  0
  2 35  1  0
 35 36  1  0
 35 37  1  0
 35 38  1  0
  2 39  1  0
  1 40  1  0
  1 41  1  0
  1 42  1  0
 20  3  1  0
 29 21  1  0
 12  7  1  0
 29 24  1  0
M  END
>  <cnnaffinity>  (1) 
-5.67568

>  <filename>  (1) 
CC(n1nc(Cc2cccnc2)nc1-c1ncc2ccccn12)C(F)(F)F

$$$$
