
     RDKit          3D

 42 45  0  0  0  0  0  0  0  0999 V2000
    7.4404   -0.2902   24.8464 C   0  0  0  0  0  0  0  0  0  0  0  0
    7.1451   -1.6272   24.1604 C   0  0  0  0  0  0  0  0  0  0  0  0
    7.1358   -1.4813   22.6974 N   0  0  0  0  0  0  0  0  0  0  0  0
    6.2367   -0.6844   22.0716 N   0  0  0  0  0  0  0  0  0  0  0  0
    6.6319   -0.7012   20.8152 C   0  0  0  0  0  0  0  0  0  0  0  0
    6.0300    0.0556   19.7207 C   0  0  0  0  0  0  0  0  0  0  0  0
    4.8852    0.8618   19.8228 C   0  0  0  0  0  0  0  0  0  0  0  0
    4.5217    1.6121   18.7040 C   0  0  0  0  0  0  0  0  0  0  0  0
    5.2974    1.5255   17.5412 C   0  0  0  0  0  0  0  0  0  0  0  0
    6.3673    0.7256   17.4244 N   0  0  0  0  0  0  0  0  0  0  0  0
    6.7120    0.0098   18.4962 C   0  0  0  0  0  0  0  0  0  0  0  0
    7.5809   -0.6340   18.3916 H   0  0  0  0  0  0  0  0  0  0  0  0
    5.0504    2.1164   16.6616 H   0  0  0  0  0  0  0  0  0  0  0  0
    3.6657    2.2793   18.7190 H   0  0  0  0  0  0  0  0  0  0  0  0
    4.3110    0.9084   20.7514 H   0  0  0  0  0  0  0  0  0  0  0  0
    7.7567   -1.4358   20.6007 N   0  0  0  0  0  0  0  0  0  0  0  0
    8.0766   -1.8723   21.7917 C   0  0  0  0  0  0  0  0  0  0  0  0
    9.3607   -2.5864   22.0989 C   0  0  0  0  0  0  0  0  0  0  0  0
   10.3657   -1.6769   22.7832 C   0  0  0  0  0  0  0  0  0  0  0  0
   10.3696   -1.5613   24.2062 C   0  0  0  0  0  0  0  0  0  0  0  0
   11.0217   -0.5351   24.8571 C   0  0  0  0  0  0  0  0  0  0  0  0
   11.7862    0.3623   24.0695 C   0  0  0  0  0  0  0  0  0  0  0  0
   12.5800    1.5092   24.3213 C   0  0  0  0  0  0  0  0  0  0  0  0
   13.1227    1.9847   23.2213 N   0  0  0  0  0  0  0  0  0  0  0  0
   12.6851    1.1774   22.2259 N   0  0  0  0  0  0  0  0  0  0  0  0
   11.8793    0.1772   22.6742 C   0  0  0  0  0  0  0  0  0  0  0  0
   11.1655   -0.8425   22.0117 C   0  0  0  0  0  0  0  0  0  0  0  0
   11.2343   -0.9511   20.9346 H   0  0  0  0  0  0  0  0  0  0  0  0
   13.0631    1.2886   21.2982 H   0  0  0  0  0  0  0  0  0  0  0  0
   12.7236    1.9643   25.2821 H   0  0  0  0  0  0  0  0  0  0  0  0
   10.9406   -0.3988   25.9316 H   0  0  0  0  0  0  0  0  0  0  0  0
    9.8528   -2.3099   24.7973 H   0  0  0  0  0  0  0  0  0  0  0  0
    9.1529   -3.4753   22.7038 H   0  0  0  0  0  0  0  0  0  0  0  0
    9.7508   -2.9013   21.1290 H   0  0  0  0  0  0  0  0  0  0  0  0
    5.9403   -2.3748   24.7893 C   0  0  0  0  0  0  0  0  0  0  0  0
    6.3788   -2.9110   25.9559 F   0  0  0  0  0  0  0  0  0  0  0  0
    5.4905   -3.3868   24.0444 F   0  0  0  0  0  0  0  0  0  0  0  0
    4.8996   -1.5937   25.1199 F   0  0  0  0  0  0  0  0  0  0  0  0
    7.9398   -2.3434   24.3470 H   0  0  0  0  0  0  0  0  0  0  0  0
    7.7699   -0.4458   25.8784 H   0  0  0  0  0  0  0  0  0  0  0  0
    6.5530    0.3501   24.8443 H   0  0  0  0  0  0  0  0  0  0  0  0
    8.2338    0.2290   24.3002 H   0  0  0  0  0  0  0  0  0  0  0  0
  1  2  1  0
  2  3  1  0
  3  4  1  0
  4  5  2  0
  5  6  1  0
  6  7  2  0
  7  8  1  0
  8  9  2  0
  9 10  1  0
 10 11  2  0
 11 12  1  0
  9 13  1  0
  8 14  1  0
  7 15  1  0
  5 16  1  0
 16 17  2  0
 17 18  1  0
 18 19  1  0
 19 20  2  0
 20 21  1  0
 21 22  2  0
 22 23  1  0
 23 24  2  0
 24 25  1  0
 25 26  1  0
 26 27  2  0
 27 28  1  0
 25 29  1  0
 23 30  1  0
 21 31  1  0
 20 32  1  0
 18 33  1  0
 18 34  1  0
  2 35  1  0
 35 36  1  0
 35 37  1  0
 35 38  1  0
  2 39  1  0
  1 40  1  0
  1 41  1  0
  1 42  1  0
 17  3  1  0
 27 19  1  0
 11  6  1  0
 26 22  1  0
M  END
>  <cnnaffinity>  (1) 
-6.01823

>  <filename>  (1) 
CC(n1nc(-c2cccnc2)nc1Cc1ccc2cn[nH]c2c1)C(F)(F)F

$$$$
