
     RDKit          3D

 44 48  0  0  0  0  0  0  0  0999 V2000
   11.8450    2.5497   20.9523 C   0  0  0  0  0  0  0  0  0  0  0  0
   11.4072    2.0642   22.3326 C   0  0  0  0  0  0  0  0  0  0  0  0
   10.0246    1.5618   22.3012 N   0  0  0  0  0  0  0  0  0  0  0  0
    9.6865    0.5638   21.4599 N   0  0  0  0  0  0  0  0  0  0  0  0
    8.3935    0.4038   21.6747 C   0  0  0  0  0  0  0  0  0  0  0  0
    7.5807   -0.6180   20.9268 C   0  0  0  0  0  0  0  0  0  0  0  0
    6.7591   -0.0315   19.7806 C   0  0  0  0  0  0  0  0  0  0  0  0
    5.5560    0.6330   20.0597 C   0  0  0  0  0  0  0  0  0  0  0  0
    4.8871    1.2867   19.0229 C   0  0  0  0  0  0  0  0  0  0  0  0
    5.4457    1.2559   17.7434 C   0  0  0  0  0  0  0  0  0  0  0  0
    6.5785    0.6023   17.4445 N   0  0  0  0  0  0  0  0  0  0  0  0
    7.2066   -0.0237   18.4478 C   0  0  0  0  0  0  0  0  0  0  0  0
    8.1343   -0.5345   18.1848 H   0  0  0  0  0  0  0  0  0  0  0  0
    4.9659    1.7802   16.9193 H   0  0  0  0  0  0  0  0  0  0  0  0
    3.9687    1.8371   19.1941 H   0  0  0  0  0  0  0  0  0  0  0  0
    5.1750    0.6589   21.0828 H   0  0  0  0  0  0  0  0  0  0  0  0
    8.2630   -1.4032   20.5792 H   0  0  0  0  0  0  0  0  0  0  0  0
    6.9103   -1.0709   21.6653 H   0  0  0  0  0  0  0  0  0  0  0  0
    7.8709    1.2363   22.6059 N   0  0  0  0  0  0  0  0  0  0  0  0
    8.9094    1.9807   22.9695 C   0  0  0  0  0  0  0  0  0  0  0  0
    8.9250    3.0410   23.9909 C   0  0  0  0  0  0  0  0  0  0  0  0
    9.8947    3.9530   24.1720 N   0  0  0  0  0  0  0  0  0  0  0  0
    9.5354    4.6484   25.2612 N   0  0  0  0  0  0  0  0  0  0  0  0
    8.3666    4.2176   25.7715 C   0  0  0  0  0  0  0  0  0  0  0  0
    7.9402    3.1867   24.9776 C   0  0  0  0  0  0  0  0  0  0  0  0
    6.6914    2.5376   25.5330 C   0  0  0  0  0  0  0  0  0  0  0  0
    6.5069    3.3112   26.8530 C   0  0  2  0  0  0  0  0  0  0  0  0
    6.1237    4.7605   26.7492 C   0  0  0  0  0  0  0  0  0  0  0  0
    7.5685    4.3992   26.9808 C   0  0  2  0  0  0  0  0  0  0  0  0
    8.0256    4.6235   27.9438 H   0  0  0  0  0  0  0  0  0  0  0  0
    5.5945    5.2232   27.5781 H   0  0  0  0  0  0  0  0  0  0  0  0
    5.8464    5.1503   25.7694 H   0  0  0  0  0  0  0  0  0  0  0  0
    6.2600    2.7564   27.7529 H   0  0  0  0  0  0  0  0  0  0  0  0
    6.8212    1.4608   25.6847 H   0  0  0  0  0  0  0  0  0  0  0  0
    5.8353    2.6517   24.8506 H   0  0  0  0  0  0  0  0  0  0  0  0
   10.0505    5.4711   25.5207 H   0  0  0  0  0  0  0  0  0  0  0  0
   12.3934    1.0378   22.9294 C   0  0  0  0  0  0  0  0  0  0  0  0
   12.1158    0.6957   24.1971 F   0  0  0  0  0  0  0  0  0  0  0  0
   13.6193    1.6079   22.9570 F   0  0  0  0  0  0  0  0  0  0  0  0
   12.4865   -0.0845   22.2078 F   0  0  0  0  0  0  0  0  0  0  0  0
   11.4209    2.9023   23.0295 H   0  0  0  0  0  0  0  0  0  0  0  0
   12.1169    1.7032   20.3299 H   0  0  0  0  0  0  0  0  0  0  0  0
   12.6861    3.2449   21.0450 H   0  0  0  0  0  0  0  0  0  0  0  0
   11.0193    3.0432   20.4528 H   0  0  0  0  0  0  0  0  0  0  0  0
  1  2  1  0
  2  3  1  0
  3  4  1  0
  4  5  2  0
  5  6  1  0
  6  7  1  0
  7  8  2  0
  8  9  1  0
  9 10  2  0
 10 11  1  0
 11 12  2  0
 12 13  1  0
 10 14  1  0
  9 15  1  0
  8 16  1  0
  6 17  1  0
  6 18  1  0
  5 19  1  0
 19 20  2  0
 20 21  1  0
 21 22  2  0
 22 23  1  0
 23 24  1  0
 24 25  2  0
 25 26  1  0
 26 27  1  0
 27 28  1  0
 28 29  1  0
 29 30  1  1
 28 31  1  0
 28 32  1  0
 27 33  1  1
 26 34  1  0
 26 35  1  0
 23 36  1  0
  2 37  1  0
 37 38  1  0
 37 39  1  0
 37 40  1  0
  2 41  1  0
  1 42  1  0
  1 43  1  0
  1 44  1  0
 20  3  1  0
 25 21  1  0
 29 27  1  0
 12  7  1  0
 29 24  1  0
M  END
>  <cnnaffinity>  (1) 
-5.99037

>  <filename>  (1) 
CC(n1nc(Cc2cccnc2)nc1-c1n[nH]c2c1C[C@@H]1C[C@H]21)C(F)(F)F

$$$$
