
     RDKit          3D

 42 45  0  0  0  0  0  0  0  0999 V2000
    8.7716    1.9979   25.4542 C   0  0  0  0  0  0  0  0  0  0  0  0
    8.9038    2.7526   24.1240 C   0  0  0  0  0  0  0  0  0  0  0  0
    8.9239    1.8331   22.9770 N   0  0  0  0  0  0  0  0  0  0  0  0
    7.8274    1.0955   22.6845 N   0  0  0  0  0  0  0  0  0  0  0  0
    8.2485    0.2990   21.7217 C   0  0  0  0  0  0  0  0  0  0  0  0
    7.3420   -0.6649   21.0061 C   0  0  0  0  0  0  0  0  0  0  0  0
    6.5834   -0.0287   19.8455 C   0  0  0  0  0  0  0  0  0  0  0  0
    5.3810    0.6500   20.0735 C   0  0  0  0  0  0  0  0  0  0  0  0
    4.7744    1.3337   19.0174 C   0  0  0  0  0  0  0  0  0  0  0  0
    5.3933    1.3115   17.7647 C   0  0  0  0  0  0  0  0  0  0  0  0
    6.5301    0.6428   17.5133 N   0  0  0  0  0  0  0  0  0  0  0  0
    7.0974   -0.0079   18.5360 C   0  0  0  0  0  0  0  0  0  0  0  0
    8.0209   -0.5425   18.3057 H   0  0  0  0  0  0  0  0  0  0  0  0
    4.9609    1.8496   16.9231 H   0  0  0  0  0  0  0  0  0  0  0  0
    3.8536    1.8898   19.1560 H   0  0  0  0  0  0  0  0  0  0  0  0
    4.9470    0.6469   21.0751 H   0  0  0  0  0  0  0  0  0  0  0  0
    6.6389   -1.0709   21.7429 H   0  0  0  0  0  0  0  0  0  0  0  0
    7.9632   -1.4907   20.6460 H   0  0  0  0  0  0  0  0  0  0  0  0
    9.5572    0.4480   21.3932 N   0  0  0  0  0  0  0  0  0  0  0  0
    9.9610    1.4261   22.1907 C   0  0  0  0  0  0  0  0  0  0  0  0
   11.3107    2.0362   22.3131 C   0  0  0  0  0  0  0  0  0  0  0  0
   11.5544    3.4255   22.3856 C   0  0  0  0  0  0  0  0  0  0  0  0
   12.8529    3.9177   22.6202 C   0  0  0  0  0  0  0  0  0  0  0  0
   13.9392    3.1525   22.7886 N   0  0  0  0  0  0  0  0  0  0  0  0
   13.6951    1.8463   22.6576 C   0  0  0  0  0  0  0  0  0  0  0  0
   12.4471    1.2125   22.3956 C   0  0  0  0  0  0  0  0  0  0  0  0
   12.7203   -0.1962   22.2983 C   0  0  0  0  0  0  0  0  0  0  0  0
   14.0620   -0.3620   22.4707 C   0  0  0  0  0  0  0  0  0  0  0  0
   14.6445    0.8682   22.7043 N   0  0  0  0  0  0  0  0  0  0  0  0
   15.6137    1.1194   22.7105 H   0  0  0  0  0  0  0  0  0  0  0  0
   14.6443   -1.2784   22.4742 H   0  0  0  0  0  0  0  0  0  0  0  0
   11.9778   -0.9647   22.1171 H   0  0  0  0  0  0  0  0  0  0  0  0
   13.0104    4.9908   22.6612 H   0  0  0  0  0  0  0  0  0  0  0  0
   10.7554    4.1482   22.2744 H   0  0  0  0  0  0  0  0  0  0  0  0
    7.9195    3.9176   23.8825 C   0  0  0  0  0  0  0  0  0  0  0  0
    8.2257    4.5614   22.7379 F   0  0  0  0  0  0  0  0  0  0  0  0
    8.0645    4.8177   24.8816 F   0  0  0  0  0  0  0  0  0  0  0  0
    6.6301    3.5760   23.8405 F   0  0  0  0  0  0  0  0  0  0  0  0
    9.8670    3.2621   24.1400 H   0  0  0  0  0  0  0  0  0  0  0  0
    9.6042    1.2897   25.5284 H   0  0  0  0  0  0  0  0  0  0  0  0
    8.8412    2.6807   26.3077 H   0  0  0  0  0  0  0  0  0  0  0  0
    7.8350    1.4340   25.5138 H   0  0  0  0  0  0  0  0  0  0  0  0
  1  2  1  0
  2  3  1  0
  3  4  1  0
  4  5  2  0
  5  6  1  0
  6  7  1  0
  7  8  2  0
  8  9  1  0
  9 10  2  0
 10 11  1  0
 11 12  2  0
 12 13  1  0
 10 14  1  0
  9 15  1  0
  8 16  1  0
  6 17  1  0
  6 18  1  0
  5 19  1  0
 19 20  2  0
 20 21  1  0
 21 22  2  0
 22 23  1  0
 23 24  2  0
 24 25  1  0
 25 26  2  0
 26 27  1  0
 27 28  2  0
 28 29  1  0
 29 30  1  0
 28 31  1  0
 27 32  1  0
 23 33  1  0
 22 34  1  0
  2 35  1  0
 35 36  1  0
 35 37  1  0
 35 38  1  0
  2 39  1  0
  1 40  1  0
  1 41  1  0
  1 42  1  0
 20  3  1  0
 26 21  1  0
 12  7  1  0
 29 25  1  0
M  END
>  <cnnaffinity>  (1) 
-6.76944

>  <filename>  (1) 
CC(n1nc(Cc2cccnc2)nc1-c1ccnc2[nH]ccc12)C(F)(F)F

$$$$
