
     RDKit          3D

 44 47  0  0  0  0  0  0  0  0999 V2000
   12.2744    1.6737   24.0868 C   0  0  0  0  0  0  0  0  0  0  0  0
   11.6592    1.6767   22.6709 C   0  0  0  0  0  0  0  0  0  0  0  0
   10.2079    1.3322   22.5960 N   0  0  0  0  0  0  0  0  0  0  0  0
    9.8642    0.3537   21.7189 N   0  0  0  0  0  0  0  0  0  0  0  0
    8.5498    0.3648   21.7028 C   0  0  0  0  0  0  0  0  0  0  0  0
    7.6890   -0.5906   20.9079 C   0  0  0  0  0  0  0  0  0  0  0  0
    6.8493    0.0384   19.7910 C   0  0  0  0  0  0  0  0  0  0  0  0
    5.6320    0.6721   20.0905 C   0  0  0  0  0  0  0  0  0  0  0  0
    4.9149    1.2893   19.0609 C   0  0  0  0  0  0  0  0  0  0  0  0
    5.4370    1.2542   17.7676 C   0  0  0  0  0  0  0  0  0  0  0  0
    6.5789    0.6271   17.4485 N   0  0  0  0  0  0  0  0  0  0  0  0
    7.2495    0.0314   18.4425 C   0  0  0  0  0  0  0  0  0  0  0  0
    8.1630   -0.4891   18.1509 H   0  0  0  0  0  0  0  0  0  0  0  0
    4.9248    1.7542   16.9473 H   0  0  0  0  0  0  0  0  0  0  0  0
    3.9758    1.7994   19.2450 H   0  0  0  0  0  0  0  0  0  0  0  0
    5.2560    0.6746   21.1153 H   0  0  0  0  0  0  0  0  0  0  0  0
    7.0096   -1.0426   21.6417 H   0  0  0  0  0  0  0  0  0  0  0  0
    8.3279   -1.4027   20.5361 H   0  0  0  0  0  0  0  0  0  0  0  0
    8.0050    1.2951   22.5183 N   0  0  0  0  0  0  0  0  0  0  0  0
    9.0540    1.8979   23.0719 C   0  0  0  0  0  0  0  0  0  0  0  0
    8.9840    3.0147   24.0302 C   0  0  0  0  0  0  0  0  0  0  0  0
    9.7211    3.0834   25.1410 N   0  0  0  0  0  0  0  0  0  0  0  0
    9.2764    4.1817   25.7672 N   0  0  0  0  0  0  0  0  0  0  0  0
    8.3158    4.8423   25.0866 C   0  0  0  0  0  0  0  0  0  0  0  0
    8.0839    4.1086   23.9462 C   0  0  0  0  0  0  0  0  0  0  0  0
    7.1403    4.4779   22.8338 C   0  0  0  0  0  0  0  0  0  0  0  0
    6.0744    5.4645   23.3081 C   0  0  0  0  0  0  0  0  0  0  0  0
    6.7937    6.9248   24.1385 S   0  0  0  0  0  0  0  0  0  0  0  0
    7.6340    6.1007   25.5371 C   0  0  0  0  0  0  0  0  0  0  0  0
    6.9079    5.8840   26.3303 H   0  0  0  0  0  0  0  0  0  0  0  0
    8.3523    6.8295   25.9277 H   0  0  0  0  0  0  0  0  0  0  0  0
    5.3642    4.9736   23.9828 H   0  0  0  0  0  0  0  0  0  0  0  0
    5.5108    5.8589   22.4578 H   0  0  0  0  0  0  0  0  0  0  0  0
    7.7113    4.9079   22.0004 H   0  0  0  0  0  0  0  0  0  0  0  0
    6.6729    3.5672   22.4414 H   0  0  0  0  0  0  0  0  0  0  0  0
    9.7207    4.4715   26.6243 H   0  0  0  0  0  0  0  0  0  0  0  0
   11.9435    2.9686   21.8582 C   0  0  0  0  0  0  0  0  0  0  0  0
   11.1940    4.0024   22.2716 F   0  0  0  0  0  0  0  0  0  0  0  0
   13.2347    3.3252   22.0036 F   0  0  0  0  0  0  0  0  0  0  0  0
   11.7233    2.8086   20.5468 F   0  0  0  0  0  0  0  0  0  0  0  0
   12.1384    0.8832   22.0861 H   0  0  0  0  0  0  0  0  0  0  0  0
   12.0450    0.7225   24.5735 H   0  0  0  0  0  0  0  0  0  0  0  0
   13.3694    1.7680   24.0470 H   0  0  0  0  0  0  0  0  0  0  0  0
   11.8810    2.4838   24.7067 H   0  0  0  0  0  0  0  0  0  0  0  0
  1  2  1  0
  2  3  1  0
  3  4  1  0
  4  5  2  0
  5  6  1  0
  6  7  1  0
  7  8  2  0
  8  9  1  0
  9 10  2  0
 10 11  1  0
 11 12  2  0
 12 13  1  0
 10 14  1  0
  9 15  1  0
  8 16  1  0
  6 17  1  0
  6 18  1  0
  5 19  1  0
 19 20  2  0
 20 21  1  0
 21 22  2  0
 22 23  1  0
 23 24  1  0
 24 25  2  0
 25 26  1  0
 26 27  1  0
 27 28  1  0
 28 29  1  0
 29 30  1  0
 29 31  1  0
 27 32  1  0
 27 33  1  0
 26 34  1  0
 26 35  1  0
 23 36  1  0
  2 37  1  0
 37 38  1  0
 37 39  1  0
 37 40  1  0
  2 41  1  0
  1 42  1  0
  1 43  1  0
  1 44  1  0
 20  3  1  0
 25 21  1  0
 12  7  1  0
 29 24  1  0
M  END
>  <cnnaffinity>  (1) 
-5.49957

>  <filename>  (1) 
CC(n1nc(Cc2cccnc2)nc1-c1n[nH]c2c1CCSC2)C(F)(F)F

$$$$
