
     RDKit          3D

 44 47  0  0  0  0  0  0  0  0999 V2000
    7.7130    3.8492   24.0513 C   0  0  0  0  0  0  0  0  0  0  0  0
    8.7998    2.7973   24.2759 C   0  0  0  0  0  0  0  0  0  0  0  0
    8.9237    1.9176   23.1100 N   0  0  0  0  0  0  0  0  0  0  0  0
    7.8570    1.1816   22.7246 N   0  0  0  0  0  0  0  0  0  0  0  0
    8.3265    0.4847   21.7060 C   0  0  0  0  0  0  0  0  0  0  0  0
    7.4985   -0.5298   20.9744 C   0  0  0  0  0  0  0  0  0  0  0  0
    6.6818    0.0305   19.8145 C   0  0  0  0  0  0  0  0  0  0  0  0
    5.4603    0.6748   20.0503 C   0  0  0  0  0  0  0  0  0  0  0  0
    4.8163    1.3195   18.9914 C   0  0  0  0  0  0  0  0  0  0  0  0
    5.4090    1.2829   17.7265 C   0  0  0  0  0  0  0  0  0  0  0  0
    6.5470    0.6234   17.4630 N   0  0  0  0  0  0  0  0  0  0  0  0
    7.1537    0.0139   18.4890 C   0  0  0  0  0  0  0  0  0  0  0  0
    8.0745   -0.5193   18.2476 H   0  0  0  0  0  0  0  0  0  0  0  0
    4.9501    1.7983   16.8845 H   0  0  0  0  0  0  0  0  0  0  0  0
    3.8898    1.8637   19.1341 H   0  0  0  0  0  0  0  0  0  0  0  0
    5.0289    0.6736   21.0538 H   0  0  0  0  0  0  0  0  0  0  0  0
    8.1950   -1.3039   20.6314 H   0  0  0  0  0  0  0  0  0  0  0  0
    6.8344   -0.9776   21.7225 H   0  0  0  0  0  0  0  0  0  0  0  0
    9.6337    0.7015   21.4231 N   0  0  0  0  0  0  0  0  0  0  0  0
    9.9893    1.5998   22.3226 C   0  0  0  0  0  0  0  0  0  0  0  0
   11.3348    2.1367   22.5408 C   0  0  0  0  0  0  0  0  0  0  0  0
   12.4738    1.3235   22.7066 C   0  0  0  0  0  0  0  0  0  0  0  0
   13.7394    1.8920   22.8908 C   0  0  0  0  0  0  0  0  0  0  0  0
   13.9149    3.2865   22.7970 C   0  0  0  0  0  0  0  0  0  0  0  0
   12.8029    4.0853   22.6144 C   0  0  0  0  0  0  0  0  0  0  0  0
   11.5326    3.5178   22.5829 C   0  0  0  0  0  0  0  0  0  0  0  0
   10.5461    4.4473   22.5688 O   0  0  0  0  0  0  0  0  0  0  0  0
   11.1645    5.7373   22.7441 C   0  0  0  0  0  0  0  0  0  0  0  0
   12.6549    5.5630   22.4189 C   0  0  0  0  0  0  0  0  0  0  0  0
   13.3076    6.1540   23.0665 H   0  0  0  0  0  0  0  0  0  0  0  0
   12.8901    5.8392   21.3841 H   0  0  0  0  0  0  0  0  0  0  0  0
   10.6500    6.4333   22.0790 H   0  0  0  0  0  0  0  0  0  0  0  0
   11.0369    6.0421   23.7900 H   0  0  0  0  0  0  0  0  0  0  0  0
   14.8908    3.7601   22.8548 H   0  0  0  0  0  0  0  0  0  0  0  0
   14.6087    1.2597   23.0456 H   0  0  0  0  0  0  0  0  0  0  0  0
   12.3618    0.2401   22.7155 H   0  0  0  0  0  0  0  0  0  0  0  0
    8.6520    1.9752   25.5729 C   0  0  0  0  0  0  0  0  0  0  0  0
    9.6958    1.1522   25.7638 F   0  0  0  0  0  0  0  0  0  0  0  0
    8.6363    2.8297   26.6212 F   0  0  0  0  0  0  0  0  0  0  0  0
    7.5308    1.2505   25.6344 F   0  0  0  0  0  0  0  0  0  0  0  0
    9.7570    3.2949   24.4173 H   0  0  0  0  0  0  0  0  0  0  0  0
    7.6582    4.5307   24.9059 H   0  0  0  0  0  0  0  0  0  0  0  0
    7.9614    4.4339   23.1608 H   0  0  0  0  0  0  0  0  0  0  0  0
    6.7357    3.3768   23.8968 H   0  0  0  0  0  0  0  0  0  0  0  0
  1  2  1  0
  2  3  1  0
  3  4  1  0
  4  5  2  0
  5  6  1  0
  6  7  1  0
  7  8  2  0
  8  9  1  0
  9 10  2  0
 10 11  1  0
 11 12  2  0
 12 13  1  0
 10 14  1  0
  9 15  1  0
  8 16  1  0
  6 17  1  0
  6 18  1  0
  5 19  1  0
 19 20  2  0
 20 21  1  0
 21 22  2  0
 22 23  1  0
 23 24  2  0
 24 25  1  0
 25 26  2  0
 26 27  1  0
 27 28  1  0
 28 29  1  0
 29 30  1  0
 29 31  1  0
 28 32  1  0
 28 33  1  0
 24 34  1  0
 23 35  1  0
 22 36  1  0
  2 37  1  0
 37 38  1  0
 37 39  1  0
 37 40  1  0
  2 41  1  0
  1 42  1  0
  1 43  1  0
  1 44  1  0
 20  3  1  0
 26 21  1  0
 12  7  1  0
 29 25  1  0
M  END
>  <cnnaffinity>  (1) 
-6.32236

>  <filename>  (1) 
CC(n1nc(Cc2cccnc2)nc1-c1cccc2c1OCC2)C(F)(F)F

$$$$
