
     RDKit          3D

 46 49  0  0  0  0  0  0  0  0999 V2000
   12.2058    1.6121   24.1163 C   0  0  0  0  0  0  0  0  0  0  0  0
   11.6549    1.6651   22.6790 C   0  0  0  0  0  0  0  0  0  0  0  0
   10.2104    1.3483   22.5985 N   0  0  0  0  0  0  0  0  0  0  0  0
    9.8461    0.3859   21.7204 N   0  0  0  0  0  0  0  0  0  0  0  0
    8.5339    0.4521   21.6846 C   0  0  0  0  0  0  0  0  0  0  0  0
    7.6999   -0.5284   20.9058 C   0  0  0  0  0  0  0  0  0  0  0  0
    6.8449    0.0591   19.7841 C   0  0  0  0  0  0  0  0  0  0  0  0
    5.6300    0.6950   20.0803 C   0  0  0  0  0  0  0  0  0  0  0  0
    4.9100    1.3013   19.0466 C   0  0  0  0  0  0  0  0  0  0  0  0
    5.4264    1.2509   17.7516 C   0  0  0  0  0  0  0  0  0  0  0  0
    6.5661    0.6186   17.4345 N   0  0  0  0  0  0  0  0  0  0  0  0
    7.2414    0.0347   18.4329 C   0  0  0  0  0  0  0  0  0  0  0  0
    8.1634   -0.4706   18.1419 H   0  0  0  0  0  0  0  0  0  0  0  0
    4.9038    1.7352   16.9280 H   0  0  0  0  0  0  0  0  0  0  0  0
    3.9751    1.8199   19.2308 H   0  0  0  0  0  0  0  0  0  0  0  0
    5.2657    0.7270   21.1087 H   0  0  0  0  0  0  0  0  0  0  0  0
    7.0546   -1.0097   21.6496 H   0  0  0  0  0  0  0  0  0  0  0  0
    8.3778   -1.3077   20.5401 H   0  0  0  0  0  0  0  0  0  0  0  0
    8.0135    1.4333   22.4548 N   0  0  0  0  0  0  0  0  0  0  0  0
    9.0820    1.9764   23.0385 C   0  0  0  0  0  0  0  0  0  0  0  0
    9.0584    3.0846   24.0237 C   0  0  0  0  0  0  0  0  0  0  0  0
    9.7159    3.1723   25.1621 N   0  0  0  0  0  0  0  0  0  0  0  0
    9.2361    4.2954   25.7768 C   0  0  0  0  0  0  0  0  0  0  0  0
    8.3094    4.9230   24.9931 C   0  0  0  0  0  0  0  0  0  0  0  0
    7.5578    6.2129   25.1104 C   0  0  0  0  0  0  0  0  0  0  0  0
    6.3401    6.2385   24.1719 C   0  0  0  0  0  0  0  0  0  0  0  0
    6.7296    5.7708   22.7600 C   0  0  0  0  0  0  0  0  0  0  0  0
    7.2239    4.3253   22.7864 C   0  0  0  0  0  0  0  0  0  0  0  0
    8.2096    4.1395   23.8595 N   0  0  0  0  0  0  0  0  0  0  0  0
    7.7091    4.0527   21.8451 H   0  0  0  0  0  0  0  0  0  0  0  0
    6.4059    3.6138   22.9426 H   0  0  0  0  0  0  0  0  0  0  0  0
    7.5303    6.4071   22.3595 H   0  0  0  0  0  0  0  0  0  0  0  0
    5.8862    5.8400   22.0627 H   0  0  0  0  0  0  0  0  0  0  0  0
    5.5680    5.5685   24.5715 H   0  0  0  0  0  0  0  0  0  0  0  0
    5.9078    7.2438   24.1483 H   0  0  0  0  0  0  0  0  0  0  0  0
    8.2372    7.0394   24.8545 H   0  0  0  0  0  0  0  0  0  0  0  0
    7.2646    6.3689   26.1543 H   0  0  0  0  0  0  0  0  0  0  0  0
    9.5868    4.5853   26.7567 H   0  0  0  0  0  0  0  0  0  0  0  0
   11.9396    2.9700   21.8945 C   0  0  0  0  0  0  0  0  0  0  0  0
   13.2337    3.3100   22.0228 F   0  0  0  0  0  0  0  0  0  0  0  0
   11.6877    2.8339   20.5840 F   0  0  0  0  0  0  0  0  0  0  0  0
   11.2184    4.0079   22.3624 F   0  0  0  0  0  0  0  0  0  0  0  0
   12.1427    0.8850   22.0802 H   0  0  0  0  0  0  0  0  0  0  0  0
   11.7762    2.4051   24.7367 H   0  0  0  0  0  0  0  0  0  0  0  0
   11.9478    0.6471   24.5671 H   0  0  0  0  0  0  0  0  0  0  0  0
   13.3007    1.6757   24.1366 H   0  0  0  0  0  0  0  0  0  0  0  0
  1  2  1  0
  2  3  1  0
  3  4  1  0
  4  5  2  0
  5  6  1  0
  6  7  1  0
  7  8  2  0
  8  9  1  0
  9 10  2  0
 10 11  1  0
 11 12  2  0
 12 13  1  0
 10 14  1  0
  9 15  1  0
  8 16  1  0
  6 17  1  0
  6 18  1  0
  5 19  1  0
 19 20  2  0
 20 21  1  0
 21 22  2  0
 22 23  1  0
 23 24  2  0
 24 25  1  0
 25 26  1  0
 26 27  1  0
 27 28  1  0
 28 29  1  0
 28 30  1  0
 28 31  1  0
 27 32  1  0
 27 33  1  0
 26 34  1  0
 26 35  1  0
 25 36  1  0
 25 37  1  0
 23 38  1  0
  2 39  1  0
 39 40  1  0
 39 41  1  0
 39 42  1  0
  2 43  1  0
  1 44  1  0
  1 45  1  0
  1 46  1  0
 20  3  1  0
 29 21  1  0
 12  7  1  0
 29 24  1  0
M  END
>  <cnnaffinity>  (1) 
-5.78705

>  <filename>  (1) 
CC(n1nc(Cc2cccnc2)nc1-c1ncc2n1CCCC2)C(F)(F)F

$$$$
