
     RDKit          3D

 50 53  0  0  0  0  0  0  0  0999 V2000
    8.7468    2.1528   25.4074 C   0  0  0  0  0  0  0  0  0  0  0  0
    8.7478    2.8915   24.0691 C   0  0  0  0  0  0  0  0  0  0  0  0
    8.7775    1.8952   22.9710 N   0  0  0  0  0  0  0  0  0  0  0  0
    7.6952    1.1520   22.6203 N   0  0  0  0  0  0  0  0  0  0  0  0
    8.1903    0.2794   21.7598 C   0  0  0  0  0  0  0  0  0  0  0  0
    7.3411   -0.6954   20.9937 C   0  0  0  0  0  0  0  0  0  0  0  0
    6.5941   -0.0438   19.8382 C   0  0  0  0  0  0  0  0  0  0  0  0
    5.3951    0.6365   20.0809 C   0  0  0  0  0  0  0  0  0  0  0  0
    4.7824    1.3157   19.0271 C   0  0  0  0  0  0  0  0  0  0  0  0
    5.3951    1.3076   17.7719 C   0  0  0  0  0  0  0  0  0  0  0  0
    6.5398    0.6558   17.5126 N   0  0  0  0  0  0  0  0  0  0  0  0
    7.1149    0.0037   18.5320 C   0  0  0  0  0  0  0  0  0  0  0  0
    8.0515   -0.5063   18.2997 H   0  0  0  0  0  0  0  0  0  0  0  0
    4.9463    1.8487   16.9400 H   0  0  0  0  0  0  0  0  0  0  0  0
    3.8548    1.8563   19.1713 H   0  0  0  0  0  0  0  0  0  0  0  0
    4.9602    0.6477   21.0834 H   0  0  0  0  0  0  0  0  0  0  0  0
    6.6270   -1.1454   21.6903 H   0  0  0  0  0  0  0  0  0  0  0  0
    7.9899   -1.4998   20.6330 H   0  0  0  0  0  0  0  0  0  0  0  0
    9.5266    0.3653   21.5759 N   0  0  0  0  0  0  0  0  0  0  0  0
    9.8640    1.3920   22.3366 C   0  0  0  0  0  0  0  0  0  0  0  0
   11.2048    1.9862   22.4539 C   0  0  0  0  0  0  0  0  0  0  0  0
   12.3185    1.1177   22.6482 C   0  0  0  0  0  0  0  0  0  0  0  0
   13.6007    1.6260   22.7895 C   0  0  0  0  0  0  0  0  0  0  0  0
   13.7470    3.0264   22.6193 C   0  0  0  0  0  0  0  0  0  0  0  0
   14.8068    3.8597   22.5290 N   0  0  0  0  0  0  0  0  0  0  0  0
   14.4398    5.1264   22.2507 N   0  0  0  0  0  0  0  0  0  0  0  0
   13.1604    5.1621   22.1505 N   0  0  0  0  0  0  0  0  0  0  0  0
   12.6745    3.8886   22.3599 C   0  0  0  0  0  0  0  0  0  0  0  0
   11.3733    3.3693   22.3408 C   0  0  0  0  0  0  0  0  0  0  0  0
   10.5411    4.0570   22.2476 H   0  0  0  0  0  0  0  0  0  0  0  0
   15.7750    3.6206   22.6788 H   0  0  0  0  0  0  0  0  0  0  0  0
   14.4500    0.9704   22.9696 H   0  0  0  0  0  0  0  0  0  0  0  0
   12.1471    0.0375   22.6502 H   0  0  0  0  0  0  0  0  0  0  0  0
    7.6504    3.9976   23.8808 C   0  0  0  0  0  0  0  0  0  0  0  0
    7.6758    4.5198   22.4265 C   0  0  0  0  0  0  0  0  0  0  0  0
    7.4682    3.7089   21.7201 H   0  0  0  0  0  0  0  0  0  0  0  0
    6.9186    5.3017   22.2906 H   0  0  0  0  0  0  0  0  0  0  0  0
    8.6473    4.9635   22.1663 H   0  0  0  0  0  0  0  0  0  0  0  0
    7.9666    5.1753   24.8287 C   0  0  0  0  0  0  0  0  0  0  0  0
    8.9492    5.6173   24.6141 H   0  0  0  0  0  0  0  0  0  0  0  0
    7.2204    5.9699   24.7124 H   0  0  0  0  0  0  0  0  0  0  0  0
    7.9576    4.8726   25.8828 H   0  0  0  0  0  0  0  0  0  0  0  0
    6.2479    3.4514   24.2018 C   0  0  0  0  0  0  0  0  0  0  0  0
    5.4950    4.2344   24.0517 H   0  0  0  0  0  0  0  0  0  0  0  0
    6.0064    2.5971   23.5598 H   0  0  0  0  0  0  0  0  0  0  0  0
    6.1833    3.1237   25.2474 H   0  0  0  0  0  0  0  0  0  0  0  0
    9.6992    3.4145   24.0319 H   0  0  0  0  0  0  0  0  0  0  0  0
    7.8725    1.4994   25.4777 H   0  0  0  0  0  0  0  0  0  0  0  0
    9.6542    1.5430   25.4964 H   0  0  0  0  0  0  0  0  0  0  0  0
    8.7518    2.8610   26.2428 H   0  0  0  0  0  0  0  0  0  0  0  0
  1  2  1  0
  2  3  1  0
  3  4  1  0
  4  5  2  0
  5  6  1  0
  6  7  1  0
  7  8  2  0
  8  9  1  0
  9 10  2  0
 10 11  1  0
 11 12  2  0
 12 13  1  0
 10 14  1  0
  9 15  1  0
  8 16  1  0
  6 17  1  0
  6 18  1  0
  5 19  1  0
 19 20  2  0
 20 21  1  0
 21 22  2  0
 22 23  1  0
 23 24  2  0
 24 25  1  0
 25 26  1  0
 26 27  2  0
 27 28  1  0
 28 29  2  0
 29 30  1  0
 25 31  1  0
 23 32  1  0
 22 33  1  0
  2 34  1  0
 34 35  1  0
 35 36  1  0
 35 37  1  0
 35 38  1  0
 34 39  1  0
 39 40  1  0
 39 41  1  0
 39 42  1  0
 34 43  1  0
 43 44  1  0
 43 45  1  0
 43 46  1  0
  2 47  1  0
  1 48  1  0
  1 49  1  0
  1 50  1  0
 20  3  1  0
 29 21  1  0
 12  7  1  0
 28 24  1  0
M  END
>  <cnnaffinity>  (1) 
-6.66564

>  <filename>  (1) 
CC(n1nc(Cc2cccnc2)nc1-c1ccc2[nH]nnc2c1)C(C)(C)C

$$$$
