
     RDKit          3D

 37 39  0  0  0  0  0  0  0  0999 V2000
    6.7307    2.0699   26.4175 C   0  0  0  0  0  0  0  0  0  0  0  0
    7.0018    2.3607   24.9395 C   0  0  0  0  0  0  0  0  0  0  0  0
    7.0872    1.0518   24.2740 N   0  0  0  0  0  0  0  0  0  0  0  0
    7.0930    0.8548   22.9137 C   0  0  0  0  0  0  0  0  0  0  0  0
    6.8602    1.7875   22.1648 O   0  0  0  0  0  0  0  0  0  0  0  0
    7.5438   -0.3996   22.3762 C   0  0  0  0  0  0  0  0  0  0  0  0
    8.2318   -1.4385   22.9446 C   0  0  0  0  0  0  0  0  0  0  0  0
    8.4723   -2.3001   21.8922 N   0  0  0  0  0  0  0  0  0  0  0  0
    7.9869   -1.8331   20.7073 N   0  0  0  0  0  0  0  0  0  0  0  0
    7.3899   -0.6988   20.9793 C   0  0  0  0  0  0  0  0  0  0  0  0
    6.6691    0.0526   19.9629 C   0  0  0  0  0  0  0  0  0  0  0  0
    5.4683    0.7363   20.2041 C   0  0  0  0  0  0  0  0  0  0  0  0
    4.8416    1.3415   19.1138 C   0  0  0  0  0  0  0  0  0  0  0  0
    5.4387    1.2864   17.8509 C   0  0  0  0  0  0  0  0  0  0  0  0
    6.5865    0.6216   17.6240 N   0  0  0  0  0  0  0  0  0  0  0  0
    7.1785    0.0121   18.6628 C   0  0  0  0  0  0  0  0  0  0  0  0
    8.0970   -0.5373   18.4723 H   0  0  0  0  0  0  0  0  0  0  0  0
    4.9553    1.8024   17.0268 H   0  0  0  0  0  0  0  0  0  0  0  0
    3.8988    1.8662   19.2287 H   0  0  0  0  0  0  0  0  0  0  0  0
    5.0183    0.7822   21.1964 H   0  0  0  0  0  0  0  0  0  0  0  0
    8.9547   -3.1929   21.9938 H   0  0  0  0  0  0  0  0  0  0  0  0
    8.5678   -1.5648   23.9735 H   0  0  0  0  0  0  0  0  0  0  0  0
    7.2880    0.2351   24.8337 H   0  0  0  0  0  0  0  0  0  0  0  0
    8.2563    3.2211   24.7520 C   0  0  0  0  0  0  0  0  0  0  0  0
    9.5177    2.5994   24.7356 C   0  0  0  0  0  0  0  0  0  0  0  0
   10.6456    3.3376   24.3914 C   0  0  0  0  0  0  0  0  0  0  0  0
   10.4936    4.7015   24.1548 C   0  0  0  0  0  0  0  0  0  0  0  0
    9.2230    5.2780   24.2417 C   0  0  0  0  0  0  0  0  0  0  0  0
    9.0369    7.1532   23.9288 Br  0  0  0  0  0  0  0  0  0  0  0  0
    8.1331    4.5490   24.5346 N   0  0  0  0  0  0  0  0  0  0  0  0
   11.3373    5.3144   23.8571 H   0  0  0  0  0  0  0  0  0  0  0  0
   11.6109    2.8534   24.2782 H   0  0  0  0  0  0  0  0  0  0  0  0
    9.5852    1.5302   24.9180 H   0  0  0  0  0  0  0  0  0  0  0  0
    6.1450    2.9113   24.5368 H   0  0  0  0  0  0  0  0  0  0  0  0
    5.8208    1.4696   26.5253 H   0  0  0  0  0  0  0  0  0  0  0  0
    7.5631    1.5156   26.8642 H   0  0  0  0  0  0  0  0  0  0  0  0
    6.5958    3.0031   26.9716 H   0  0  0  0  0  0  0  0  0  0  0  0
  1  2  1  0
  2  3  1  0
  3  4  1  0
  4  5  2  0
  4  6  1  0
  6  7  2  0
  7  8  1  0
  8  9  1  0
  9 10  2  0
 10 11  1  0
 11 12  2  0
 12 13  1  0
 13 14  2  0
 14 15  1  0
 15 16  2  0
 16 17  1  0
 14 18  1  0
 13 19  1  0
 12 20  1  0
  8 21  1  0
  7 22  1  0
  3 23  1  0
  2 24  1  0
 24 25  2  0
 25 26  1  0
 26 27  2  0
 27 28  1  0
 28 29  1  0
 28 30  2  0
 27 31  1  0
 26 32  1  0
 25 33  1  0
  2 34  1  0
  1 35  1  0
  1 36  1  0
  1 37  1  0
 10  6  1  0
 16 11  1  0
 30 24  1  0
M  END
>  <cnnaffinity>  (1) 
-5.32945

>  <filename>  (1) 
CC(NC(=O)c1c[nH]nc1-c1cccnc1)c1cccc(Br)n1

$$$$
