
     RDKit          3D

 37 39  0  0  0  0  0  0  0  0999 V2000
    7.1851    1.3895   22.5635 C   0  0  0  0  0  0  0  0  0  0  0  0
    6.9223    0.0040   21.9668 C   0  0  0  0  0  0  0  0  0  0  0  0
    7.2747   -0.0436   20.5941 O   0  0  0  0  0  0  0  0  0  0  0  0
    6.5094    0.4989   19.6191 C   0  0  0  0  0  0  0  0  0  0  0  0
    5.2862    1.1549   19.7670 C   0  0  0  0  0  0  0  0  0  0  0  0
    4.6717    1.6481   18.6067 C   0  0  0  0  0  0  0  0  0  0  0  0
    5.2932    1.4818   17.3706 C   0  0  0  0  0  0  0  0  0  0  0  0
    6.4649    0.8367   17.2214 N   0  0  0  0  0  0  0  0  0  0  0  0
    7.0492    0.3649   18.3213 C   0  0  0  0  0  0  0  0  0  0  0  0
    8.0024   -0.1533   18.2127 H   0  0  0  0  0  0  0  0  0  0  0  0
    4.8585    1.8816   16.4603 H   0  0  0  0  0  0  0  0  0  0  0  0
    3.7302    2.1792   18.6636 H   0  0  0  0  0  0  0  0  0  0  0  0
    4.8354    1.2956   20.7464 H   0  0  0  0  0  0  0  0  0  0  0  0
    7.7823   -1.0970   22.6290 C   0  0  0  0  0  0  0  0  0  0  0  0
    8.9414   -1.3242   22.3530 O   0  0  0  0  0  0  0  0  0  0  0  0
    7.1343   -1.8380   23.5935 N   0  0  0  0  0  0  0  0  0  0  0  0
    7.6508   -2.9883   24.1531 C   0  0  0  0  0  0  0  0  0  0  0  0
    7.1124   -3.4007   25.2462 N   0  0  0  0  0  0  0  0  0  0  0  0
    7.7045   -4.5844   25.6341 C   0  0  0  0  0  0  0  0  0  0  0  0
    7.3672   -5.3130   26.7858 C   0  0  0  0  0  0  0  0  0  0  0  0
    6.1113   -4.9520   27.5280 C   0  0  0  0  0  0  0  0  0  0  0  0
    6.1057   -5.4825   28.7750 F   0  0  0  0  0  0  0  0  0  0  0  0
    5.9127   -3.6392   27.6723 F   0  0  0  0  0  0  0  0  0  0  0  0
    5.0263   -5.4433   26.8878 F   0  0  0  0  0  0  0  0  0  0  0  0
    8.0937   -6.4586   27.1027 C   0  0  0  0  0  0  0  0  0  0  0  0
    9.0623   -6.9430   26.2091 C   0  0  0  0  0  0  0  0  0  0  0  0
    9.3636   -6.2707   25.0332 C   0  0  0  0  0  0  0  0  0  0  0  0
    8.6984   -5.0784   24.7563 C   0  0  0  0  0  0  0  0  0  0  0  0
    8.9213   -3.9580   23.4374 S   0  0  0  0  0  0  0  0  0  0  0  0
   10.1224   -6.6838   24.3813 H   0  0  0  0  0  0  0  0  0  0  0  0
    9.5851   -7.8742   26.3949 H   0  0  0  0  0  0  0  0  0  0  0  0
    7.8885   -6.9866   28.0325 H   0  0  0  0  0  0  0  0  0  0  0  0
    6.4080   -1.4658   24.1894 H   0  0  0  0  0  0  0  0  0  0  0  0
    5.8710   -0.2928   22.0817 H   0  0  0  0  0  0  0  0  0  0  0  0
    6.8600    1.4198   23.6087 H   0  0  0  0  0  0  0  0  0  0  0  0
    8.2548    1.6194   22.5109 H   0  0  0  0  0  0  0  0  0  0  0  0
    6.6513    2.1683   22.0053 H   0  0  0  0  0  0  0  0  0  0  0  0
  1  2  1  0
  2  3  1  0
  3  4  1  0
  4  5  2  0
  5  6  1  0
  6  7  2  0
  7  8  1  0
  8  9  2  0
  9 10  1  0
  7 11  1  0
  6 12  1  0
  5 13  1  0
  2 14  1  0
 14 15  2  0
 14 16  1  0
 16 17  1  0
 17 18  2  0
 18 19  1  0
 19 20  2  0
 20 21  1  0
 21 22  1  0
 21 23  1  0
 21 24  1  0
 20 25  1  0
 25 26  2  0
 26 27  1  0
 27 28  2  0
 28 29  1  0
 27 30  1  0
 26 31  1  0
 25 32  1  0
 16 33  1  0
  2 34  1  0
  1 35  1  0
  1 36  1  0
  1 37  1  0
  9  4  1  0
 29 17  1  0
 28 19  1  0
M  END
>  <cnnaffinity>  (1) 
-5.42607

>  <filename>  (1) 
CC(Oc1cccnc1)C(=O)Nc1nc2c(C(F)(F)F)cccc2s1

$$$$
