
     RDKit          3D

 50 54  0  0  0  0  0  0  0  0999 V2000
    7.5011    4.5574   22.9565 C   0  0  0  0  0  0  0  0  0  0  0  0
    7.6139    3.7985   24.2822 C   0  0  0  0  0  0  0  0  0  0  0  0
    6.4626    2.9867   24.4546 O   0  0  0  0  0  0  0  0  0  0  0  0
    5.7126    3.5360   24.2048 H   0  0  0  0  0  0  0  0  0  0  0  0
    8.7694    2.7925   24.2942 C   0  0  0  0  0  0  0  0  0  0  0  0
    8.7598    1.8574   23.1330 C   0  0  0  0  0  0  0  0  0  0  0  0
    7.7475    1.1126   22.7310 N   0  0  0  0  0  0  0  0  0  0  0  0
    8.2865    0.3261   21.7677 C   0  0  0  0  0  0  0  0  0  0  0  0
    7.4653   -0.6524   20.9735 C   0  0  0  0  0  0  0  0  0  0  0  0
    6.6901   -0.0119   19.8268 C   0  0  0  0  0  0  0  0  0  0  0  0
    5.4873    0.6543   20.0941 C   0  0  0  0  0  0  0  0  0  0  0  0
    4.8298    1.3133   19.0535 C   0  0  0  0  0  0  0  0  0  0  0  0
    5.4084    1.2920   17.7811 C   0  0  0  0  0  0  0  0  0  0  0  0
    6.5478    0.6424   17.4941 N   0  0  0  0  0  0  0  0  0  0  0  0
    7.1583    0.0048   18.5012 C   0  0  0  0  0  0  0  0  0  0  0  0
    8.0807   -0.5211   18.2501 H   0  0  0  0  0  0  0  0  0  0  0  0
    4.9388    1.8191   16.9534 H   0  0  0  0  0  0  0  0  0  0  0  0
    3.8967    1.8426   19.2168 H   0  0  0  0  0  0  0  0  0  0  0  0
    5.0939    0.6581   21.1130 H   0  0  0  0  0  0  0  0  0  0  0  0
    8.1376   -1.4353   20.6074 H   0  0  0  0  0  0  0  0  0  0  0  0
    6.7595   -1.1082   21.6775 H   0  0  0  0  0  0  0  0  0  0  0  0
    9.5724    0.5230   21.5466 N   0  0  0  0  0  0  0  0  0  0  0  0
    9.8593    1.5591   22.3829 N   0  0  0  0  0  0  0  0  0  0  0  0
   11.1339    2.1800   22.4336 C   0  0  0  0  0  0  0  0  0  0  0  0
   11.3292    3.5616   22.3796 C   0  0  0  0  0  0  0  0  0  0  0  0
   12.6292    4.1173   22.4608 C   0  0  0  0  0  0  0  0  0  0  0  0
   13.7446    3.3108   22.6864 C   0  0  0  0  0  0  0  0  0  0  0  0
   13.5541    1.9156   22.7703 C   0  0  0  0  0  0  0  0  0  0  0  0
   12.2720    1.3770   22.5930 C   0  0  0  0  0  0  0  0  0  0  0  0
   12.4476    0.0167   22.5987 N   0  0  0  0  0  0  0  0  0  0  0  0
   13.7825   -0.2080   22.7617 C   0  0  0  0  0  0  0  0  0  0  0  0
   14.4776    0.8844   22.8850 N   0  0  0  0  0  0  0  0  0  0  0  0
   14.1896   -1.2157   22.7982 H   0  0  0  0  0  0  0  0  0  0  0  0
   11.7502   -0.6045   22.2241 H   0  0  0  0  0  0  0  0  0  0  0  0
   14.7497    3.7111   22.7463 H   0  0  0  0  0  0  0  0  0  0  0  0
   12.7562    5.1915   22.3640 H   0  0  0  0  0  0  0  0  0  0  0  0
   10.4663    4.2156   22.2782 H   0  0  0  0  0  0  0  0  0  0  0  0
    8.6829    2.1963   25.2109 H   0  0  0  0  0  0  0  0  0  0  0  0
    9.7152    3.3302   24.3465 H   0  0  0  0  0  0  0  0  0  0  0  0
    7.7650    4.6972   25.5104 C   0  0  0  0  0  0  0  0  0  0  0  0
    6.7945    5.7974   25.8474 C   0  0  0  0  0  0  0  0  0  0  0  0
    8.2241    6.1328   25.5373 C   0  0  0  0  0  0  0  0  0  0  0  0
    8.8762    6.4375   26.3479 H   0  0  0  0  0  0  0  0  0  0  0  0
    8.4386    6.6502   24.6062 H   0  0  0  0  0  0  0  0  0  0  0  0
    6.4381    5.8590   26.8696 H   0  0  0  0  0  0  0  0  0  0  0  0
    6.0375    6.0751   25.1193 H   0  0  0  0  0  0  0  0  0  0  0  0
    8.0704    4.0959   26.3672 H   0  0  0  0  0  0  0  0  0  0  0  0
    6.6680    5.2676   22.9849 H   0  0  0  0  0  0  0  0  0  0  0  0
    7.3237    3.8584   22.1313 H   0  0  0  0  0  0  0  0  0  0  0  0
    8.4035    5.1346   22.7298 H   0  0  0  0  0  0  0  0  0  0  0  0
  1  2  1  0
  2  3  1  0
  3  4  1  0
  2  5  1  0
  5  6  1  0
  6  7  2  0
  7  8  1  0
  8  9  1  0
  9 10  1  0
 10 11  2  0
 11 12  1  0
 12 13  2  0
 13 14  1  0
 14 15  2  0
 15 16  1  0
 13 17  1  0
 12 18  1  0
 11 19  1  0
  9 20  1  0
  9 21  1  0
  8 22  2  0
 22 23  1  0
 23 24  1  0
 24 25  2  0
 25 26  1  0
 26 27  2  0
 27 28  1  0
 28 29  2  0
 29 30  1  0
 30 31  1  0
 31 32  2  0
 31 33  1  0
 30 34  1  0
 27 35  1  0
 26 36  1  0
 25 37  1  0
  5 38  1  0
  5 39  1  0
  2 40  1  0
 40 41  1  0
 41 42  1  0
 42 43  1  0
 42 44  1  0
 41 45  1  0
 41 46  1  0
 40 47  1  0
  1 48  1  0
  1 49  1  0
  1 50  1  0
 23  6  1  0
 29 24  1  0
 42 40  1  0
 15 10  1  0
 32 28  1  0
M  END
>  <cnnaffinity>  (1) 
-6.47829

>  <filename>  (1) 
CC(O)(Cc1nc(Cc2cccnc2)nn1-c1cccc2nc[nH]c12)C1CC1

$$$$
