
     RDKit          3D

 50 54  0  0  0  0  0  0  0  0999 V2000
    8.8534    5.1916   22.9915 C   0  0  0  0  0  0  0  0  0  0  0  0
    7.7413    4.2233   23.3797 C   0  0  0  0  0  0  0  0  0  0  0  0
    6.7866    3.9975   22.2165 C   0  0  0  0  0  0  0  0  0  0  0  0
    5.9542    3.3635   22.5259 H   0  0  0  0  0  0  0  0  0  0  0  0
    6.3947    4.9483   21.8454 H   0  0  0  0  0  0  0  0  0  0  0  0
    7.3062    3.4822   21.4082 H   0  0  0  0  0  0  0  0  0  0  0  0
    7.0106    4.8492   24.4435 O   0  0  0  0  0  0  0  0  0  0  0  0
    7.0580    4.0968   25.6417 C   0  0  0  0  0  0  0  0  0  0  0  0
    7.3573    2.6673   25.2076 C   0  0  0  0  0  0  0  0  0  0  0  0
    8.2817    2.8808   24.0031 C   0  0  0  0  0  0  0  0  0  0  0  0
    8.3782    1.7036   23.1215 N   0  0  0  0  0  0  0  0  0  0  0  0
    7.2668    0.9934   22.8108 N   0  0  0  0  0  0  0  0  0  0  0  0
    7.7134    0.0489   22.0072 C   0  0  0  0  0  0  0  0  0  0  0  0
    6.7930   -0.8575   21.2417 C   0  0  0  0  0  0  0  0  0  0  0  0
    6.2914   -0.1893   19.9660 C   0  0  0  0  0  0  0  0  0  0  0  0
    5.1650    0.6403   20.0053 C   0  0  0  0  0  0  0  0  0  0  0  0
    4.8080    1.3520   18.8573 C   0  0  0  0  0  0  0  0  0  0  0  0
    5.5960    1.2104   17.7114 C   0  0  0  0  0  0  0  0  0  0  0  0
    6.6778    0.4179   17.6475 N   0  0  0  0  0  0  0  0  0  0  0  0
    7.0062   -0.2590   18.7562 C   0  0  0  0  0  0  0  0  0  0  0  0
    7.8934   -0.8932   18.6911 H   0  0  0  0  0  0  0  0  0  0  0  0
    5.3504    1.7539   16.8004 H   0  0  0  0  0  0  0  0  0  0  0  0
    3.9524    2.0186   18.8435 H   0  0  0  0  0  0  0  0  0  0  0  0
    4.5959    0.7325   20.9339 H   0  0  0  0  0  0  0  0  0  0  0  0
    7.3340   -1.7826   21.0223 H   0  0  0  0  0  0  0  0  0  0  0  0
    5.9493   -1.1022   21.8912 H   0  0  0  0  0  0  0  0  0  0  0  0
    9.0576    0.0667   21.8100 N   0  0  0  0  0  0  0  0  0  0  0  0
    9.4475    1.1327   22.4978 C   0  0  0  0  0  0  0  0  0  0  0  0
   10.8127    1.7598   22.6016 C   0  0  0  0  0  0  0  0  0  0  0  0
   11.7951    1.2487   23.4950 C   0  0  0  0  0  0  0  0  0  0  0  0
   13.0395    1.8641   23.5984 C   0  0  0  0  0  0  0  0  0  0  0  0
   13.2562    2.9966   22.7953 C   0  0  0  0  0  0  0  0  0  0  0  0
   14.3177    3.8650   22.6337 N   0  0  0  0  0  0  0  0  0  0  0  0
   13.9912    4.8105   21.6757 C   0  0  0  0  0  0  0  0  0  0  0  0
   12.7181    4.5842   21.2363 C   0  0  0  0  0  0  0  0  0  0  0  0
   12.2260    3.4395   21.9328 C   0  0  0  0  0  0  0  0  0  0  0  0
   11.0168    2.8429   21.8468 N   0  0  0  0  0  0  0  0  0  0  0  0
   12.1677    5.0900   20.4603 H   0  0  0  0  0  0  0  0  0  0  0  0
   14.7007    5.5787   21.3777 H   0  0  0  0  0  0  0  0  0  0  0  0
   15.2387    3.7039   23.0092 H   0  0  0  0  0  0  0  0  0  0  0  0
   13.8005    1.4812   24.2740 H   0  0  0  0  0  0  0  0  0  0  0  0
   11.5461    0.3876   24.1079 H   0  0  0  0  0  0  0  0  0  0  0  0
    9.3018    3.0622   24.3513 H   0  0  0  0  0  0  0  0  0  0  0  0
    6.4265    2.1952   24.8672 H   0  0  0  0  0  0  0  0  0  0  0  0
    7.8001    2.0335   25.9846 H   0  0  0  0  0  0  0  0  0  0  0  0
    6.0871    4.2052   26.1336 H   0  0  0  0  0  0  0  0  0  0  0  0
    7.8168    4.5042   26.3302 H   0  0  0  0  0  0  0  0  0  0  0  0
    8.4185    6.1471   22.6873 H   0  0  0  0  0  0  0  0  0  0  0  0
    9.4293    4.7783   22.1645 H   0  0  0  0  0  0  0  0  0  0  0  0
    9.5247    5.3669   23.8373 H   0  0  0  0  0  0  0  0  0  0  0  0
  1  2  1  0
  2  3  1  0
  3  4  1  0
  3  5  1  0
  3  6  1  0
  2  7  1  0
  7  8  1  0
  8  9  1  0
  9 10  1  0
 10 11  1  0
 11 12  1  0
 12 13  2  0
 13 14  1  0
 14 15  1  0
 15 16  2  0
 16 17  1  0
 17 18  2  0
 18 19  1  0
 19 20  2  0
 20 21  1  0
 18 22  1  0
 17 23  1  0
 16 24  1  0
 14 25  1  0
 14 26  1  0
 13 27  1  0
 27 28  2  0
 28 29  1  0
 29 30  2  0
 30 31  1  0
 31 32  2  0
 32 33  1  0
 33 34  1  0
 34 35  2  0
 35 36  1  0
 36 37  2  0
 35 38  1  0
 34 39  1  0
 33 40  1  0
 31 41  1  0
 30 42  1  0
 10 43  1  0
  9 44  1  0
  9 45  1  0
  8 46  1  0
  8 47  1  0
  1 48  1  0
  1 49  1  0
  1 50  1  0
 10  2  1  0
 28 11  1  0
 37 29  1  0
 20 15  1  0
 36 32  1  0
M  END
>  <cnnaffinity>  (1) 
-6.54316

>  <filename>  (1) 
CC1(C)OCCC1n1nc(Cc2cccnc2)nc1-c1ccc2[nH]ccc2n1

$$$$
