
     RDKit          3D

 51 55  0  0  0  0  0  0  0  0999 V2000
    5.7260    3.4784   23.8272 C   0  0  0  0  0  0  0  0  0  0  0  0
    6.9272    3.1006   24.6958 C   0  0  0  0  0  0  0  0  0  0  0  0
    6.5814    1.7958   25.4422 C   0  0  0  0  0  0  0  0  0  0  0  0
    5.8087    2.0053   26.1913 H   0  0  0  0  0  0  0  0  0  0  0  0
    7.4357    1.3518   25.9635 H   0  0  0  0  0  0  0  0  0  0  0  0
    6.1887    1.0469   24.7525 H   0  0  0  0  0  0  0  0  0  0  0  0
    7.3092    4.2122   25.7004 C   0  0  0  0  0  0  0  0  0  0  0  0
    8.6950    3.7983   26.2034 C   0  0  0  0  0  0  0  0  0  0  0  0
    9.3826    3.1915   24.9656 C   0  0  0  0  0  0  0  0  0  0  0  0
    8.2661    3.0165   23.8930 C   0  0  0  0  0  0  0  0  0  0  0  0
    8.4358    1.8438   23.0113 N   0  0  0  0  0  0  0  0  0  0  0  0
    7.3930    1.1223   22.5206 N   0  0  0  0  0  0  0  0  0  0  0  0
    7.9761    0.2351   21.7344 C   0  0  0  0  0  0  0  0  0  0  0  0
    7.1968   -0.7539   20.9108 C   0  0  0  0  0  0  0  0  0  0  0  0
    6.4716   -0.1330   19.7210 C   0  0  0  0  0  0  0  0  0  0  0  0
    5.2699    0.5640   19.9054 C   0  0  0  0  0  0  0  0  0  0  0  0
    4.7419    1.2865   18.8356 C   0  0  0  0  0  0  0  0  0  0  0  0
    5.4136    1.2645   17.6118 C   0  0  0  0  0  0  0  0  0  0  0  0
    6.5369    0.5589   17.3944 N   0  0  0  0  0  0  0  0  0  0  0  0
    7.0361   -0.1211   18.4320 C   0  0  0  0  0  0  0  0  0  0  0  0
    7.9577   -0.6779   18.2437 H   0  0  0  0  0  0  0  0  0  0  0  0
    5.0404    1.8440   16.7715 H   0  0  0  0  0  0  0  0  0  0  0  0
    3.8435    1.8826   18.9499 H   0  0  0  0  0  0  0  0  0  0  0  0
    4.7825    0.5596   20.8820 H   0  0  0  0  0  0  0  0  0  0  0  0
    6.4851   -1.2478   21.5819 H   0  0  0  0  0  0  0  0  0  0  0  0
    7.9120   -1.5068   20.5691 H   0  0  0  0  0  0  0  0  0  0  0  0
    9.3263    0.3297   21.6782 N   0  0  0  0  0  0  0  0  0  0  0  0
    9.5761    1.3795   22.4357 C   0  0  0  0  0  0  0  0  0  0  0  0
   10.8802    2.0153   22.5451 C   0  0  0  0  0  0  0  0  0  0  0  0
   12.0039    1.1785   22.7893 C   0  0  0  0  0  0  0  0  0  0  0  0
   13.2520    1.6063   22.8237 N   0  0  0  0  0  0  0  0  0  0  0  0
   13.4212    2.9377   22.5762 C   0  0  0  0  0  0  0  0  0  0  0  0
   14.5942    3.7270   22.4225 C   0  0  0  0  0  0  0  0  0  0  0  0
   14.3074    4.9957   22.1949 N   0  0  0  0  0  0  0  0  0  0  0  0
   12.9518    5.0671   22.1742 N   0  0  0  0  0  0  0  0  0  0  0  0
   12.3646    3.8581   22.3706 C   0  0  0  0  0  0  0  0  0  0  0  0
   11.0536    3.3808   22.3246 C   0  0  0  0  0  0  0  0  0  0  0  0
   10.2140    4.0434   22.1665 H   0  0  0  0  0  0  0  0  0  0  0  0
   12.4984    5.9593   22.0592 H   0  0  0  0  0  0  0  0  0  0  0  0
   15.5836    3.2999   22.3943 H   0  0  0  0  0  0  0  0  0  0  0  0
   11.8635    0.1142   22.9769 H   0  0  0  0  0  0  0  0  0  0  0  0
    8.2738    3.9111   23.2497 H   0  0  0  0  0  0  0  0  0  0  0  0
    9.8608    2.2364   25.1982 H   0  0  0  0  0  0  0  0  0  0  0  0
   10.1737    3.8628   24.6213 H   0  0  0  0  0  0  0  0  0  0  0  0
    8.5955    3.0341   26.9821 H   0  0  0  0  0  0  0  0  0  0  0  0
    9.2595    4.6308   26.6331 H   0  0  0  0  0  0  0  0  0  0  0  0
    6.5664    4.3204   26.4985 H   0  0  0  0  0  0  0  0  0  0  0  0
    7.3679    5.1805   25.1782 H   0  0  0  0  0  0  0  0  0  0  0  0
    5.5532    2.6977   23.0791 H   0  0  0  0  0  0  0  0  0  0  0  0
    5.8594    4.4344   23.3080 H   0  0  0  0  0  0  0  0  0  0  0  0
    4.8282    3.5589   24.4534 H   0  0  0  0  0  0  0  0  0  0  0  0
  1  2  1  0
  2  3  1  0
  3  4  1  0
  3  5  1  0
  3  6  1  0
  2  7  1  0
  7  8  1  0
  8  9  1  0
  9 10  1  0
 10 11  1  0
 11 12  1  0
 12 13  2  0
 13 14  1  0
 14 15  1  0
 15 16  2  0
 16 17  1  0
 17 18  2  0
 18 19  1  0
 19 20  2  0
 20 21  1  0
 18 22  1  0
 17 23  1  0
 16 24  1  0
 14 25  1  0
 14 26  1  0
 13 27  1  0
 27 28  2  0
 28 29  1  0
 29 30  2  0
 30 31  1  0
 31 32  2  0
 32 33  1  0
 33 34  2  0
 34 35  1  0
 35 36  1  0
 36 37  2  0
 37 38  1  0
 35 39  1  0
 33 40  1  0
 30 41  1  0
 10 42  1  0
  9 43  1  0
  9 44  1  0
  8 45  1  0
  8 46  1  0
  7 47  1  0
  7 48  1  0
  1 49  1  0
  1 50  1  0
  1 51  1  0
 10  2  1  0
 28 11  1  0
 37 29  1  0
 20 15  1  0
 36 32  1  0
M  END
>  <cnnaffinity>  (1) 
-6.52914

>  <filename>  (1) 
CC1(C)CCCC1n1nc(Cc2cccnc2)nc1-c1cnc2cn[nH]c2c1

$$$$
