
     RDKit          3D

 50 54  0  0  0  0  0  0  0  0999 V2000
   11.9630    1.0872   24.2577 C   0  0  0  0  0  0  0  0  0  0  0  0
   12.2514    1.0931   22.7549 C   0  0  0  0  0  0  0  0  0  0  0  0
   11.2990    2.0282   21.9795 C   0  0  0  0  0  0  0  0  0  0  0  0
    9.8992    1.5421   21.9835 C   0  0  0  0  0  0  0  0  0  0  0  0
    9.4453    0.6166   21.1621 N   0  0  0  0  0  0  0  0  0  0  0  0
    8.2382    0.2868   21.6954 C   0  0  0  0  0  0  0  0  0  0  0  0
    7.3552   -0.7057   20.9960 C   0  0  0  0  0  0  0  0  0  0  0  0
    6.6020   -0.0612   19.8417 C   0  0  0  0  0  0  0  0  0  0  0  0
    5.4104    0.6288   20.0873 C   0  0  0  0  0  0  0  0  0  0  0  0
    4.7956    1.3176   19.0402 C   0  0  0  0  0  0  0  0  0  0  0  0
    5.4079    1.3006   17.7830 C   0  0  0  0  0  0  0  0  0  0  0  0
    6.5509    0.6472   17.5213 N   0  0  0  0  0  0  0  0  0  0  0  0
    7.1224   -0.0132   18.5364 C   0  0  0  0  0  0  0  0  0  0  0  0
    8.0605   -0.5250   18.3148 H   0  0  0  0  0  0  0  0  0  0  0  0
    4.9639    1.8322   16.9445 H   0  0  0  0  0  0  0  0  0  0  0  0
    3.8739    1.8707   19.1894 H   0  0  0  0  0  0  0  0  0  0  0  0
    4.9939    0.6346   21.0962 H   0  0  0  0  0  0  0  0  0  0  0  0
    8.0012   -1.5140   20.6360 H   0  0  0  0  0  0  0  0  0  0  0  0
    6.6520   -1.1241   21.7241 H   0  0  0  0  0  0  0  0  0  0  0  0
    7.9179    0.9413   22.7931 N   0  0  0  0  0  0  0  0  0  0  0  0
    8.9650    1.8157   22.9325 N   0  0  0  0  0  0  0  0  0  0  0  0
    8.9789    2.8307   23.9272 C   0  0  0  0  0  0  0  0  0  0  0  0
    9.3460    4.1598   23.7005 C   0  0  0  0  0  0  0  0  0  0  0  0
    9.3186    5.1027   24.7571 C   0  0  0  0  0  0  0  0  0  0  0  0
    8.9311    4.7454   26.0461 C   0  0  0  0  0  0  0  0  0  0  0  0
    8.5717    3.4037   26.2856 C   0  0  0  0  0  0  0  0  0  0  0  0
    8.6079    2.4774   25.2338 C   0  0  0  0  0  0  0  0  0  0  0  0
    8.2398    1.2815   25.7893 N   0  0  0  0  0  0  0  0  0  0  0  0
    7.9854    1.5198   27.1073 C   0  0  0  0  0  0  0  0  0  0  0  0
    8.1550    2.7654   27.4456 N   0  0  0  0  0  0  0  0  0  0  0  0
    7.6999    0.7153   27.7782 H   0  0  0  0  0  0  0  0  0  0  0  0
    8.0342    0.4646   25.2406 H   0  0  0  0  0  0  0  0  0  0  0  0
    8.8808    5.4616   26.8576 H   0  0  0  0  0  0  0  0  0  0  0  0
    9.6110    6.1263   24.5444 H   0  0  0  0  0  0  0  0  0  0  0  0
    9.6195    4.4885   22.7016 H   0  0  0  0  0  0  0  0  0  0  0  0
   11.3752    3.0257   22.4174 H   0  0  0  0  0  0  0  0  0  0  0  0
   11.6538    2.0862   20.9469 H   0  0  0  0  0  0  0  0  0  0  0  0
   12.3558   -0.3496   22.1938 C   0  0  0  0  0  0  0  0  0  0  0  0
   13.8732   -0.6484   22.1444 C   0  0  0  0  0  0  0  0  0  0  0  0
   14.4997    0.6343   22.7026 C   0  0  0  0  0  0  0  0  0  0  0  0
   13.5371    1.6530   22.5504 O   0  0  0  0  0  0  0  0  0  0  0  0
   15.3978    0.9585   22.1697 H   0  0  0  0  0  0  0  0  0  0  0  0
   14.7461    0.4849   23.7651 H   0  0  0  0  0  0  0  0  0  0  0  0
   14.1856   -1.5049   22.7491 H   0  0  0  0  0  0  0  0  0  0  0  0
   14.2094   -0.8438   21.1236 H   0  0  0  0  0  0  0  0  0  0  0  0
   11.8828   -0.4235   21.2091 H   0  0  0  0  0  0  0  0  0  0  0  0
   11.7928   -1.0346   22.8312 H   0  0  0  0  0  0  0  0  0  0  0  0
   11.9497    2.1057   24.6550 H   0  0  0  0  0  0  0  0  0  0  0  0
   12.7541    0.5368   24.7774 H   0  0  0  0  0  0  0  0  0  0  0  0
   11.0076    0.6032   24.4690 H   0  0  0  0  0  0  0  0  0  0  0  0
  1  2  1  0
  2  3  1  0
  3  4  1  0
  4  5  2  0
  5  6  1  0
  6  7  1  0
  7  8  1  0
  8  9  2  0
  9 10  1  0
 10 11  2  0
 11 12  1  0
 12 13  2  0
 13 14  1  0
 11 15  1  0
 10 16  1  0
  9 17  1  0
  7 18  1  0
  7 19  1  0
  6 20  2  0
 20 21  1  0
 21 22  1  0
 22 23  2  0
 23 24  1  0
 24 25  2  0
 25 26  1  0
 26 27  2  0
 27 28  1  0
 28 29  1  0
 29 30  2  0
 29 31  1  0
 28 32  1  0
 25 33  1  0
 24 34  1  0
 23 35  1  0
  3 36  1  0
  3 37  1  0
  2 38  1  0
 38 39  1  0
 39 40  1  0
 40 41  1  0
 40 42  1  0
 40 43  1  0
 39 44  1  0
 39 45  1  0
 38 46  1  0
 38 47  1  0
  1 48  1  0
  1 49  1  0
  1 50  1  0
 41  2  1  0
 21  4  1  0
 27 22  1  0
 13  8  1  0
 30 26  1  0
M  END
>  <cnnaffinity>  (1) 
-6.14587

>  <filename>  (1) 
CC1(Cc2nc(Cc3cccnc3)nn2-c2cccc3nc[nH]c23)CCCO1

$$$$
