
     RDKit          3D

 53 57  0  0  0  0  0  0  0  0999 V2000
    7.5597    4.5197   22.4834 C   0  0  0  0  0  0  0  0  0  0  0  0
    7.7790    4.0689   23.9411 C   0  0  0  0  0  0  0  0  0  0  0  0
    8.2052    5.3015   24.7667 C   0  0  0  0  0  0  0  0  0  0  0  0
    9.1432    5.7130   24.3751 H   0  0  0  0  0  0  0  0  0  0  0  0
    7.4537    6.0978   24.7085 H   0  0  0  0  0  0  0  0  0  0  0  0
    8.3521    5.0726   25.8266 H   0  0  0  0  0  0  0  0  0  0  0  0
    6.4618    3.4748   24.5020 C   0  0  0  0  0  0  0  0  0  0  0  0
    6.6037    2.9311   25.8100 O   0  0  0  0  0  0  0  0  0  0  0  0
    7.5454    1.8687   25.8846 C   0  0  0  0  0  0  0  0  0  0  0  0
    8.9343    2.3458   25.4688 C   0  0  0  0  0  0  0  0  0  0  0  0
    8.9002    2.9780   24.0500 C   0  0  0  0  0  0  0  0  0  0  0  0
    8.8573    1.9149   22.9702 C   0  0  0  0  0  0  0  0  0  0  0  0
    7.8213    1.1844   22.5937 N   0  0  0  0  0  0  0  0  0  0  0  0
    8.3518    0.2949   21.7119 C   0  0  0  0  0  0  0  0  0  0  0  0
    7.4771   -0.6677   20.9546 C   0  0  0  0  0  0  0  0  0  0  0  0
    6.6842   -0.0293   19.8154 C   0  0  0  0  0  0  0  0  0  0  0  0
    5.4729    0.6228   20.0801 C   0  0  0  0  0  0  0  0  0  0  0  0
    4.8219    1.2979   19.0445 C   0  0  0  0  0  0  0  0  0  0  0  0
    5.4084    1.2932   17.7758 C   0  0  0  0  0  0  0  0  0  0  0  0
    6.5492    0.6470   17.4871 N   0  0  0  0  0  0  0  0  0  0  0  0
    7.1566    0.0015   18.4905 C   0  0  0  0  0  0  0  0  0  0  0  0
    8.0808   -0.5203   18.2365 H   0  0  0  0  0  0  0  0  0  0  0  0
    4.9420    1.8276   16.9513 H   0  0  0  0  0  0  0  0  0  0  0  0
    3.8905    1.8302   19.2106 H   0  0  0  0  0  0  0  0  0  0  0  0
    5.0622    0.6041   21.0916 H   0  0  0  0  0  0  0  0  0  0  0  0
    8.1079   -1.4803   20.5817 H   0  0  0  0  0  0  0  0  0  0  0  0
    6.7816   -1.0884   21.6894 H   0  0  0  0  0  0  0  0  0  0  0  0
    9.6596    0.3879   21.5553 N   0  0  0  0  0  0  0  0  0  0  0  0
    9.9713    1.4728   22.3244 N   0  0  0  0  0  0  0  0  0  0  0  0
   11.2702    2.0394   22.4005 C   0  0  0  0  0  0  0  0  0  0  0  0
   11.5203    3.4125   22.3063 C   0  0  0  0  0  0  0  0  0  0  0  0
   12.8252    3.9315   22.4389 C   0  0  0  0  0  0  0  0  0  0  0  0
   13.9057    3.0921   22.6837 C   0  0  0  0  0  0  0  0  0  0  0  0
   13.6759    1.7014   22.7697 C   0  0  0  0  0  0  0  0  0  0  0  0
   12.3773    1.1981   22.5931 C   0  0  0  0  0  0  0  0  0  0  0  0
   12.5114   -0.1695   22.6190 N   0  0  0  0  0  0  0  0  0  0  0  0
   13.8401   -0.4258   22.7720 C   0  0  0  0  0  0  0  0  0  0  0  0
   14.5708    0.6463   22.8772 N   0  0  0  0  0  0  0  0  0  0  0  0
   14.2284   -1.4392   22.7892 H   0  0  0  0  0  0  0  0  0  0  0  0
   11.7766   -0.7930   22.3292 H   0  0  0  0  0  0  0  0  0  0  0  0
   14.9123    3.4882   22.6981 H   0  0  0  0  0  0  0  0  0  0  0  0
   12.9901    5.0025   22.3475 H   0  0  0  0  0  0  0  0  0  0  0  0
   10.7009    4.1012   22.1270 H   0  0  0  0  0  0  0  0  0  0  0  0
    9.8448    3.5002   23.9333 H   0  0  0  0  0  0  0  0  0  0  0  0
    9.6597    1.5251   25.4940 H   0  0  0  0  0  0  0  0  0  0  0  0
    9.2811    3.0910   26.1948 H   0  0  0  0  0  0  0  0  0  0  0  0
    7.5417    1.5251   26.9246 H   0  0  0  0  0  0  0  0  0  0  0  0
    7.2325    1.0334   25.2379 H   0  0  0  0  0  0  0  0  0  0  0  0
    6.0934    2.6991   23.8120 H   0  0  0  0  0  0  0  0  0  0  0  0
    5.6989    4.2601   24.5807 H   0  0  0  0  0  0  0  0  0  0  0  0
    7.2285    3.6929   21.8475 H   0  0  0  0  0  0  0  0  0  0  0  0
    6.8035    5.3108   22.4282 H   0  0  0  0  0  0  0  0  0  0  0  0
    8.4817    4.9212   22.0432 H   0  0  0  0  0  0  0  0  0  0  0  0
  1  2  1  0
  2  3  1  0
  3  4  1  0
  3  5  1  0
  3  6  1  0
  2  7  1  0
  7  8  1  0
  8  9  1  0
  9 10  1  0
 10 11  1  0
 11 12  1  0
 12 13  2  0
 13 14  1  0
 14 15  1  0
 15 16  1  0
 16 17  2  0
 17 18  1  0
 18 19  2  0
 19 20  1  0
 20 21  2  0
 21 22  1  0
 19 23  1  0
 18 24  1  0
 17 25  1  0
 15 26  1  0
 15 27  1  0
 14 28  2  0
 28 29  1  0
 29 30  1  0
 30 31  2  0
 31 32  1  0
 32 33  2  0
 33 34  1  0
 34 35  2  0
 35 36  1  0
 36 37  1  0
 37 38  2  0
 37 39  1  0
 36 40  1  0
 33 41  1  0
 32 42  1  0
 31 43  1  0
 11 44  1  0
 10 45  1  0
 10 46  1  0
  9 47  1  0
  9 48  1  0
  7 49  1  0
  7 50  1  0
  1 51  1  0
  1 52  1  0
  1 53  1  0
 11  2  1  0
 29 12  1  0
 35 30  1  0
 21 16  1  0
 38 34  1  0
M  END
>  <cnnaffinity>  (1) 
-6.69606

>  <filename>  (1) 
CC1(C)COCCC1c1nc(Cc2cccnc2)nn1-c1cccc2nc[nH]c12

$$$$
