
     RDKit          3D

 51 55  0  0  0  0  0  0  0  0999 V2000
   11.4562    0.6438   24.3956 C   0  0  0  0  0  0  0  0  0  0  0  0
   11.9958    0.9338   22.9839 C   0  0  0  0  0  0  0  0  0  0  0  0
   11.0651    1.9742   22.2959 C   0  0  0  0  0  0  0  0  0  0  0  0
    9.6689    1.5699   22.1752 N   0  0  0  0  0  0  0  0  0  0  0  0
    9.3486    0.5986   21.2886 N   0  0  0  0  0  0  0  0  0  0  0  0
    8.1125    0.2845   21.6177 C   0  0  0  0  0  0  0  0  0  0  0  0
    7.3484   -0.7534   20.8556 C   0  0  0  0  0  0  0  0  0  0  0  0
    6.5920   -0.1191   19.7013 C   0  0  0  0  0  0  0  0  0  0  0  0
    5.4391    0.6309   19.9706 C   0  0  0  0  0  0  0  0  0  0  0  0
    4.8349    1.3271   18.9254 C   0  0  0  0  0  0  0  0  0  0  0  0
    5.4161    1.2651   17.6547 C   0  0  0  0  0  0  0  0  0  0  0  0
    6.5151    0.5472   17.3729 N   0  0  0  0  0  0  0  0  0  0  0  0
    7.0769   -0.1239   18.3849 C   0  0  0  0  0  0  0  0  0  0  0  0
    7.9806   -0.6891   18.1496 H   0  0  0  0  0  0  0  0  0  0  0  0
    4.9908    1.8229   16.8253 H   0  0  0  0  0  0  0  0  0  0  0  0
    3.9533    1.9376   19.0861 H   0  0  0  0  0  0  0  0  0  0  0  0
    5.0651    0.6854   20.9966 H   0  0  0  0  0  0  0  0  0  0  0  0
    6.6568   -1.2414   21.5508 H   0  0  0  0  0  0  0  0  0  0  0  0
    8.0624   -1.5072   20.5075 H   0  0  0  0  0  0  0  0  0  0  0  0
    7.6021    1.0004   22.6492 N   0  0  0  0  0  0  0  0  0  0  0  0
    8.5946    1.8172   22.9691 C   0  0  0  0  0  0  0  0  0  0  0  0
    8.6252    2.8299   24.0582 C   0  0  0  0  0  0  0  0  0  0  0  0
    8.4314    2.4728   25.3973 C   0  0  0  0  0  0  0  0  0  0  0  0
    8.6666    3.4044   26.4309 C   0  0  0  0  0  0  0  0  0  0  0  0
    9.0455    4.6733   26.2621 N   0  0  0  0  0  0  0  0  0  0  0  0
    9.1394    5.0224   24.9708 C   0  0  0  0  0  0  0  0  0  0  0  0
    8.9179    4.2074   23.8326 C   0  0  0  0  0  0  0  0  0  0  0  0
    9.0220    5.1356   22.7484 C   0  0  0  0  0  0  0  0  0  0  0  0
    9.3522    6.3427   23.1592 N   0  0  0  0  0  0  0  0  0  0  0  0
    9.4291    6.2551   24.5054 N   0  0  0  0  0  0  0  0  0  0  0  0
    9.7149    7.0222   25.0942 H   0  0  0  0  0  0  0  0  0  0  0  0
    8.8457    4.9485   21.6932 H   0  0  0  0  0  0  0  0  0  0  0  0
    8.5245    3.0876   27.4565 H   0  0  0  0  0  0  0  0  0  0  0  0
    8.1212    1.4669   25.6640 H   0  0  0  0  0  0  0  0  0  0  0  0
   11.1008    2.9045   22.8652 H   0  0  0  0  0  0  0  0  0  0  0  0
   11.4203    2.1820   21.2832 H   0  0  0  0  0  0  0  0  0  0  0  0
   13.4139    1.5455   23.0748 C   0  0  0  0  0  0  0  0  0  0  0  0
   14.4181    0.3992   22.9418 C   0  0  0  0  0  0  0  0  0  0  0  0
   13.7188   -0.6842   22.1075 C   0  0  0  0  0  0  0  0  0  0  0  0
   12.1964   -0.3823   22.1604 C   0  0  0  0  0  0  0  0  0  0  0  0
   11.7847   -0.2799   21.1502 H   0  0  0  0  0  0  0  0  0  0  0  0
   11.6309   -1.2074   22.6169 H   0  0  0  0  0  0  0  0  0  0  0  0
   14.1036   -0.6447   21.0867 H   0  0  0  0  0  0  0  0  0  0  0  0
   13.9606   -1.6977   22.4442 H   0  0  0  0  0  0  0  0  0  0  0  0
   14.6948    0.0035   23.9239 H   0  0  0  0  0  0  0  0  0  0  0  0
   15.3250    0.7563   22.4418 H   0  0  0  0  0  0  0  0  0  0  0  0
   13.5532    2.1162   24.0013 H   0  0  0  0  0  0  0  0  0  0  0  0
   13.5562    2.2618   22.2599 H   0  0  0  0  0  0  0  0  0  0  0  0
   11.3570    1.5779   24.9627 H   0  0  0  0  0  0  0  0  0  0  0  0
   12.1178   -0.0286   24.9513 H   0  0  0  0  0  0  0  0  0  0  0  0
   10.4635    0.1861   24.3487 H   0  0  0  0  0  0  0  0  0  0  0  0
  1  2  1  0
  2  3  1  0
  3  4  1  0
  4  5  1  0
  5  6  2  0
  6  7  1  0
  7  8  1  0
  8  9  2  0
  9 10  1  0
 10 11  2  0
 11 12  1  0
 12 13  2  0
 13 14  1  0
 11 15  1  0
 10 16  1  0
  9 17  1  0
  7 18  1  0
  7 19  1  0
  6 20  1  0
 20 21  2  0
 21 22  1  0
 22 23  2  0
 23 24  1  0
 24 25  2  0
 25 26  1  0
 26 27  2  0
 27 28  1  0
 28 29  2  0
 29 30  1  0
 30 31  1  0
 28 32  1  0
 24 33  1  0
 23 34  1  0
  3 35  1  0
  3 36  1  0
  2 37  1  0
 37 38  1  0
 38 39  1  0
 39 40  1  0
 40 41  1  0
 40 42  1  0
 39 43  1  0
 39 44  1  0
 38 45  1  0
 38 46  1  0
 37 47  1  0
 37 48  1  0
  1 49  1  0
  1 50  1  0
  1 51  1  0
 40  2  1  0
 21  4  1  0
 27 22  1  0
 13  8  1  0
 30 26  1  0
M  END
>  <cnnaffinity>  (1) 
-6.14557

>  <filename>  (1) 
CC1(Cn2nc(Cc3cccnc3)nc2-c2ccnc3[nH]ncc23)CCCC1

$$$$
