
     RDKit          3D

 53 57  0  0  0  0  0  0  0  0999 V2000
    8.4036    5.6995   25.1481 C   0  0  0  0  0  0  0  0  0  0  0  0
    7.9838    4.2810   25.5262 C   0  0  0  0  0  0  0  0  0  0  0  0
    6.8324    4.3310   26.5355 C   0  0  0  0  0  0  0  0  0  0  0  0
    6.6319    3.3404   26.9550 H   0  0  0  0  0  0  0  0  0  0  0  0
    7.1021    4.9960   27.3622 H   0  0  0  0  0  0  0  0  0  0  0  0
    5.9120    4.7042   26.0758 H   0  0  0  0  0  0  0  0  0  0  0  0
    7.6229    3.4356   24.2575 C   0  0  0  0  0  0  0  0  0  0  0  0
    8.9128    2.8821   23.6286 C   0  0  0  0  0  0  0  0  0  0  0  0
    8.8247    2.0125   22.4131 C   0  0  0  0  0  0  0  0  0  0  0  0
    7.7884    1.3085   22.0389 N   0  0  0  0  0  0  0  0  0  0  0  0
    8.3451    0.2567   21.3840 C   0  0  0  0  0  0  0  0  0  0  0  0
    7.4347   -0.7924   20.8170 C   0  0  0  0  0  0  0  0  0  0  0  0
    6.6026   -0.1645   19.7123 C   0  0  0  0  0  0  0  0  0  0  0  0
    5.4248    0.5324   20.0171 C   0  0  0  0  0  0  0  0  0  0  0  0
    4.8005    1.2700   19.0084 C   0  0  0  0  0  0  0  0  0  0  0  0
    5.3893    1.2977   17.7399 C   0  0  0  0  0  0  0  0  0  0  0  0
    6.5212    0.6447   17.4319 N   0  0  0  0  0  0  0  0  0  0  0  0
    7.1080   -0.0556   18.4092 C   0  0  0  0  0  0  0  0  0  0  0  0
    8.0480   -0.5488   18.1570 H   0  0  0  0  0  0  0  0  0  0  0  0
    4.9395    1.8753   16.9349 H   0  0  0  0  0  0  0  0  0  0  0  0
    3.9008    1.8451   19.2008 H   0  0  0  0  0  0  0  0  0  0  0  0
    5.0537    0.5411   21.0449 H   0  0  0  0  0  0  0  0  0  0  0  0
    8.0251   -1.6453   20.4702 H   0  0  0  0  0  0  0  0  0  0  0  0
    6.7793   -1.1329   21.6280 H   0  0  0  0  0  0  0  0  0  0  0  0
    9.6616    0.2824   21.2809 N   0  0  0  0  0  0  0  0  0  0  0  0
    9.9728    1.4763   21.8753 N   0  0  0  0  0  0  0  0  0  0  0  0
   11.2952    1.9558   22.0654 C   0  0  0  0  0  0  0  0  0  0  0  0
   11.5743    3.3245   22.1305 C   0  0  0  0  0  0  0  0  0  0  0  0
   12.8606    3.8100   22.4213 C   0  0  0  0  0  0  0  0  0  0  0  0
   13.9124    2.9374   22.6568 C   0  0  0  0  0  0  0  0  0  0  0  0
   13.6485    1.5508   22.6608 C   0  0  0  0  0  0  0  0  0  0  0  0
   12.3624    1.0806   22.3357 C   0  0  0  0  0  0  0  0  0  0  0  0
   12.4649   -0.2897   22.3586 N   0  0  0  0  0  0  0  0  0  0  0  0
   13.7657   -0.5778   22.6636 C   0  0  0  0  0  0  0  0  0  0  0  0
   14.5018    0.4768   22.8615 N   0  0  0  0  0  0  0  0  0  0  0  0
   14.1280   -1.5955   22.7212 H   0  0  0  0  0  0  0  0  0  0  0  0
   11.7433   -0.8994   22.0149 H   0  0  0  0  0  0  0  0  0  0  0  0
   14.9290    3.3014   22.6720 H   0  0  0  0  0  0  0  0  0  0  0  0
   13.0259    4.8825   22.4493 H   0  0  0  0  0  0  0  0  0  0  0  0
   10.7862    4.0442   21.9939 H   0  0  0  0  0  0  0  0  0  0  0  0
    9.6758    2.0147   24.6567 C   0  0  0  0  0  0  0  0  0  0  0  0
    9.3330    2.3692   26.0762 C   0  0  0  0  0  0  0  0  0  0  0  0
    9.1382    3.7540   26.2177 O   0  0  0  0  0  0  0  0  0  0  0  0
    8.4704    1.8013   26.4573 H   0  0  0  0  0  0  0  0  0  0  0  0
   10.2185    2.0543   26.6058 H   0  0  0  0  0  0  0  0  0  0  0  0
    9.4543    0.9461   24.5366 H   0  0  0  0  0  0  0  0  0  0  0  0
   10.7560    2.1515   24.5108 H   0  0  0  0  0  0  0  0  0  0  0  0
    9.4990    3.7626   23.3820 H   0  0  0  0  0  0  0  0  0  0  0  0
    6.9741    2.5991   24.5412 H   0  0  0  0  0  0  0  0  0  0  0  0
    7.0526    4.0537   23.5557 H   0  0  0  0  0  0  0  0  0  0  0  0
    8.6497    6.2674   26.0488 H   0  0  0  0  0  0  0  0  0  0  0  0
    9.2942    5.6979   24.5149 H   0  0  0  0  0  0  0  0  0  0  0  0
    7.6037    6.2225   24.6158 H   0  0  0  0  0  0  0  0  0  0  0  0
  1  2  1  0
  2  3  1  0
  3  4  1  0
  3  5  1  0
  3  6  1  0
  2  7  1  0
  7  8  1  0
  8  9  1  0
  9 10  2  0
 10 11  1  0
 11 12  1  0
 12 13  1  0
 13 14  2  0
 14 15  1  0
 15 16  2  0
 16 17  1  0
 17 18  2  0
 18 19  1  0
 16 20  1  0
 15 21  1  0
 14 22  1  0
 12 23  1  0
 12 24  1  0
 11 25  2  0
 25 26  1  0
 26 27  1  0
 27 28  2  0
 28 29  1  0
 29 30  2  0
 30 31  1  0
 31 32  2  0
 32 33  1  0
 33 34  1  0
 34 35  2  0
 34 36  1  0
 33 37  1  0
 30 38  1  0
 29 39  1  0
 28 40  1  0
  8 41  1  0
 41 42  1  0
 42 43  1  0
 42 44  1  0
 42 45  1  0
 41 46  1  0
 41 47  1  0
  8 48  1  0
  7 49  1  0
  7 50  1  0
  1 51  1  0
  1 52  1  0
  1 53  1  0
 43  2  1  0
 26  9  1  0
 32 27  1  0
 18 13  1  0
 35 31  1  0
M  END
>  <cnnaffinity>  (1) 
-6.62286

>  <filename>  (1) 
CC1(C)CC(c2nc(Cc3cccnc3)nn2-c2cccc3nc[nH]c23)CCO1

$$$$
