
     RDKit          3D

 37 39  0  0  0  0  0  0  0  0999 V2000
    7.4737    1.0975   23.9542 H   0  0  0  0  0  0  0  0  0  0  0  0
    7.4587    0.9702   22.8667 C   0  0  0  0  0  0  0  0  0  0  0  0
    7.6153   -0.2531   22.3451 C   0  0  0  0  0  0  0  0  0  0  0  0
    7.3768   -0.7168   20.9644 C   0  0  0  0  0  0  0  0  0  0  0  0
    6.6403    0.0313   19.9115 C   0  0  0  0  0  0  0  0  0  0  0  0
    7.1579    0.0434   18.6103 C   0  0  0  0  0  0  0  0  0  0  0  0
    8.0966   -0.4593   18.3847 H   0  0  0  0  0  0  0  0  0  0  0  0
    6.5730    0.6727   17.5873 N   0  0  0  0  0  0  0  0  0  0  0  0
    5.4090    1.2977   17.8247 C   0  0  0  0  0  0  0  0  0  0  0  0
    4.9590    1.8026   16.9727 H   0  0  0  0  0  0  0  0  0  0  0  0
    4.7908    1.3182   19.0790 C   0  0  0  0  0  0  0  0  0  0  0  0
    3.8535    1.8482   19.2132 H   0  0  0  0  0  0  0  0  0  0  0  0
    5.4138    0.6703   20.1457 C   0  0  0  0  0  0  0  0  0  0  0  0
    4.9662    0.6851   21.1415 H   0  0  0  0  0  0  0  0  0  0  0  0
    7.7818   -1.9143   20.7369 N   0  0  0  0  0  0  0  0  0  0  0  0
    8.2936   -2.5083   21.9759 C   0  0  0  0  0  0  0  0  0  0  0  0
    7.7963   -3.4716   22.1437 H   0  0  0  0  0  0  0  0  0  0  0  0
    9.3639   -2.7125   21.8488 H   0  0  0  0  0  0  0  0  0  0  0  0
    8.0342   -1.4930   23.1255 C   0  0  0  0  0  0  0  0  0  0  0  0
    8.9100   -1.3243   23.7666 H   0  0  0  0  0  0  0  0  0  0  0  0
    7.2292   -1.8357   23.7924 H   0  0  0  0  0  0  0  0  0  0  0  0
    7.2829    2.1354   22.1494 N   0  0  0  0  0  0  0  0  0  0  0  0
    7.4621    2.1079   21.1561 H   0  0  0  0  0  0  0  0  0  0  0  0
    6.7099    3.3146   22.6480 C   0  0  0  0  0  0  0  0  0  0  0  0
    5.8955    3.3177   23.7961 C   0  0  0  0  0  0  0  0  0  0  0  0
    5.7076    2.3757   24.3027 H   0  0  0  0  0  0  0  0  0  0  0  0
    5.3295    4.5119   24.2681 C   0  0  0  0  0  0  0  0  0  0  0  0
    4.7303    4.5032   25.1819 H   0  0  0  0  0  0  0  0  0  0  0  0
    5.5356    5.7302   23.5951 C   0  0  0  0  0  0  0  0  0  0  0  0
    4.9743    7.0400   24.1117 C   0  0  0  0  0  0  0  0  0  0  0  0
    5.6754    7.5432   24.7924 H   0  0  0  0  0  0  0  0  0  0  0  0
    4.7756    7.7424   23.2928 H   0  0  0  0  0  0  0  0  0  0  0  0
    4.0372    6.8931   24.6609 H   0  0  0  0  0  0  0  0  0  0  0  0
    6.3310    5.7031   22.4371 C   0  0  0  0  0  0  0  0  0  0  0  0
    6.4926    6.6202   21.8708 H   0  0  0  0  0  0  0  0  0  0  0  0
    6.9448    4.5310   21.9930 C   0  0  0  0  0  0  0  0  0  0  0  0
    7.6814    4.6084   21.2031 H   0  0  0  0  0  0  0  0  0  0  0  0
  1  2  1  0
  2  3  2  3
  3  4  1  0
  4  5  1  0
  5  6  2  0
  6  7  1  0
  6  8  1  0
  8  9  2  0
  9 10  1  0
  9 11  1  0
 11 12  1  0
 11 13  2  0
 13 14  1  0
  4 15  2  0
 15 16  1  0
 16 17  1  0
 16 18  1  0
 16 19  1  0
 19 20  1  0
 19 21  1  0
  2 22  1  0
 22 23  1  0
 22 24  1  0
 24 25  2  0
 25 26  1  0
 25 27  1  0
 27 28  1  0
 27 29  2  0
 29 30  1  0
 30 31  1  0
 30 32  1  0
 30 33  1  0
 29 34  1  0
 34 35  1  0
 34 36  2  0
 36 37  1  0
 19  3  1  0
 36 24  1  0
 13  5  1  0
M  END
>  <cnnaffinity>  (1) 
-4.83601

>  <filename>  (1) 
Cc1ccc(NC=C2CCN=C2c2cccnc2)cc1

$$$$
