
     RDKit          3D

 32 34  0  0  0  0  0  0  0  0999 V2000
    9.0899   -3.3150   21.7646 H   0  0  0  0  0  0  0  0  0  0  0  0
    8.5465   -2.3793   21.7422 C   0  0  0  0  0  0  0  0  0  0  0  0
    7.9992   -1.9039   20.6784 N   0  0  0  0  0  0  0  0  0  0  0  0
    7.3795   -0.7084   20.9610 C   0  0  0  0  0  0  0  0  0  0  0  0
    6.6507   -0.0024   19.9012 C   0  0  0  0  0  0  0  0  0  0  0  0
    7.1715    0.0470   18.5951 C   0  0  0  0  0  0  0  0  0  0  0  0
    8.1225   -0.4326   18.3746 H   0  0  0  0  0  0  0  0  0  0  0  0
    6.5717    0.6796   17.5806 N   0  0  0  0  0  0  0  0  0  0  0  0
    5.4058    1.2909   17.8426 C   0  0  0  0  0  0  0  0  0  0  0  0
    4.9175    1.7774   17.0007 H   0  0  0  0  0  0  0  0  0  0  0  0
    4.8031    1.3092   19.1065 C   0  0  0  0  0  0  0  0  0  0  0  0
    3.8724    1.8436   19.2608 H   0  0  0  0  0  0  0  0  0  0  0  0
    5.4386    0.6542   20.1587 C   0  0  0  0  0  0  0  0  0  0  0  0
    5.0037    0.6297   21.1625 H   0  0  0  0  0  0  0  0  0  0  0  0
    7.5304   -0.2514   22.2603 C   0  0  0  0  0  0  0  0  0  0  0  0
    7.1199    0.9560   22.7974 N   0  0  0  0  0  0  0  0  0  0  0  0
    7.0769    1.7469   22.1712 H   0  0  0  0  0  0  0  0  0  0  0  0
    6.8566    1.2591   24.1465 C   0  0  0  0  0  0  0  0  0  0  0  0
    7.1341    2.5399   24.6456 C   0  0  0  0  0  0  0  0  0  0  0  0
    7.5548    3.3051   24.0001 H   0  0  0  0  0  0  0  0  0  0  0  0
    6.8846    2.8352   25.9921 C   0  0  0  0  0  0  0  0  0  0  0  0
    7.1106    3.8234   26.3859 H   0  0  0  0  0  0  0  0  0  0  0  0
    6.3415    1.8741   26.8578 C   0  0  0  0  0  0  0  0  0  0  0  0
    6.0976    2.1806   28.3124 C   0  0  0  0  0  0  0  0  0  0  0  0
    5.8695    3.2394   28.4717 H   0  0  0  0  0  0  0  0  0  0  0  0
    5.2636    1.5975   28.7178 H   0  0  0  0  0  0  0  0  0  0  0  0
    6.9835    1.9422   28.9116 H   0  0  0  0  0  0  0  0  0  0  0  0
    6.0533    0.6070   26.3358 C   0  0  0  0  0  0  0  0  0  0  0  0
    5.6390   -0.1560   26.9883 H   0  0  0  0  0  0  0  0  0  0  0  0
    6.2956    0.3019   24.9958 C   0  0  0  0  0  0  0  0  0  0  0  0
    6.0519   -0.6785   24.6040 H   0  0  0  0  0  0  0  0  0  0  0  0
    8.4149   -1.4305   23.1781 S   0  0  0  0  0  0  0  0  0  0  0  0
  1  2  1  0
  2  3  2  0
  3  4  1  0
  4  5  1  0
  5  6  2  0
  6  7  1  0
  6  8  1  0
  8  9  2  0
  9 10  1  0
  9 11  1  0
 11 12  1  0
 11 13  2  0
 13 14  1  0
  4 15  2  0
 15 16  1  0
 16 17  1  0
 16 18  1  0
 18 19  2  0
 19 20  1  0
 19 21  1  0
 21 22  1  0
 21 23  2  0
 23 24  1  0
 24 25  1  0
 24 26  1  0
 24 27  1  0
 23 28  1  0
 28 29  1  0
 28 30  2  0
 30 31  1  0
 15 32  1  0
 32  2  1  0
 13  5  1  0
 30 18  1  0
M  END
>  <cnnaffinity>  (1) 
-5.20263

>  <filename>  (1) 
Cc1ccc(Nc2scnc2-c2cccnc2)cc1

$$$$
