
     RDKit          3D

 41 43  0  0  0  0  0  0  0  0999 V2000
    9.8387    1.5470   25.5897 C   0  0  0  0  0  0  0  0  0  0  0  0
   10.2876    2.5185   24.5224 C   0  0  0  0  0  0  0  0  0  0  0  0
   11.6560    2.6581   24.2281 C   0  0  0  0  0  0  0  0  0  0  0  0
   12.0932    3.5555   23.2519 C   0  0  0  0  0  0  0  0  0  0  0  0
   13.9415    3.7657   22.8434 Br  0  0  0  0  0  0  0  0  0  0  0  0
   11.1575    4.2851   22.5288 C   0  0  0  0  0  0  0  0  0  0  0  0
    9.7898    4.1286   22.7819 C   0  0  0  0  0  0  0  0  0  0  0  0
    9.3436    3.2708   23.7951 C   0  0  0  0  0  0  0  0  0  0  0  0
    7.8610    3.1128   24.0550 C   0  0  0  0  0  0  0  0  0  0  0  0
    7.4512    1.7402   23.6248 C   0  0  0  0  0  0  0  0  0  0  0  0
    7.0459    0.7832   24.4155 N   0  0  0  0  0  0  0  0  0  0  0  0
    6.8762   -0.3310   23.5559 O   0  0  0  0  0  0  0  0  0  0  0  0
    7.2277    0.1045   22.3081 C   0  0  0  0  0  0  0  0  0  0  0  0
    7.3093   -0.7540   21.0428 C   0  0  0  0  0  0  0  0  0  0  0  0
    6.5944   -2.0944   21.2619 C   0  0  0  0  0  0  0  0  0  0  0  0
    7.0555   -2.6440   22.0890 H   0  0  0  0  0  0  0  0  0  0  0  0
    5.5409   -1.9240   21.5027 H   0  0  0  0  0  0  0  0  0  0  0  0
    6.6458   -2.7125   20.3603 H   0  0  0  0  0  0  0  0  0  0  0  0
    8.7968   -1.0123   20.7126 C   0  0  0  0  0  0  0  0  0  0  0  0
    9.2878   -1.5736   21.5146 H   0  0  0  0  0  0  0  0  0  0  0  0
    9.3288   -0.0658   20.5707 H   0  0  0  0  0  0  0  0  0  0  0  0
    8.8916   -1.5838   19.7871 H   0  0  0  0  0  0  0  0  0  0  0  0
    6.6357   -0.0487   19.8709 C   0  0  0  0  0  0  0  0  0  0  0  0
    5.4395    0.6428   20.0779 C   0  0  0  0  0  0  0  0  0  0  0  0
    4.8720    1.3071   18.9946 C   0  0  0  0  0  0  0  0  0  0  0  0
    5.5020    1.2683   17.7455 C   0  0  0  0  0  0  0  0  0  0  0  0
    6.6452    0.5921   17.5305 N   0  0  0  0  0  0  0  0  0  0  0  0
    7.1941   -0.0524   18.5757 C   0  0  0  0  0  0  0  0  0  0  0  0
    8.1223   -0.5936   18.4183 H   0  0  0  0  0  0  0  0  0  0  0  0
    5.0461    1.7997   16.9169 H   0  0  0  0  0  0  0  0  0  0  0  0
    3.9523    1.8673   19.1149 H   0  0  0  0  0  0  0  0  0  0  0  0
    4.9808    0.6717   21.0670 H   0  0  0  0  0  0  0  0  0  0  0  0
    7.5518    1.3667   22.3089 N   0  0  0  0  0  0  0  0  0  0  0  0
    7.6488    3.2531   25.1196 H   0  0  0  0  0  0  0  0  0  0  0  0
    7.2863    3.8441   23.4752 H   0  0  0  0  0  0  0  0  0  0  0  0
    9.0596    4.6693   22.1823 H   0  0  0  0  0  0  0  0  0  0  0  0
   11.5311    4.9554   21.7617 H   0  0  0  0  0  0  0  0  0  0  0  0
   12.3881    2.0559   24.7480 H   0  0  0  0  0  0  0  0  0  0  0  0
    9.3198    2.0609   26.4035 H   0  0  0  0  0  0  0  0  0  0  0  0
   10.6862    1.0023   26.0090 H   0  0  0  0  0  0  0  0  0  0  0  0
    9.1687    0.8009   25.1565 H   0  0  0  0  0  0  0  0  0  0  0  0
  1  2  1  0
  2  3  2  0
  3  4  1  0
  4  5  1  0
  4  6  2  0
  6  7  1  0
  7  8  2  0
  8  9  1  0
  9 10  1  0
 10 11  2  0
 11 12  1  0
 12 13  1  0
 13 14  1  0
 14 15  1  0
 15 16  1  0
 15 17  1  0
 15 18  1  0
 14 19  1  0
 19 20  1  0
 19 21  1  0
 19 22  1  0
 14 23  1  0
 23 24  2  0
 24 25  1  0
 25 26  2  0
 26 27  1  0
 27 28  2  0
 28 29  1  0
 26 30  1  0
 25 31  1  0
 24 32  1  0
 13 33  2  0
  9 34  1  0
  9 35  1  0
  7 36  1  0
  6 37  1  0
  3 38  1  0
  1 39  1  0
  1 40  1  0
  1 41  1  0
  8  2  1  0
 33 10  1  0
 28 23  1  0
M  END
>  <cnnaffinity>  (1) 
-5.8561

>  <filename>  (1) 
Cc1cc(Br)ccc1Cc1noc(C(C)(C)c2cccnc2)n1

$$$$
