
     RDKit          3D

 36 38  0  0  0  0  0  0  0  0999 V2000
    9.3570   -1.3542   26.4903 C   0  0  0  0  0  0  0  0  0  0  0  0
    8.0818   -0.8378   25.8837 C   0  0  0  0  0  0  0  0  0  0  0  0
    6.8430   -1.4293   26.1519 C   0  0  0  0  0  0  0  0  0  0  0  0
    5.6818   -0.9449   25.5486 C   0  0  0  0  0  0  0  0  0  0  0  0
    5.7431    0.1385   24.6661 C   0  0  0  0  0  0  0  0  0  0  0  0
    6.9876    0.7021   24.3690 C   0  0  0  0  0  0  0  0  0  0  0  0
    7.0969    1.7009   23.3361 N   0  0  0  0  0  0  0  0  0  0  0  0
    6.5445    2.9323   23.4438 N   0  0  0  0  0  0  0  0  0  0  0  0
    6.9972    3.6231   22.4651 N   0  0  0  0  0  0  0  0  0  0  0  0
    7.8438    2.9012   21.6971 N   0  0  0  0  0  0  0  0  0  0  0  0
    7.8839    1.7000   22.2266 C   0  0  0  0  0  0  0  0  0  0  0  0
    8.7817    0.3278   21.5717 S   0  0  0  0  0  0  0  0  0  0  0  0
    7.3967   -0.7168   20.9404 C   0  0  0  0  0  0  0  0  0  0  0  0
    6.6083   -0.0511   19.8449 C   0  0  0  0  0  0  0  0  0  0  0  0
    5.3925    0.6071   20.0702 C   0  0  0  0  0  0  0  0  0  0  0  0
    4.7903    1.2959   19.0113 C   0  0  0  0  0  0  0  0  0  0  0  0
    5.4230    1.2900   17.7641 C   0  0  0  0  0  0  0  0  0  0  0  0
    6.5685    0.6327   17.5182 N   0  0  0  0  0  0  0  0  0  0  0  0
    7.1292   -0.0192   18.5395 C   0  0  0  0  0  0  0  0  0  0  0  0
    8.0482   -0.5648   18.3212 H   0  0  0  0  0  0  0  0  0  0  0  0
    4.9957    1.8188   16.9147 H   0  0  0  0  0  0  0  0  0  0  0  0
    3.8629    1.8426   19.1405 H   0  0  0  0  0  0  0  0  0  0  0  0
    4.9413    0.5897   21.0652 H   0  0  0  0  0  0  0  0  0  0  0  0
    7.9092   -1.6143   20.5744 H   0  0  0  0  0  0  0  0  0  0  0  0
    6.7648   -1.0077   21.7853 H   0  0  0  0  0  0  0  0  0  0  0  0
    8.1552    0.2899   25.0324 C   0  0  0  0  0  0  0  0  0  0  0  0
    9.4835    1.0107   24.8775 C   0  0  0  0  0  0  0  0  0  0  0  0
   10.0137    1.0946   25.8343 H   0  0  0  0  0  0  0  0  0  0  0  0
   10.1427    0.4506   24.2019 H   0  0  0  0  0  0  0  0  0  0  0  0
    9.3607    2.0192   24.4751 H   0  0  0  0  0  0  0  0  0  0  0  0
    4.8473    0.5461   24.2074 H   0  0  0  0  0  0  0  0  0  0  0  0
    4.7233   -1.4197   25.7508 H   0  0  0  0  0  0  0  0  0  0  0  0
    6.8027   -2.2685   26.8441 H   0  0  0  0  0  0  0  0  0  0  0  0
   10.1320   -1.3031   25.7217 H   0  0  0  0  0  0  0  0  0  0  0  0
    9.2915   -2.3761   26.8660 H   0  0  0  0  0  0  0  0  0  0  0  0
    9.7191   -0.7311   27.3133 H   0  0  0  0  0  0  0  0  0  0  0  0
  1  2  1  0
  2  3  2  0
  3  4  1  0
  4  5  2  0
  5  6  1  0
  6  7  1  0
  7  8  1  0
  8  9  2  0
  9 10  1  0
 10 11  2  0
 11 12  1  0
 12 13  1  0
 13 14  1  0
 14 15  2  0
 15 16  1  0
 16 17  2  0
 17 18  1  0
 18 19  2  0
 19 20  1  0
 17 21  1  0
 16 22  1  0
 15 23  1  0
 13 24  1  0
 13 25  1  0
  6 26  2  0
 26 27  1  0
 27 28  1  0
 27 29  1  0
 27 30  1  0
  5 31  1  0
  4 32  1  0
  3 33  1  0
  1 34  1  0
  1 35  1  0
  1 36  1  0
 26  2  1  0
 11  7  1  0
 19 14  1  0
M  END
>  <cnnaffinity>  (1) 
-4.88744

>  <filename>  (1) 
Cc1cccc(-n2nnnc2SCc2cccnc2)c1C

$$$$
