
     RDKit          3D

 49 52  0  0  0  0  0  0  0  0999 V2000
    5.0780    6.6895   25.8104 C   0  0  0  0  0  0  0  0  0  0  0  0
    5.8918    5.4584   25.4310 C   0  0  0  0  0  0  0  0  0  0  0  0
    5.8049    5.1489   23.9285 C   0  0  0  0  0  0  0  0  0  0  0  0
    6.5287    3.8503   23.5665 C   0  0  0  0  0  0  0  0  0  0  0  0
    7.8474    3.8149   24.2049 N   0  0  0  0  0  0  0  0  0  0  0  0
    8.8857    2.9544   23.9376 C   0  0  0  0  0  0  0  0  0  0  0  0
    8.8393    1.9254   22.9409 C   0  0  0  0  0  0  0  0  0  0  0  0
    7.7986    1.2084   22.5558 N   0  0  0  0  0  0  0  0  0  0  0  0
    8.3379    0.3315   21.6771 C   0  0  0  0  0  0  0  0  0  0  0  0
    7.4912   -0.6543   20.9230 C   0  0  0  0  0  0  0  0  0  0  0  0
    6.6925   -0.0234   19.7881 C   0  0  0  0  0  0  0  0  0  0  0  0
    5.4867    0.6324   20.0658 C   0  0  0  0  0  0  0  0  0  0  0  0
    4.8286    1.3068   19.0368 C   0  0  0  0  0  0  0  0  0  0  0  0
    5.4039    1.2921   17.7603 C   0  0  0  0  0  0  0  0  0  0  0  0
    6.5399    0.6413   17.4618 N   0  0  0  0  0  0  0  0  0  0  0  0
    7.1532   -0.0049   18.4604 C   0  0  0  0  0  0  0  0  0  0  0  0
    8.0688   -0.5419   18.2088 H   0  0  0  0  0  0  0  0  0  0  0  0
    4.9339    1.8205   16.9367 H   0  0  0  0  0  0  0  0  0  0  0  0
    3.9004    1.8422   19.2108 H   0  0  0  0  0  0  0  0  0  0  0  0
    5.0947    0.6117   21.0860 H   0  0  0  0  0  0  0  0  0  0  0  0
    6.7879   -1.0853   21.6462 H   0  0  0  0  0  0  0  0  0  0  0  0
    8.1442   -1.4533   20.5578 H   0  0  0  0  0  0  0  0  0  0  0  0
    9.6369    0.4687   21.4810 N   0  0  0  0  0  0  0  0  0  0  0  0
    9.9639    1.4937   22.3078 N   0  0  0  0  0  0  0  0  0  0  0  0
   11.3295    2.0471   22.2954 C   0  0  0  0  0  0  0  0  0  0  0  0
   11.7440    2.5086   20.8954 C   0  0  0  0  0  0  0  0  0  0  0  0
   10.8587    2.8411   20.3639 H   0  0  0  0  0  0  0  0  0  0  0  0
   12.4616    3.3329   20.9348 H   0  0  0  0  0  0  0  0  0  0  0  0
   12.1635    1.6890   20.3306 H   0  0  0  0  0  0  0  0  0  0  0  0
   12.3226    1.0777   22.9754 C   0  0  0  0  0  0  0  0  0  0  0  0
   13.5582    1.6177   22.9498 F   0  0  0  0  0  0  0  0  0  0  0  0
   12.0055    0.8846   24.2776 F   0  0  0  0  0  0  0  0  0  0  0  0
   12.3954   -0.1180   22.3901 F   0  0  0  0  0  0  0  0  0  0  0  0
   11.3310    2.9260   22.9343 H   0  0  0  0  0  0  0  0  0  0  0  0
    9.8516    3.2548   24.8597 C   0  0  0  0  0  0  0  0  0  0  0  0
    9.4443    4.2641   25.6754 N   0  0  0  0  0  0  0  0  0  0  0  0
    8.2388    4.5741   25.2654 C   0  0  0  0  0  0  0  0  0  0  0  0
    7.3661    5.6415   25.8243 C   0  0  0  0  0  0  0  0  0  0  0  0
    7.5023    5.6670   26.9092 H   0  0  0  0  0  0  0  0  0  0  0  0
    7.7323    6.5997   25.4319 H   0  0  0  0  0  0  0  0  0  0  0  0
   10.8057    2.7562   25.0008 H   0  0  0  0  0  0  0  0  0  0  0  0
    5.9641    2.9693   23.8879 H   0  0  0  0  0  0  0  0  0  0  0  0
    6.6694    3.7537   22.4863 H   0  0  0  0  0  0  0  0  0  0  0  0
    4.7611    5.0823   23.6032 H   0  0  0  0  0  0  0  0  0  0  0  0
    6.2570    5.9829   23.3764 H   0  0  0  0  0  0  0  0  0  0  0  0
    5.4957    4.5909   25.9764 H   0  0  0  0  0  0  0  0  0  0  0  0
    5.4446    7.5741   25.2760 H   0  0  0  0  0  0  0  0  0  0  0  0
    5.1505    6.8967   26.8836 H   0  0  0  0  0  0  0  0  0  0  0  0
    4.0198    6.5668   25.5570 H   0  0  0  0  0  0  0  0  0  0  0  0
  1  2  1  0
  2  3  1  0
  3  4  1  0
  4  5  1  0
  5  6  1  0
  6  7  1  0
  7  8  2  0
  8  9  1  0
  9 10  1  0
 10 11  1  0
 11 12  2  0
 12 13  1  0
 13 14  2  0
 14 15  1  0
 15 16  2  0
 16 17  1  0
 14 18  1  0
 13 19  1  0
 12 20  1  0
 10 21  1  0
 10 22  1  0
  9 23  2  0
 23 24  1  0
 24 25  1  0
 25 26  1  0
 26 27  1  0
 26 28  1  0
 26 29  1  0
 25 30  1  0
 30 31  1  0
 30 32  1  0
 30 33  1  0
 25 34  1  0
  6 35  2  0
 35 36  1  0
 36 37  2  0
 37 38  1  0
 38 39  1  0
 38 40  1  0
 35 41  1  0
  4 42  1  0
  4 43  1  0
  3 44  1  0
  3 45  1  0
  2 46  1  0
  1 47  1  0
  1 48  1  0
  1 49  1  0
 38  2  1  0
 37  5  1  0
 24  7  1  0
 16 11  1  0
M  END
>  <cnnaffinity>  (1) 
-6.43467

>  <filename>  (1) 
CC1CCn2c(-c3nc(Cc4cccnc4)nn3C(C)C(F)(F)F)cnc2C1

$$$$
