
     RDKit          3D

 32 33  0  0  0  0  0  0  0  0999 V2000
   10.3667   -4.1526   24.2821 C   0  0  0  0  0  0  0  0  0  0  0  0
    8.9982   -3.5752   24.5918 C   0  0  0  0  0  0  0  0  0  0  0  0
    8.5085   -3.5706   25.9011 C   0  0  0  0  0  0  0  0  0  0  0  0
    9.4593   -4.2417   27.1950 Cl  0  0  0  0  0  0  0  0  0  0  0  0
    7.2509   -3.0559   26.2121 C   0  0  0  0  0  0  0  0  0  0  0  0
    6.4851   -2.5580   25.1637 C   0  0  0  0  0  0  0  0  0  0  0  0
    6.8994   -2.5538   23.8907 N   0  0  0  0  0  0  0  0  0  0  0  0
    8.1154   -3.0555   23.6144 C   0  0  0  0  0  0  0  0  0  0  0  0
    8.4885   -3.0648   22.1322 C   0  0  0  0  0  0  0  0  0  0  0  0
    9.2170   -1.8992   21.6186 N   0  0  0  0  0  0  0  0  0  0  0  0
    8.7187   -0.7279   21.1444 C   0  0  0  0  0  0  0  0  0  0  0  0
    9.7497    0.5294   20.8275 S   0  0  0  0  0  0  0  0  0  0  0  0
    7.3772   -0.7443   20.8998 N   0  0  0  0  0  0  0  0  0  0  0  0
    6.6935   -0.0496   19.8709 C   0  0  0  0  0  0  0  0  0  0  0  0
    5.4845    0.5823   20.1631 C   0  0  0  0  0  0  0  0  0  0  0  0
    4.8269    1.2756   19.1423 C   0  0  0  0  0  0  0  0  0  0  0  0
    5.3877    1.3017   17.8640 C   0  0  0  0  0  0  0  0  0  0  0  0
    6.5361    0.6736   17.5580 N   0  0  0  0  0  0  0  0  0  0  0  0
    7.1735    0.0291   18.5398 C   0  0  0  0  0  0  0  0  0  0  0  0
    8.1195   -0.4582   18.2948 H   0  0  0  0  0  0  0  0  0  0  0  0
    4.9143    1.8411   17.0454 H   0  0  0  0  0  0  0  0  0  0  0  0
    3.9047    1.8120   19.3265 H   0  0  0  0  0  0  0  0  0  0  0  0
    5.1029    0.5676   21.1827 H   0  0  0  0  0  0  0  0  0  0  0  0
    6.8263   -1.2172   21.6021 H   0  0  0  0  0  0  0  0  0  0  0  0
   10.2173   -1.7881   21.7207 H   0  0  0  0  0  0  0  0  0  0  0  0
    9.0602   -3.9571   21.8862 H   0  0  0  0  0  0  0  0  0  0  0  0
    7.5550   -3.1741   21.5772 H   0  0  0  0  0  0  0  0  0  0  0  0
    5.4799   -2.1886   25.3437 H   0  0  0  0  0  0  0  0  0  0  0  0
    6.8816   -3.0745   27.2298 H   0  0  0  0  0  0  0  0  0  0  0  0
   11.0764   -3.8742   25.0625 H   0  0  0  0  0  0  0  0  0  0  0  0
   10.3397   -5.2449   24.2784 H   0  0  0  0  0  0  0  0  0  0  0  0
   10.7723   -3.7911   23.3324 H   0  0  0  0  0  0  0  0  0  0  0  0
  1  2  1  0
  2  3  2  0
  3  4  1  0
  3  5  1  0
  5  6  2  0
  6  7  1  0
  7  8  2  0
  8  9  1  0
  9 10  1  0
 10 11  1  0
 11 12  2  0
 11 13  1  0
 13 14  1  0
 14 15  2  0
 15 16  1  0
 16 17  2  0
 17 18  1  0
 18 19  2  0
 19 20  1  0
 17 21  1  0
 16 22  1  0
 15 23  1  0
 13 24  1  0
 10 25  1  0
  9 26  1  0
  9 27  1  0
  6 28  1  0
  5 29  1  0
  1 30  1  0
  1 31  1  0
  1 32  1  0
  8  2  1  0
 19 14  1  0
M  END
>  <cnnaffinity>  (1) 
-5.24494

>  <filename>  (1) 
Cc1c(Cl)ccnc1CNC(=S)Nc1cccnc1

$$$$
