
     RDKit          3D

 35 37  0  0  0  0  0  0  0  0999 V2000
    5.8478   -2.5811   21.0732 C   0  0  0  0  0  0  0  0  0  0  0  0
    7.0876   -1.8627   21.5261 C   0  0  0  0  0  0  0  0  0  0  0  0
    7.8209   -2.3093   22.6269 C   0  0  0  0  0  0  0  0  0  0  0  0
    8.9731   -1.7972   23.0205 N   0  0  0  0  0  0  0  0  0  0  0  0
    9.4533   -0.8369   22.2203 C   0  0  0  0  0  0  0  0  0  0  0  0
   10.7042   -0.4961   22.5413 N   0  0  0  0  0  0  0  0  0  0  0  0
   11.4207    0.6293   21.9974 C   0  0  0  0  0  0  0  0  0  0  0  0
   10.7327    2.0012   22.0830 C   0  0  0  0  0  0  0  0  0  0  0  0
   11.9366    2.9211   21.9380 C   0  0  0  0  0  0  0  0  0  0  0  0
   12.9702    2.3077   22.7009 O   0  0  0  0  0  0  0  0  0  0  0  0
   12.7642    0.8999   22.7125 C   0  0  0  0  0  0  0  0  0  0  0  0
   12.7300    0.5507   23.7565 H   0  0  0  0  0  0  0  0  0  0  0  0
   13.5962    0.3820   22.2199 H   0  0  0  0  0  0  0  0  0  0  0  0
   11.7948    3.9336   22.3270 H   0  0  0  0  0  0  0  0  0  0  0  0
   12.2297    2.9955   20.8762 H   0  0  0  0  0  0  0  0  0  0  0  0
    9.9676    2.1481   21.3161 H   0  0  0  0  0  0  0  0  0  0  0  0
   10.2672    2.1191   23.0685 H   0  0  0  0  0  0  0  0  0  0  0  0
   11.6164    0.4221   20.9345 H   0  0  0  0  0  0  0  0  0  0  0  0
   10.8647   -0.9128   23.4397 H   0  0  0  0  0  0  0  0  0  0  0  0
    8.8438   -0.2535   21.1984 N   0  0  0  0  0  0  0  0  0  0  0  0
    7.6240   -0.7078   20.9277 C   0  0  0  0  0  0  0  0  0  0  0  0
    6.8618    0.0701   19.9317 C   0  0  0  0  0  0  0  0  0  0  0  0
    5.6337    0.7018   20.1852 C   0  0  0  0  0  0  0  0  0  0  0  0
    4.9617    1.3022   19.1186 C   0  0  0  0  0  0  0  0  0  0  0  0
    5.5506    1.2657   17.8502 C   0  0  0  0  0  0  0  0  0  0  0  0
    6.7430    0.6989   17.6105 N   0  0  0  0  0  0  0  0  0  0  0  0
    7.3896    0.1439   18.6422 C   0  0  0  0  0  0  0  0  0  0  0  0
    8.3688   -0.2764   18.4160 H   0  0  0  0  0  0  0  0  0  0  0  0
    5.0484    1.7091   16.9904 H   0  0  0  0  0  0  0  0  0  0  0  0
    4.0029    1.7902   19.2529 H   0  0  0  0  0  0  0  0  0  0  0  0
    5.2136    0.7303   21.1931 H   0  0  0  0  0  0  0  0  0  0  0  0
    7.4214   -3.1409   23.2079 H   0  0  0  0  0  0  0  0  0  0  0  0
    5.2060   -1.8479   20.6006 H   0  0  0  0  0  0  0  0  0  0  0  0
    5.3274   -3.0648   21.9074 H   0  0  0  0  0  0  0  0  0  0  0  0
    6.0619   -3.3513   20.3237 H   0  0  0  0  0  0  0  0  0  0  0  0
  1  2  1  0
  2  3  2  0
  3  4  1  0
  4  5  2  0
  5  6  1  0
  6  7  1  0
  7  8  1  0
  8  9  1  0
  9 10  1  0
 10 11  1  0
 11 12  1  0
 11 13  1  0
  9 14  1  0
  9 15  1  0
  8 16  1  0
  8 17  1  0
  7 18  1  0
  6 19  1  0
  5 20  1  0
 20 21  2  0
 21 22  1  0
 22 23  2  0
 23 24  1  0
 24 25  2  0
 25 26  1  0
 26 27  2  0
 27 28  1  0
 25 29  1  0
 24 30  1  0
 23 31  1  0
  3 32  1  0
  1 33  1  0
  1 34  1  0
  1 35  1  0
 21  2  1  0
 27 22  1  0
 11  7  1  0
M  END
>  <cnnaffinity>  (1) 
-5.17688

>  <filename>  (1) 
Cc1cnc(NC2CCOC2)nc1-c1cccnc1

$$$$
