
     RDKit          3D

 45 48  0  0  0  0  0  0  0  0999 V2000
    5.4306   -1.3268   26.6437 C   0  0  0  0  0  0  0  0  0  0  0  0
    5.7162    0.0039   25.9909 C   0  0  0  0  0  0  0  0  0  0  0  0
    5.3789    1.2323   26.6452 C   0  0  0  0  0  0  0  0  0  0  0  0
    5.6477    2.4300   26.0350 C   0  0  0  0  0  0  0  0  0  0  0  0
    6.2716    2.4275   24.7452 C   0  0  0  0  0  0  0  0  0  0  0  0
    6.5780    3.6017   24.0040 C   0  0  0  0  0  0  0  0  0  0  0  0
    7.1717    3.4957   22.7619 C   0  0  0  0  0  0  0  0  0  0  0  0
    7.4640    2.2380   22.2032 C   0  0  0  0  0  0  0  0  0  0  0  0
    7.1574    1.0582   22.8782 C   0  0  0  0  0  0  0  0  0  0  0  0
    7.4013   -0.2684   22.3144 C   0  0  0  0  0  0  0  0  0  0  0  0
    7.9259   -1.3186   22.9288 N   0  0  0  0  0  0  0  0  0  0  0  0
    8.1573   -2.1920   21.9263 C   0  0  0  0  0  0  0  0  0  0  0  0
    8.7141   -3.5662   22.0769 C   0  0  0  0  0  0  0  0  0  0  0  0
    7.7422   -4.6550   22.5715 C   0  0  0  0  0  0  0  0  0  0  0  0
    7.0464   -4.3534   23.8976 C   0  0  0  0  0  0  0  0  0  0  0  0
    6.0910   -5.3522   24.1968 O   0  0  0  0  0  0  0  0  0  0  0  0
    6.5700   -6.1758   24.3475 H   0  0  0  0  0  0  0  0  0  0  0  0
    7.7863   -4.2441   24.7080 H   0  0  0  0  0  0  0  0  0  0  0  0
    6.5077   -3.3968   23.8357 H   0  0  0  0  0  0  0  0  0  0  0  0
    6.9573   -4.8141   21.8236 H   0  0  0  0  0  0  0  0  0  0  0  0
    8.3022   -5.6018   22.6563 H   0  0  0  0  0  0  0  0  0  0  0  0
    9.0135   -3.8093   21.0582 H   0  0  0  0  0  0  0  0  0  0  0  0
    9.5959   -3.5059   22.7244 H   0  0  0  0  0  0  0  0  0  0  0  0
    7.8114   -1.7708   20.7316 N   0  0  0  0  0  0  0  0  0  0  0  0
    7.2871   -0.5499   20.9723 N   0  0  0  0  0  0  0  0  0  0  0  0
    6.5862    0.0914   19.9287 C   0  0  0  0  0  0  0  0  0  0  0  0
    5.3655    0.7381   20.1361 C   0  0  0  0  0  0  0  0  0  0  0  0
    4.7802    1.3545   19.0278 C   0  0  0  0  0  0  0  0  0  0  0  0
    5.4241    1.3008   17.7869 C   0  0  0  0  0  0  0  0  0  0  0  0
    6.5745    0.6329   17.5822 N   0  0  0  0  0  0  0  0  0  0  0  0
    7.1231    0.0219   18.6325 C   0  0  0  0  0  0  0  0  0  0  0  0
    8.0315   -0.5552   18.4739 H   0  0  0  0  0  0  0  0  0  0  0  0
    5.0039    1.8001   16.9175 H   0  0  0  0  0  0  0  0  0  0  0  0
    3.8297    1.8657   19.1147 H   0  0  0  0  0  0  0  0  0  0  0  0
    4.8984    0.7505   21.1229 H   0  0  0  0  0  0  0  0  0  0  0  0
    6.5789    1.1374   24.1770 C   0  0  0  0  0  0  0  0  0  0  0  0
    6.2762   -0.0284   24.8129 N   0  0  0  0  0  0  0  0  0  0  0  0
    7.9124    2.2037   21.2137 H   0  0  0  0  0  0  0  0  0  0  0  0
    7.4086    4.3884   22.1886 H   0  0  0  0  0  0  0  0  0  0  0  0
    6.3441    4.5803   24.4120 H   0  0  0  0  0  0  0  0  0  0  0  0
    5.3896    3.3741   26.5191 H   0  0  0  0  0  0  0  0  0  0  0  0
    4.9162    1.1788   27.6243 H   0  0  0  0  0  0  0  0  0  0  0  0
    5.8219   -1.3513   27.6665 H   0  0  0  0  0  0  0  0  0  0  0  0
    4.3512   -1.5108   26.6907 H   0  0  0  0  0  0  0  0  0  0  0  0
    5.8949   -2.1323   26.0630 H   0  0  0  0  0  0  0  0  0  0  0  0
  1  2  1  0
  2  3  2  0
  3  4  1  0
  4  5  2  0
  5  6  1  0
  6  7  2  0
  7  8  1  0
  8  9  2  0
  9 10  1  0
 10 11  2  0
 11 12  1  0
 12 13  1  0
 13 14  1  0
 14 15  1  0
 15 16  1  0
 16 17  1  0
 15 18  1  0
 15 19  1  0
 14 20  1  0
 14 21  1  0
 13 22  1  0
 13 23  1  0
 12 24  2  0
 24 25  1  0
 25 26  1  0
 26 27  2  0
 27 28  1  0
 28 29  2  0
 29 30  1  0
 30 31  2  0
 31 32  1  0
 29 33  1  0
 28 34  1  0
 27 35  1  0
  9 36  1  0
 36 37  2  0
  8 38  1  0
  7 39  1  0
  6 40  1  0
  4 41  1  0
  3 42  1  0
  1 43  1  0
  1 44  1  0
  1 45  1  0
 37  2  1  0
 36  5  1  0
 25 10  1  0
 31 26  1  0
M  END
>  <cnnaffinity>  (1) 
-5.80833

>  <filename>  (1) 
Cc1ccc2cccc(-c3nc(CCCO)nn3-c3cccnc3)c2n1

$$$$
