
     RDKit          3D

 46 49  0  0  0  0  0  0  0  0999 V2000
    8.9646   -6.0737   26.0853 C   0  0  0  0  0  0  0  0  0  0  0  0
    8.0531   -4.9395   25.7338 C   0  0  0  0  0  0  0  0  0  0  0  0
    8.2913   -4.1721   24.6188 C   0  0  0  0  0  0  0  0  0  0  0  0
    7.4357   -3.0957   24.4249 C   0  0  0  0  0  0  0  0  0  0  0  0
    7.6099   -2.2575   23.3723 N   0  0  0  0  0  0  0  0  0  0  0  0
    7.1582   -0.8618   23.4801 C   0  0  0  0  0  0  0  0  0  0  0  0
    7.6303    0.0013   22.2907 C   0  0  0  0  0  0  0  0  0  0  0  0
    7.3217   -0.6091   20.9978 N   0  0  0  0  0  0  0  0  0  0  0  0
    6.6642    0.0336   19.9251 C   0  0  0  0  0  0  0  0  0  0  0  0
    5.4402    0.6975   20.1392 C   0  0  0  0  0  0  0  0  0  0  0  0
    4.7936    1.3336   19.0755 C   0  0  0  0  0  0  0  0  0  0  0  0
    5.3895    1.3038   17.8097 C   0  0  0  0  0  0  0  0  0  0  0  0
    6.5463    0.6668   17.5610 N   0  0  0  0  0  0  0  0  0  0  0  0
    7.1558    0.0488   18.5862 C   0  0  0  0  0  0  0  0  0  0  0  0
    8.1000   -0.4404   18.3397 H   0  0  0  0  0  0  0  0  0  0  0  0
    4.9343    1.8130   16.9657 H   0  0  0  0  0  0  0  0  0  0  0  0
    3.8531    1.8602   19.2171 H   0  0  0  0  0  0  0  0  0  0  0  0
    5.0120    0.6791   21.1402 H   0  0  0  0  0  0  0  0  0  0  0  0
    7.6933   -2.0151   20.8653 C   0  0  0  0  0  0  0  0  0  0  0  0
    8.2948   -2.6568   22.1416 C   0  0  0  0  0  0  0  0  0  0  0  0
    8.2207   -3.7399   22.0141 H   0  0  0  0  0  0  0  0  0  0  0  0
    9.3649   -2.3976   22.1933 H   0  0  0  0  0  0  0  0  0  0  0  0
    8.4697   -2.0913   20.1021 H   0  0  0  0  0  0  0  0  0  0  0  0
    6.8229   -2.6003   20.5215 H   0  0  0  0  0  0  0  0  0  0  0  0
    8.7242    0.1010   22.3747 H   0  0  0  0  0  0  0  0  0  0  0  0
    7.2085    1.0097   22.3646 H   0  0  0  0  0  0  0  0  0  0  0  0
    7.5265   -0.4266   24.4194 H   0  0  0  0  0  0  0  0  0  0  0  0
    6.0710   -0.8518   23.5471 H   0  0  0  0  0  0  0  0  0  0  0  0
    6.4372   -2.8097   25.2559 N   0  0  0  0  0  0  0  0  0  0  0  0
    6.2446   -3.6562   26.2586 C   0  0  0  0  0  0  0  0  0  0  0  0
    5.0793   -3.3989   27.1613 C   0  0  0  0  0  0  0  0  0  0  0  0
    4.1916   -2.3285   26.9148 C   0  0  0  0  0  0  0  0  0  0  0  0
    3.1169   -2.0836   27.7717 C   0  0  0  0  0  0  0  0  0  0  0  0
    2.9070   -2.9029   28.8873 C   0  0  0  0  0  0  0  0  0  0  0  0
    3.7749   -3.9721   29.1410 C   0  0  0  0  0  0  0  0  0  0  0  0
    4.8481   -4.2192   28.2863 C   0  0  0  0  0  0  0  0  0  0  0  0
    5.5222   -5.0521   28.4843 H   0  0  0  0  0  0  0  0  0  0  0  0
    3.6219   -4.6125   30.0086 H   0  0  0  0  0  0  0  0  0  0  0  0
    2.0749   -2.7100   29.5585 H   0  0  0  0  0  0  0  0  0  0  0  0
    2.4465   -1.2483   27.5729 H   0  0  0  0  0  0  0  0  0  0  0  0
    4.3476   -1.6839   26.0502 H   0  0  0  0  0  0  0  0  0  0  0  0
    7.0203   -4.7062   26.5363 N   0  0  0  0  0  0  0  0  0  0  0  0
    9.1255   -4.3343   23.9606 H   0  0  0  0  0  0  0  0  0  0  0  0
    8.5322   -6.6632   26.8934 H   0  0  0  0  0  0  0  0  0  0  0  0
    9.1327   -6.7119   25.2152 H   0  0  0  0  0  0  0  0  0  0  0  0
    9.9364   -5.6898   26.4111 H   0  0  0  0  0  0  0  0  0  0  0  0
  1  2  1  0
  2  3  2  0
  3  4  1  0
  4  5  1  0
  5  6  1  0
  6  7  1  0
  7  8  1  0
  8  9  1  0
  9 10  2  0
 10 11  1  0
 11 12  2  0
 12 13  1  0
 13 14  2  0
 14 15  1  0
 12 16  1  0
 11 17  1  0
 10 18  1  0
  8 19  1  0
 19 20  1  0
 20 21  1  0
 20 22  1  0
 19 23  1  0
 19 24  1  0
  7 25  1  0
  7 26  1  0
  6 27  1  0
  6 28  1  0
  4 29  2  0
 29 30  1  0
 30 31  1  0
 31 32  2  0
 32 33  1  0
 33 34  2  0
 34 35  1  0
 35 36  2  0
 36 37  1  0
 35 38  1  0
 34 39  1  0
 33 40  1  0
 32 41  1  0
 30 42  2  0
  3 43  1  0
  1 44  1  0
  1 45  1  0
  1 46  1  0
 42  2  1  0
 20  5  1  0
 36 31  1  0
 14  9  1  0
M  END
>  <cnnaffinity>  (1) 
-5.53224

>  <filename>  (1) 
Cc1cc(N2CCN(c3cccnc3)CC2)nc(-c2ccccc2)n1

$$$$
