
     RDKit          3D

 46 49  0  0  0  0  0  0  0  0999 V2000
   12.6113    4.2280   20.8389 C   0  0  0  0  0  0  0  0  0  0  0  0
   12.7901    3.8445   20.8910 C   0  0  0  0  0  0  0  0  0  0  0  0
   11.9377    2.8342   20.9483 C   0  0  0  0  0  0  0  0  0  0  0  0
   11.3266    2.2502   22.2394 C   0  0  0  0  0  0  0  0  0  0  0  0
   10.0129    1.6500   22.0280 C   0  0  0  0  0  0  0  0  0  0  0  0
    9.7996    0.6950   21.1280 N   0  0  0  0  0  0  0  0  0  0  0  0
    8.4865    0.3975   21.2810 C   0  0  0  0  0  0  0  0  0  0  0  0
    7.7625   -0.6361   20.4569 C   0  0  0  0  0  0  0  0  0  0  0  0
    6.8487   -0.0582   19.3753 C   0  0  0  0  0  0  0  0  0  0  0  0
    5.6581    0.5970   19.7247 C   0  0  0  0  0  0  0  0  0  0  0  0
    4.9101    1.2226   18.7243 C   0  0  0  0  0  0  0  0  0  0  0  0
    5.3775    1.1713   17.4090 C   0  0  0  0  0  0  0  0  0  0  0  0
    6.4824    0.5078   17.0453 N   0  0  0  0  0  0  0  0  0  0  0  0
    7.1868   -0.0911   18.0126 C   0  0  0  0  0  0  0  0  0  0  0  0
    8.0889   -0.6131   17.6909 H   0  0  0  0  0  0  0  0  0  0  0  0
    4.8484    1.6828   16.6094 H   0  0  0  0  0  0  0  0  0  0  0  0
    3.9954    1.7608   18.9486 H   0  0  0  0  0  0  0  0  0  0  0  0
    5.3449    0.6321   20.7694 H   0  0  0  0  0  0  0  0  0  0  0  0
    7.1678   -1.2377   21.1551 H   0  0  0  0  0  0  0  0  0  0  0  0
    8.5249   -1.2925   20.0265 H   0  0  0  0  0  0  0  0  0  0  0  0
    7.8706    1.1112   22.1984 N   0  0  0  0  0  0  0  0  0  0  0  0
    8.8444    1.9298   22.6776 N   0  0  0  0  0  0  0  0  0  0  0  0
    8.4340    3.0110   23.5665 C   0  0  0  0  0  0  0  0  0  0  0  0
    8.1139    4.3085   22.8274 C   0  0  0  0  0  0  0  0  0  0  0  0
    7.3822    4.1273   22.0333 H   0  0  0  0  0  0  0  0  0  0  0  0
    7.6824    5.0500   23.5080 H   0  0  0  0  0  0  0  0  0  0  0  0
    9.0163    4.7411   22.3885 H   0  0  0  0  0  0  0  0  0  0  0  0
    9.5909    3.1996   24.8724 C   0  0  0  0  0  0  0  0  0  0  0  0
    8.8294    3.4620   26.0462 C   0  0  0  0  0  0  0  0  0  0  0  0
   10.4518    4.3069   24.6661 C   0  0  0  0  0  0  0  0  0  0  0  0
   11.5110    4.3436   24.4537 H   0  0  0  0  0  0  0  0  0  0  0  0
    9.9437    5.2498   24.8379 H   0  0  0  0  0  0  0  0  0  0  0  0
    8.5361    2.8195   26.8652 H   0  0  0  0  0  0  0  0  0  0  0  0
    8.3454    4.4349   25.9851 H   0  0  0  0  0  0  0  0  0  0  0  0
   10.0942    2.1587   24.9249 H   0  0  0  0  0  0  0  0  0  0  0  0
    7.5272    2.6412   24.0493 H   0  0  0  0  0  0  0  0  0  0  0  0
   12.1053    2.0883   23.3143 C   0  0  0  0  0  0  0  0  0  0  0  0
   13.2917    2.7921   23.4589 N   0  0  0  0  0  0  0  0  0  0  0  0
   13.7834    3.7487   22.6121 C   0  0  0  0  0  0  0  0  0  0  0  0
   14.7173    4.4359   22.9485 O   0  0  0  0  0  0  0  0  0  0  0  0
   13.9119    2.6670   24.2475 H   0  0  0  0  0  0  0  0  0  0  0  0
   11.8678    1.3709   24.1113 H   0  0  0  0  0  0  0  0  0  0  0  0
   11.5960    2.3000   20.0658 H   0  0  0  0  0  0  0  0  0  0  0  0
   12.1659    5.1017   21.5626 H   0  0  0  0  0  0  0  0  0  0  0  0
   13.7786    4.3127   20.4531 H   0  0  0  0  0  0  0  0  0  0  0  0
   12.0147    5.1376   19.8681 H   0  0  0  0  0  0  0  0  0  0  0  0
  1  2  1  0
  2  3  2  0
  3  4  1  0
  4  5  1  0
  5  6  2  0
  6  7  1  0
  7  8  1  0
  8  9  1  0
  9 10  2  0
 10 11  1  0
 11 12  2  0
 12 13  1  0
 13 14  2  0
 14 15  1  0
 12 16  1  0
 11 17  1  0
 10 18  1  0
  8 19  1  0
  8 20  1  0
  7 21  2  0
 21 22  1  0
 22 23  1  0
 23 24  1  0
 24 25  1  0
 24 26  1  0
 24 27  1  0
 23 28  1  0
 28 29  1  0
 29 30  1  0
 30 31  1  0
 30 32  1  0
 29 33  1  0
 29 34  1  0
 28 35  1  0
 23 36  1  0
  4 37  2  0
 37 38  1  0
 38 39  1  0
 39 40  2  0
 38 41  1  0
 37 42  1  0
  3 43  1  0
  1 44  1  0
  1 45  1  0
  1 46  1  0
 39  2  1  0
 22  5  1  0
 30 28  1  0
 14  9  1  0
M  END
>  <cnnaffinity>  (1) 
-5.73938

>  <filename>  (1) 
Cc1cc(-c2nc(Cc3cccnc3)nn2C(C)C2CC2)c[nH]c1=O

$$$$
