
     RDKit          3D

 46 50  0  0  0  0  0  0  0  0999 V2000
   11.8968    1.0982   24.3874 C   0  0  0  0  0  0  0  0  0  0  0  0
   12.1586    1.9590   23.1666 C   0  0  0  0  0  0  0  0  0  0  0  0
   13.2711    2.8124   23.1790 C   0  0  0  0  0  0  0  0  0  0  0  0
   13.5257    3.7464   22.1695 C   0  0  0  0  0  0  0  0  0  0  0  0
   12.7015    3.7571   21.0424 C   0  0  0  0  0  0  0  0  0  0  0  0
   11.6592    2.8387   20.9471 C   0  0  0  0  0  0  0  0  0  0  0  0
   11.3088    2.0379   22.0384 C   0  0  0  0  0  0  0  0  0  0  0  0
    9.9812    1.4973   22.0658 N   0  0  0  0  0  0  0  0  0  0  0  0
    9.5308    0.5673   21.1906 N   0  0  0  0  0  0  0  0  0  0  0  0
    8.3303    0.2838   21.6633 C   0  0  0  0  0  0  0  0  0  0  0  0
    7.4225   -0.6896   20.9679 C   0  0  0  0  0  0  0  0  0  0  0  0
    6.6397   -0.0391   19.8381 C   0  0  0  0  0  0  0  0  0  0  0  0
    5.4377    0.6277   20.1022 C   0  0  0  0  0  0  0  0  0  0  0  0
    4.8044    1.3075   19.0605 C   0  0  0  0  0  0  0  0  0  0  0  0
    5.3963    1.3032   17.7939 C   0  0  0  0  0  0  0  0  0  0  0  0
    6.5440    0.6658   17.5173 N   0  0  0  0  0  0  0  0  0  0  0  0
    7.1401    0.0196   18.5265 C   0  0  0  0  0  0  0  0  0  0  0  0
    8.0810   -0.4784   18.2896 H   0  0  0  0  0  0  0  0  0  0  0  0
    4.9307    1.8307   16.9627 H   0  0  0  0  0  0  0  0  0  0  0  0
    3.8788    1.8471   19.2191 H   0  0  0  0  0  0  0  0  0  0  0  0
    5.0134    0.6186   21.1099 H   0  0  0  0  0  0  0  0  0  0  0  0
    6.7350   -1.0875   21.7186 H   0  0  0  0  0  0  0  0  0  0  0  0
    8.0274   -1.5233   20.5943 H   0  0  0  0  0  0  0  0  0  0  0  0
    7.9656    0.9783   22.7662 N   0  0  0  0  0  0  0  0  0  0  0  0
    8.9948    1.8036   22.9559 C   0  0  0  0  0  0  0  0  0  0  0  0
    9.1086    2.9459   23.8832 C   0  0  0  0  0  0  0  0  0  0  0  0
    9.6815    4.1722   23.5866 C   0  0  0  0  0  0  0  0  0  0  0  0
    9.7244    5.2046   24.5694 C   0  0  0  0  0  0  0  0  0  0  0  0
    9.2007    5.0108   25.8274 C   0  0  0  0  0  0  0  0  0  0  0  0
    8.6115    3.7472   26.1498 C   0  0  0  0  0  0  0  0  0  0  0  0
    8.0859    3.3150   27.2821 N   0  0  0  0  0  0  0  0  0  0  0  0
    7.7439    2.0151   27.0510 C   0  0  0  0  0  0  0  0  0  0  0  0
    8.0372    1.6404   25.7715 C   0  0  0  0  0  0  0  0  0  0  0  0
    8.5827    2.7578   25.1654 N   0  0  0  0  0  0  0  0  0  0  0  0
    7.9067    0.7294   25.2089 H   0  0  0  0  0  0  0  0  0  0  0  0
    7.3028    1.4068   27.8363 H   0  0  0  0  0  0  0  0  0  0  0  0
    9.2176    5.7684   26.6012 H   0  0  0  0  0  0  0  0  0  0  0  0
   10.1821    6.1578   24.2996 H   0  0  0  0  0  0  0  0  0  0  0  0
   10.0947    4.3551   22.5999 H   0  0  0  0  0  0  0  0  0  0  0  0
   11.0568    2.7913   20.0578 H   0  0  0  0  0  0  0  0  0  0  0  0
   12.8620    4.4646   20.2358 H   0  0  0  0  0  0  0  0  0  0  0  0
   14.3842    4.4137   22.2379 H   0  0  0  0  0  0  0  0  0  0  0  0
   13.9420    2.7335   24.0167 H   0  0  0  0  0  0  0  0  0  0  0  0
   11.1701    0.3102   24.1746 H   0  0  0  0  0  0  0  0  0  0  0  0
   12.8288    0.6581   24.7644 H   0  0  0  0  0  0  0  0  0  0  0  0
   11.4862    1.7012   25.2082 H   0  0  0  0  0  0  0  0  0  0  0  0
  1  2  1  0
  2  3  2  0
  3  4  1  0
  4  5  2  0
  5  6  1  0
  6  7  2  0
  7  8  1  0
  8  9  1  0
  9 10  2  0
 10 11  1  0
 11 12  1  0
 12 13  2  0
 13 14  1  0
 14 15  2  0
 15 16  1  0
 16 17  2  0
 17 18  1  0
 15 19  1  0
 14 20  1  0
 13 21  1  0
 11 22  1  0
 11 23  1  0
 10 24  1  0
 24 25  2  0
 25 26  1  0
 26 27  2  0
 27 28  1  0
 28 29  2  0
 29 30  1  0
 30 31  2  0
 31 32  1  0
 32 33  2  0
 33 34  1  0
 33 35  1  0
 32 36  1  0
 29 37  1  0
 28 38  1  0
 27 39  1  0
  6 40  1  0
  5 41  1  0
  4 42  1  0
  3 43  1  0
  1 44  1  0
  1 45  1  0
  1 46  1  0
  7  2  1  0
 25  8  1  0
 34 26  1  0
 17 12  1  0
 34 30  1  0
M  END
>  <cnnaffinity>  (1) 
-6.38119

>  <filename>  (1) 
Cc1ccccc1-n1nc(Cc2cccnc2)nc1-c1cccc2nccn12

$$$$
