
     RDKit          3D

 29 30  0  0  0  0  0  0  0  0999 V2000
    4.9116    1.7810   16.9957 H   0  0  0  0  0  0  0  0  0  0  0  0
    5.4013    1.2962   17.8363 C   0  0  0  0  0  0  0  0  0  0  0  0
    6.5665    0.6842   17.5689 N   0  0  0  0  0  0  0  0  0  0  0  0
    7.1651    0.0636   18.5920 C   0  0  0  0  0  0  0  0  0  0  0  0
    8.1154   -0.4224   18.3729 H   0  0  0  0  0  0  0  0  0  0  0  0
    6.6441   -0.0159   19.8939 C   0  0  0  0  0  0  0  0  0  0  0  0
    7.4218   -0.6985   20.9906 C   0  0  0  0  0  0  0  0  0  0  0  0
    6.7304   -0.9876   21.7945 H   0  0  0  0  0  0  0  0  0  0  0  0
    7.8694   -1.6214   20.6038 H   0  0  0  0  0  0  0  0  0  0  0  0
    8.5270    0.2040   21.5789 C   0  0  0  0  0  0  0  0  0  0  0  0
    9.2128    0.4972   20.7769 H   0  0  0  0  0  0  0  0  0  0  0  0
    9.1106   -0.3670   22.3073 H   0  0  0  0  0  0  0  0  0  0  0  0
    7.9732    1.4379   22.2405 C   0  0  0  0  0  0  0  0  0  0  0  0
    7.9051    2.6602   21.5719 C   0  0  0  0  0  0  0  0  0  0  0  0
    8.3152    2.7228   20.5759 H   0  0  0  0  0  0  0  0  0  0  0  0
    7.3150    3.7532   22.2078 C   0  0  0  0  0  0  0  0  0  0  0  0
    7.2620    4.7115   21.6995 H   0  0  0  0  0  0  0  0  0  0  0  0
    6.8043    3.7062   23.4481 N   0  0  0  0  0  0  0  0  0  0  0  0
    6.8536    2.5298   24.0873 C   0  0  0  0  0  0  0  0  0  0  0  0
    6.2708    2.4520   25.4703 C   0  0  0  0  0  0  0  0  0  0  0  0
    5.9894    3.4372   25.8405 H   0  0  0  0  0  0  0  0  0  0  0  0
    5.3791    1.8180   25.4827 H   0  0  0  0  0  0  0  0  0  0  0  0
    6.9755    2.0064   26.1792 H   0  0  0  0  0  0  0  0  0  0  0  0
    7.4186    1.3801   23.5131 C   0  0  0  0  0  0  0  0  0  0  0  0
    7.4206    0.4470   24.0648 H   0  0  0  0  0  0  0  0  0  0  0  0
    5.4342    0.6436   20.1499 C   0  0  0  0  0  0  0  0  0  0  0  0
    5.0111    0.6330   21.1622 H   0  0  0  0  0  0  0  0  0  0  0  0
    4.8014    1.3155   19.1020 C   0  0  0  0  0  0  0  0  0  0  0  0
    3.8674    1.8491   19.2583 H   0  0  0  0  0  0  0  0  0  0  0  0
  1  2  1  0
  2  3  2  0
  3  4  1  0
  4  5  1  0
  4  6  2  0
  6  7  1  0
  7  8  1  0
  7  9  1  0
  7 10  1  0
 10 11  1  0
 10 12  1  0
 10 13  1  0
 13 14  2  0
 14 15  1  0
 14 16  1  0
 16 17  1  0
 16 18  2  0
 18 19  1  0
 19 20  1  0
 20 21  1  0
 20 22  1  0
 20 23  1  0
 19 24  2  0
 24 25  1  0
  6 26  1  0
 26 27  1  0
 26 28  2  0
 28 29  1  0
 28  2  1  0
 24 13  1  0
M  END
>  <cnnaffinity>  (1) 
-4.37233

>  <filename>  (1) 
Cc1cc(CCc2cccnc2)ccn1

$$$$
