
     RDKit          3D

 41 44  0  0  0  0  0  0  0  0999 V2000
    9.7025   -0.7408   27.3277 C   0  0  0  0  0  0  0  0  0  0  0  0
    8.7737   -1.4806   26.3918 C   0  0  0  0  0  0  0  0  0  0  0  0
    8.6742   -1.1445   25.0155 C   0  0  0  0  0  0  0  0  0  0  0  0
    7.6973   -1.6784   24.1784 C   0  0  0  0  0  0  0  0  0  0  0  0
    7.6961   -1.2883   22.7419 C   0  0  0  0  0  0  0  0  0  0  0  0
    6.7328   -0.6830   22.0636 N   0  0  0  0  0  0  0  0  0  0  0  0
    7.2785   -0.4660   20.8450 C   0  0  0  0  0  0  0  0  0  0  0  0
    6.5523    0.1774   19.7467 C   0  0  0  0  0  0  0  0  0  0  0  0
    5.3178    0.8298   19.9152 C   0  0  0  0  0  0  0  0  0  0  0  0
    4.7396    1.4419   18.8035 C   0  0  0  0  0  0  0  0  0  0  0  0
    5.3985    1.3748   17.5716 C   0  0  0  0  0  0  0  0  0  0  0  0
    6.5608    0.7276   17.3937 N   0  0  0  0  0  0  0  0  0  0  0  0
    7.1157    0.1470   18.4615 C   0  0  0  0  0  0  0  0  0  0  0  0
    8.0516   -0.3815   18.2832 H   0  0  0  0  0  0  0  0  0  0  0  0
    4.9687    1.8459   16.6889 H   0  0  0  0  0  0  0  0  0  0  0  0
    3.7885    1.9614   18.8680 H   0  0  0  0  0  0  0  0  0  0  0  0
    4.8149    0.8521   20.8835 H   0  0  0  0  0  0  0  0  0  0  0  0
    8.5172   -0.9092   20.7189 N   0  0  0  0  0  0  0  0  0  0  0  0
    8.7879   -1.4339   21.9368 N   0  0  0  0  0  0  0  0  0  0  0  0
    9.9987   -2.2393   22.0626 C   0  0  0  0  0  0  0  0  0  0  0  0
   11.2596   -1.3868   22.0614 C   0  0  0  0  0  0  0  0  0  0  0  0
   12.3355   -2.2247   22.3022 F   0  0  0  0  0  0  0  0  0  0  0  0
   11.2220   -0.6383   22.8621 H   0  0  0  0  0  0  0  0  0  0  0  0
   11.3960   -0.8886   21.0937 H   0  0  0  0  0  0  0  0  0  0  0  0
    9.9543   -2.8498   22.9686 H   0  0  0  0  0  0  0  0  0  0  0  0
   10.0223   -2.9123   21.2060 H   0  0  0  0  0  0  0  0  0  0  0  0
    6.6915   -2.5525   24.7584 C   0  0  0  0  0  0  0  0  0  0  0  0
    5.5339   -3.0860   24.0927 C   0  0  0  0  0  0  0  0  0  0  0  0
    4.6038   -3.8304   24.6675 N   0  0  0  0  0  0  0  0  0  0  0  0
    4.7476   -4.1220   25.9847 C   0  0  0  0  0  0  0  0  0  0  0  0
    5.8136   -3.7133   26.7371 C   0  0  0  0  0  0  0  0  0  0  0  0
    6.8302   -2.9243   26.1327 C   0  0  0  0  0  0  0  0  0  0  0  0
    7.9240   -2.4418   26.8908 C   0  0  0  0  0  0  0  0  0  0  0  0
    8.0740   -2.8336   27.8898 H   0  0  0  0  0  0  0  0  0  0  0  0
    5.8632   -3.9596   27.7928 H   0  0  0  0  0  0  0  0  0  0  0  0
    3.9503   -4.7290   26.4123 H   0  0  0  0  0  0  0  0  0  0  0  0
    5.3931   -2.8655   23.0348 H   0  0  0  0  0  0  0  0  0  0  0  0
    9.3767   -0.4100   24.6268 H   0  0  0  0  0  0  0  0  0  0  0  0
   10.2388   -1.4383   27.9725 H   0  0  0  0  0  0  0  0  0  0  0  0
   10.4430   -0.1421   26.7913 H   0  0  0  0  0  0  0  0  0  0  0  0
    9.1327   -0.0706   27.9883 H   0  0  0  0  0  0  0  0  0  0  0  0
  1  2  1  0
  2  3  2  0
  3  4  1  0
  4  5  1  0
  5  6  2  0
  6  7  1  0
  7  8  1  0
  8  9  2  0
  9 10  1  0
 10 11  2  0
 11 12  1  0
 12 13  2  0
 13 14  1  0
 11 15  1  0
 10 16  1  0
  9 17  1  0
  7 18  2  0
 18 19  1  0
 19 20  1  0
 20 21  1  0
 21 22  1  0
 21 23  1  0
 21 24  1  0
 20 25  1  0
 20 26  1  0
  4 27  2  0
 27 28  1  0
 28 29  2  0
 29 30  1  0
 30 31  2  0
 31 32  1  0
 32 33  2  0
 33 34  1  0
 31 35  1  0
 30 36  1  0
 28 37  1  0
  3 38  1  0
  1 39  1  0
  1 40  1  0
  1 41  1  0
 33  2  1  0
 19  5  1  0
 32 27  1  0
 13  8  1  0
M  END
>  <cnnaffinity>  (1) 
-5.98247

>  <filename>  (1) 
Cc1cc(-c2nc(-c3cccnc3)nn2CCF)c2cnccc2c1

$$$$
