
     RDKit          3D

 45 49  0  0  0  0  0  0  0  0999 V2000
   11.8790    1.0489   24.3744 C   0  0  0  0  0  0  0  0  0  0  0  0
   12.1505    1.9383   23.1744 C   0  0  0  0  0  0  0  0  0  0  0  0
   13.2647    2.7875   23.2169 C   0  0  0  0  0  0  0  0  0  0  0  0
   13.5291    3.7406   22.2308 C   0  0  0  0  0  0  0  0  0  0  0  0
   12.7061    3.7881   21.1019 C   0  0  0  0  0  0  0  0  0  0  0  0
   11.6600    2.8778   20.9751 C   0  0  0  0  0  0  0  0  0  0  0  0
   11.3059    2.0487   22.0432 C   0  0  0  0  0  0  0  0  0  0  0  0
    9.9762    1.5023   22.0501 N   0  0  0  0  0  0  0  0  0  0  0  0
    9.5467    0.5562   21.1788 N   0  0  0  0  0  0  0  0  0  0  0  0
    8.3330    0.2836   21.6238 C   0  0  0  0  0  0  0  0  0  0  0  0
    7.4273   -0.6983   20.9417 C   0  0  0  0  0  0  0  0  0  0  0  0
    6.6382   -0.0549   19.8121 C   0  0  0  0  0  0  0  0  0  0  0  0
    5.4408    0.6158   20.0847 C   0  0  0  0  0  0  0  0  0  0  0  0
    4.8035    1.3032   19.0504 C   0  0  0  0  0  0  0  0  0  0  0  0
    5.3925    1.3030   17.7821 C   0  0  0  0  0  0  0  0  0  0  0  0
    6.5359    0.6615   17.4970 N   0  0  0  0  0  0  0  0  0  0  0  0
    7.1341    0.0067   18.4995 C   0  0  0  0  0  0  0  0  0  0  0  0
    8.0720   -0.4940   18.2558 H   0  0  0  0  0  0  0  0  0  0  0  0
    4.9284    1.8409   16.9572 H   0  0  0  0  0  0  0  0  0  0  0  0
    3.8815    1.8476   19.2173 H   0  0  0  0  0  0  0  0  0  0  0  0
    5.0298    0.6055   21.0974 H   0  0  0  0  0  0  0  0  0  0  0  0
    8.0354   -1.5297   20.5717 H   0  0  0  0  0  0  0  0  0  0  0  0
    6.7426   -1.0921   21.6995 H   0  0  0  0  0  0  0  0  0  0  0  0
    7.9400    1.0059   22.6975 N   0  0  0  0  0  0  0  0  0  0  0  0
    8.9713    1.8102   22.9193 C   0  0  0  0  0  0  0  0  0  0  0  0
    9.0572    2.9012   23.9281 C   0  0  0  0  0  0  0  0  0  0  0  0
    9.7031    4.1329   23.7245 C   0  0  0  0  0  0  0  0  0  0  0  0
    9.7489    5.1107   24.7410 C   0  0  0  0  0  0  0  0  0  0  0  0
    9.2089    4.9837   25.9596 N   0  0  0  0  0  0  0  0  0  0  0  0
    8.5804    3.8117   26.1341 C   0  0  0  0  0  0  0  0  0  0  0  0
    8.4623    2.7528   25.2073 C   0  0  0  0  0  0  0  0  0  0  0  0
    7.7547    1.7486   25.9340 C   0  0  0  0  0  0  0  0  0  0  0  0
    7.4561    2.1410   27.1536 N   0  0  0  0  0  0  0  0  0  0  0  0
    7.9501    3.3983   27.2561 N   0  0  0  0  0  0  0  0  0  0  0  0
    7.9232    3.9340   28.1085 H   0  0  0  0  0  0  0  0  0  0  0  0
    7.4686    0.7693   25.5695 H   0  0  0  0  0  0  0  0  0  0  0  0
   10.2625    6.0491   24.5437 H   0  0  0  0  0  0  0  0  0  0  0  0
   10.1700    4.3594   22.7753 H   0  0  0  0  0  0  0  0  0  0  0  0
   11.0541    2.8674   20.0837 H   0  0  0  0  0  0  0  0  0  0  0  0
   12.8770    4.5183   20.3175 H   0  0  0  0  0  0  0  0  0  0  0  0
   14.3854    4.4032   22.3231 H   0  0  0  0  0  0  0  0  0  0  0  0
   13.9260    2.6891   24.0632 H   0  0  0  0  0  0  0  0  0  0  0  0
   11.1546    0.2596   24.1478 H   0  0  0  0  0  0  0  0  0  0  0  0
   11.4569    1.6535   25.1884 H   0  0  0  0  0  0  0  0  0  0  0  0
   12.8042    0.6047   24.7627 H   0  0  0  0  0  0  0  0  0  0  0  0
  1  2  1  0
  2  3  2  0
  3  4  1  0
  4  5  2  0
  5  6  1  0
  6  7  2  0
  7  8  1  0
  8  9  1  0
  9 10  2  0
 10 11  1  0
 11 12  1  0
 12 13  2  0
 13 14  1  0
 14 15  2  0
 15 16  1  0
 16 17  2  0
 17 18  1  0
 15 19  1  0
 14 20  1  0
 13 21  1  0
 11 22  1  0
 11 23  1  0
 10 24  1  0
 24 25  2  0
 25 26  1  0
 26 27  2  0
 27 28  1  0
 28 29  2  0
 29 30  1  0
 30 31  2  0
 31 32  1  0
 32 33  2  0
 33 34  1  0
 34 35  1  0
 32 36  1  0
 28 37  1  0
 27 38  1  0
  6 39  1  0
  5 40  1  0
  4 41  1  0
  3 42  1  0
  1 43  1  0
  1 44  1  0
  1 45  1  0
  7  2  1  0
 25  8  1  0
 31 26  1  0
 17 12  1  0
 34 30  1  0
M  END
>  <cnnaffinity>  (1) 
-6.15741

>  <filename>  (1) 
Cc1ccccc1-n1nc(Cc2cccnc2)nc1-c1ccnc2[nH]ncc12

$$$$
