
     RDKit          3D

 45 49  0  0  0  0  0  0  0  0999 V2000
   11.9917    1.1427   24.5187 C   0  0  0  0  0  0  0  0  0  0  0  0
   12.1002    2.1388   23.3710 C   0  0  0  0  0  0  0  0  0  0  0  0
   13.1694    3.0508   23.3028 C   0  0  0  0  0  0  0  0  0  0  0  0
   13.3115    3.9159   22.2253 C   0  0  0  0  0  0  0  0  0  0  0  0
   14.2692    4.8589   22.2554 F   0  0  0  0  0  0  0  0  0  0  0  0
   12.5128    3.8061   21.0955 C   0  0  0  0  0  0  0  0  0  0  0  0
   11.4898    2.8621   21.1124 C   0  0  0  0  0  0  0  0  0  0  0  0
   11.1965    2.1497   22.2807 C   0  0  0  0  0  0  0  0  0  0  0  0
    9.9086    1.5255   22.3580 N   0  0  0  0  0  0  0  0  0  0  0  0
    9.4964    0.6819   21.3817 N   0  0  0  0  0  0  0  0  0  0  0  0
    8.3022    0.3073   21.7997 C   0  0  0  0  0  0  0  0  0  0  0  0
    7.4432   -0.6308   20.9967 C   0  0  0  0  0  0  0  0  0  0  0  0
    6.6705    0.0100   19.8400 C   0  0  0  0  0  0  0  0  0  0  0  0
    5.4587    0.6787   20.0667 C   0  0  0  0  0  0  0  0  0  0  0  0
    4.8284    1.3286   19.0019 C   0  0  0  0  0  0  0  0  0  0  0  0
    5.4230    1.2816   17.7387 C   0  0  0  0  0  0  0  0  0  0  0  0
    6.5565    0.6107   17.4850 N   0  0  0  0  0  0  0  0  0  0  0  0
    7.1485   -0.0057   18.5158 C   0  0  0  0  0  0  0  0  0  0  0  0
    8.0628   -0.5489   18.2756 H   0  0  0  0  0  0  0  0  0  0  0  0
    4.9675    1.7954   16.8928 H   0  0  0  0  0  0  0  0  0  0  0  0
    3.9081    1.8862   19.1391 H   0  0  0  0  0  0  0  0  0  0  0  0
    5.0165    0.6924   21.0646 H   0  0  0  0  0  0  0  0  0  0  0  0
    6.7504   -1.0999   21.7015 H   0  0  0  0  0  0  0  0  0  0  0  0
    8.1004   -1.4198   20.6186 H   0  0  0  0  0  0  0  0  0  0  0  0
    7.9106    0.8521   22.9764 N   0  0  0  0  0  0  0  0  0  0  0  0
    8.9080    1.6670   23.2829 C   0  0  0  0  0  0  0  0  0  0  0  0
    8.9217    2.6802   24.3772 C   0  0  0  0  0  0  0  0  0  0  0  0
    8.5124    2.3977   25.6858 C   0  0  0  0  0  0  0  0  0  0  0  0
    8.6079    3.3740   26.7056 C   0  0  0  0  0  0  0  0  0  0  0  0
    9.1129    4.6030   26.5476 N   0  0  0  0  0  0  0  0  0  0  0  0
    9.4442    4.8856   25.2793 C   0  0  0  0  0  0  0  0  0  0  0  0
    9.3135    4.0340   24.1619 C   0  0  0  0  0  0  0  0  0  0  0  0
    9.5835    4.9027   23.0698 C   0  0  0  0  0  0  0  0  0  0  0  0
    9.9488    6.1141   23.4478 N   0  0  0  0  0  0  0  0  0  0  0  0
    9.8955    6.0692   24.8022 N   0  0  0  0  0  0  0  0  0  0  0  0
   10.0804    6.8786   25.3702 H   0  0  0  0  0  0  0  0  0  0  0  0
    9.4402    4.6563   22.0349 H   0  0  0  0  0  0  0  0  0  0  0  0
    8.2453    3.1326   27.7051 H   0  0  0  0  0  0  0  0  0  0  0  0
    8.1274    1.4218   25.9491 H   0  0  0  0  0  0  0  0  0  0  0  0
   10.8307    2.7378   20.2650 H   0  0  0  0  0  0  0  0  0  0  0  0
   12.7200    4.4406   20.2428 H   0  0  0  0  0  0  0  0  0  0  0  0
   13.9563    3.0720   24.0361 H   0  0  0  0  0  0  0  0  0  0  0  0
   12.9713    0.6865   24.7164 H   0  0  0  0  0  0  0  0  0  0  0  0
   11.2743    0.3454   24.2901 H   0  0  0  0  0  0  0  0  0  0  0  0
   11.6442    1.6178   25.4437 H   0  0  0  0  0  0  0  0  0  0  0  0
  1  2  1  0
  2  3  2  0
  3  4  1  0
  4  5  1  0
  4  6  2  0
  6  7  1  0
  7  8  2  0
  8  9  1  0
  9 10  1  0
 10 11  2  0
 11 12  1  0
 12 13  1  0
 13 14  2  0
 14 15  1  0
 15 16  2  0
 16 17  1  0
 17 18  2  0
 18 19  1  0
 16 20  1  0
 15 21  1  0
 14 22  1  0
 12 23  1  0
 12 24  1  0
 11 25  1  0
 25 26  2  0
 26 27  1  0
 27 28  2  0
 28 29  1  0
 29 30  2  0
 30 31  1  0
 31 32  2  0
 32 33  1  0
 33 34  2  0
 34 35  1  0
 35 36  1  0
 33 37  1  0
 29 38  1  0
 28 39  1  0
  7 40  1  0
  6 41  1  0
  3 42  1  0
  1 43  1  0
  1 44  1  0
  1 45  1  0
  8  2  1  0
 26  9  1  0
 32 27  1  0
 18 13  1  0
 35 31  1  0
M  END
>  <cnnaffinity>  (1) 
-6.31448

>  <filename>  (1) 
Cc1cc(F)ccc1-n1nc(Cc2cccnc2)nc1-c1ccnc2[nH]ncc12

$$$$
