
     RDKit          3D

 27 28  0  0  0  0  0  0  0  0999 V2000
    8.7670   -1.9514   21.4381 H   0  0  0  0  0  0  0  0  0  0  0  0
    8.3408   -1.5394   20.6131 N   0  0  0  0  0  0  0  0  0  0  0  0
    7.4260   -0.7380   20.9477 C   0  0  0  0  0  0  0  0  0  0  0  0
    7.0873   -0.3722   22.6835 S   0  0  0  0  0  0  0  0  0  0  0  0
    8.2379    0.9923   22.7932 C   0  0  0  0  0  0  0  0  0  0  0  0
    9.4984    0.6880   23.0978 N   0  0  0  0  0  0  0  0  0  0  0  0
   10.3810    1.6992   23.1816 C   0  0  0  0  0  0  0  0  0  0  0  0
   11.8012    1.3627   23.5426 C   0  0  0  0  0  0  0  0  0  0  0  0
   12.4777    1.6157   22.7200 H   0  0  0  0  0  0  0  0  0  0  0  0
   11.9173    0.3029   23.7710 H   0  0  0  0  0  0  0  0  0  0  0  0
   12.1360    1.9444   24.4072 H   0  0  0  0  0  0  0  0  0  0  0  0
   10.0244    3.0309   22.9266 C   0  0  0  0  0  0  0  0  0  0  0  0
   10.7814    3.8052   22.9834 H   0  0  0  0  0  0  0  0  0  0  0  0
    8.7107    3.3371   22.5892 C   0  0  0  0  0  0  0  0  0  0  0  0
    8.4066    4.3648   22.3768 H   0  0  0  0  0  0  0  0  0  0  0  0
    7.7897    2.2920   22.5269 C   0  0  0  0  0  0  0  0  0  0  0  0
    6.7535    2.4704   22.2687 H   0  0  0  0  0  0  0  0  0  0  0  0
    6.6592    0.0031   19.9258 C   0  0  0  0  0  0  0  0  0  0  0  0
    7.1797    0.0494   18.6210 C   0  0  0  0  0  0  0  0  0  0  0  0
    8.1204   -0.4322   18.3840 H   0  0  0  0  0  0  0  0  0  0  0  0
    6.5737    0.6687   17.6052 N   0  0  0  0  0  0  0  0  0  0  0  0
    5.4102    1.2853   17.8513 C   0  0  0  0  0  0  0  0  0  0  0  0
    4.9285    1.7724   17.0048 H   0  0  0  0  0  0  0  0  0  0  0  0
    4.8122    1.3062   19.1139 C   0  0  0  0  0  0  0  0  0  0  0  0
    3.8796    1.8375   19.2611 H   0  0  0  0  0  0  0  0  0  0  0  0
    5.4412    0.6513   20.1702 C   0  0  0  0  0  0  0  0  0  0  0  0
    4.9886    0.6347   21.1627 H   0  0  0  0  0  0  0  0  0  0  0  0
  1  2  1  0
  2  3  2  3
  3  4  1  0
  4  5  1  0
  5  6  2  0
  6  7  1  0
  7  8  1  0
  8  9  1  0
  8 10  1  0
  8 11  1  0
  7 12  2  0
 12 13  1  0
 12 14  1  0
 14 15  1  0
 14 16  2  0
 16 17  1  0
  3 18  1  0
 18 19  2  0
 19 20  1  0
 19 21  1  0
 21 22  2  0
 22 23  1  0
 22 24  1  0
 24 25  1  0
 24 26  2  0
 26 27  1  0
 16  5  1  0
 26 18  1  0
M  END
>  <cnnaffinity>  (1) 
-4.75901

>  <filename>  (1) 
Cc1cccc(SC(=N)c2cccnc2)n1

$$$$
