
     RDKit          3D

 45 49  0  0  0  0  0  0  0  0999 V2000
    9.9558   -5.4301   25.9984 C   0  0  0  0  0  0  0  0  0  0  0  0
    9.4104   -5.0354   24.6529 C   0  0  0  0  0  0  0  0  0  0  0  0
    8.3304   -5.7342   24.1005 C   0  0  0  0  0  0  0  0  0  0  0  0
    7.8192   -5.3573   22.8567 C   0  0  0  0  0  0  0  0  0  0  0  0
    8.3939   -4.2571   22.2297 C   0  0  0  0  0  0  0  0  0  0  0  0
    9.4211   -3.5682   22.8929 C   0  0  0  0  0  0  0  0  0  0  0  0
    9.8699   -2.2237   22.3607 C   0  0  0  0  0  0  0  0  0  0  0  0
    8.7135   -1.3373   22.1155 N   0  0  0  0  0  0  0  0  0  0  0  0
    8.4474   -0.9024   20.8648 N   0  0  0  0  0  0  0  0  0  0  0  0
    7.2160   -0.4279   20.9626 C   0  0  0  0  0  0  0  0  0  0  0  0
    6.4979    0.1535   19.8301 C   0  0  0  0  0  0  0  0  0  0  0  0
    5.2565    0.7966   19.9669 C   0  0  0  0  0  0  0  0  0  0  0  0
    4.7166    1.4074   18.8376 C   0  0  0  0  0  0  0  0  0  0  0  0
    5.4128    1.3325   17.6244 C   0  0  0  0  0  0  0  0  0  0  0  0
    6.5726    0.6743   17.4748 N   0  0  0  0  0  0  0  0  0  0  0  0
    7.0939    0.0986   18.5614 C   0  0  0  0  0  0  0  0  0  0  0  0
    8.0340   -0.4326   18.4207 H   0  0  0  0  0  0  0  0  0  0  0  0
    5.0216    1.8160   16.7321 H   0  0  0  0  0  0  0  0  0  0  0  0
    3.7845    1.9600   18.8877 H   0  0  0  0  0  0  0  0  0  0  0  0
    4.7459    0.8237   20.9336 H   0  0  0  0  0  0  0  0  0  0  0  0
    6.6562   -0.5663   22.1902 N   0  0  0  0  0  0  0  0  0  0  0  0
    7.6145   -1.1191   22.8987 C   0  0  0  0  0  0  0  0  0  0  0  0
    7.5550   -1.5786   24.2837 C   0  0  0  0  0  0  0  0  0  0  0  0
    6.6738   -2.5949   24.6450 C   0  0  0  0  0  0  0  0  0  0  0  0
    6.7303   -3.2427   25.8265 N   0  0  0  0  0  0  0  0  0  0  0  0
    7.6462   -2.8688   26.7273 C   0  0  0  0  0  0  0  0  0  0  0  0
    8.5259   -1.7867   26.4906 C   0  0  0  0  0  0  0  0  0  0  0  0
    8.5062   -1.1509   25.2329 C   0  0  0  0  0  0  0  0  0  0  0  0
    9.5208   -0.1387   25.2590 C   0  0  0  0  0  0  0  0  0  0  0  0
   10.0877   -0.1719   26.4961 C   0  0  0  0  0  0  0  0  0  0  0  0
    9.5039   -1.1738   27.2484 N   0  0  0  0  0  0  0  0  0  0  0  0
    9.6440   -1.2798   28.2418 H   0  0  0  0  0  0  0  0  0  0  0  0
   10.8835    0.4323   26.9139 H   0  0  0  0  0  0  0  0  0  0  0  0
    9.7609    0.5382   24.4490 H   0  0  0  0  0  0  0  0  0  0  0  0
    7.6692   -3.4294   27.6602 H   0  0  0  0  0  0  0  0  0  0  0  0
    5.9262   -2.9425   23.9312 H   0  0  0  0  0  0  0  0  0  0  0  0
   10.4011   -2.3243   21.4095 H   0  0  0  0  0  0  0  0  0  0  0  0
   10.5330   -1.7776   23.1070 H   0  0  0  0  0  0  0  0  0  0  0  0
    9.9694   -3.9836   24.0341 N   0  0  0  0  0  0  0  0  0  0  0  0
    8.0325   -3.8764   21.2806 H   0  0  0  0  0  0  0  0  0  0  0  0
    6.9549   -5.8547   22.4143 H   0  0  0  0  0  0  0  0  0  0  0  0
    7.8984   -6.5154   24.7096 H   0  0  0  0  0  0  0  0  0  0  0  0
   10.5822   -4.6317   26.4101 H   0  0  0  0  0  0  0  0  0  0  0  0
   10.5305   -6.3614   25.9354 H   0  0  0  0  0  0  0  0  0  0  0  0
    9.1184   -5.6122   26.6825 H   0  0  0  0  0  0  0  0  0  0  0  0
  1  2  1  0
  2  3  2  0
  3  4  1  0
  4  5  2  0
  5  6  1  0
  6  7  1  0
  7  8  1  0
  8  9  1  0
  9 10  2  0
 10 11  1  0
 11 12  2  0
 12 13  1  0
 13 14  2  0
 14 15  1  0
 15 16  2  0
 16 17  1  0
 14 18  1  0
 13 19  1  0
 12 20  1  0
 10 21  1  0
 21 22  2  0
 22 23  1  0
 23 24  2  0
 24 25  1  0
 25 26  2  0
 26 27  1  0
 27 28  2  0
 28 29  1  0
 29 30  2  0
 30 31  1  0
 31 32  1  0
 30 33  1  0
 29 34  1  0
 26 35  1  0
 24 36  1  0
  7 37  1  0
  7 38  1  0
  6 39  2  0
  5 40  1  0
  4 41  1  0
  3 42  1  0
  1 43  1  0
  1 44  1  0
  1 45  1  0
 39  2  1  0
 22  8  1  0
 28 23  1  0
 16 11  1  0
 31 27  1  0
M  END
>  <cnnaffinity>  (1) 
-6.58641

>  <filename>  (1) 
Cc1cccc(Cn2nc(-c3cccnc3)nc2-c2cncc3[nH]ccc23)n1

$$$$
