
     RDKit          3D

 37 38  0  0  0  0  0  0  0  0999 V2000
    8.3278   -3.4550   25.0486 C   0  0  0  0  0  0  0  0  0  0  0  0
    8.1545   -4.3393   23.8382 C   0  0  0  0  0  0  0  0  0  0  0  0
    8.5737   -5.6624   23.7824 C   0  0  0  0  0  0  0  0  0  0  0  0
    9.2435   -6.4224   25.2024 Cl  0  0  0  0  0  0  0  0  0  0  0  0
    8.5432   -6.3935   22.5885 C   0  0  0  0  0  0  0  0  0  0  0  0
    8.1007   -5.7241   21.4597 C   0  0  0  0  0  0  0  0  0  0  0  0
    7.6362   -4.4811   21.4578 N   0  0  0  0  0  0  0  0  0  0  0  0
    7.5832   -3.8462   22.6254 C   0  0  0  0  0  0  0  0  0  0  0  0
    6.9218   -2.6611   22.6161 N   0  0  0  0  0  0  0  0  0  0  0  0
    6.5213   -1.9354   21.4312 C   0  0  0  0  0  0  0  0  0  0  0  0
    7.3950   -0.6777   21.0897 C   0  0  0  0  0  0  0  0  0  0  0  0
    7.4910    0.2679   22.3149 C   0  0  0  0  0  0  0  0  0  0  0  0
    8.0707   -0.1936   23.1223 H   0  0  0  0  0  0  0  0  0  0  0  0
    6.5191    0.5458   22.7350 H   0  0  0  0  0  0  0  0  0  0  0  0
    8.0109    1.1914   22.0411 H   0  0  0  0  0  0  0  0  0  0  0  0
    8.8357   -1.1166   20.7653 C   0  0  0  0  0  0  0  0  0  0  0  0
    8.8807   -1.8636   19.9707 H   0  0  0  0  0  0  0  0  0  0  0  0
    9.3056   -1.5639   21.6473 H   0  0  0  0  0  0  0  0  0  0  0  0
    9.4425   -0.2542   20.4698 H   0  0  0  0  0  0  0  0  0  0  0  0
    6.7070    0.0424   19.9116 C   0  0  0  0  0  0  0  0  0  0  0  0
    5.4716    0.6845   20.1141 C   0  0  0  0  0  0  0  0  0  0  0  0
    4.8395    1.3226   19.0482 C   0  0  0  0  0  0  0  0  0  0  0  0
    5.4537    1.2921   17.7939 C   0  0  0  0  0  0  0  0  0  0  0  0
    6.6146    0.6686   17.5598 N   0  0  0  0  0  0  0  0  0  0  0  0
    7.2123    0.0630   18.5979 C   0  0  0  0  0  0  0  0  0  0  0  0
    8.1450   -0.4491   18.3600 H   0  0  0  0  0  0  0  0  0  0  0  0
    4.9906    1.7838   16.9422 H   0  0  0  0  0  0  0  0  0  0  0  0
    3.8915    1.8321   19.1772 H   0  0  0  0  0  0  0  0  0  0  0  0
    5.0036    0.6800   21.1003 H   0  0  0  0  0  0  0  0  0  0  0  0
    6.5366   -2.6237   20.5788 H   0  0  0  0  0  0  0  0  0  0  0  0
    5.4806   -1.6054   21.5434 H   0  0  0  0  0  0  0  0  0  0  0  0
    6.8813   -2.1827   23.4971 H   0  0  0  0  0  0  0  0  0  0  0  0
    8.1151   -6.1835   20.4776 H   0  0  0  0  0  0  0  0  0  0  0  0
    8.8815   -7.4189   22.5496 H   0  0  0  0  0  0  0  0  0  0  0  0
    7.4184   -3.4409   25.6593 H   0  0  0  0  0  0  0  0  0  0  0  0
    8.5890   -2.4299   24.7503 H   0  0  0  0  0  0  0  0  0  0  0  0
    9.1416   -3.8117   25.6845 H   0  0  0  0  0  0  0  0  0  0  0  0
  1  2  1  0
  2  3  2  0
  3  4  1  0
  3  5  1  0
  5  6  2  0
  6  7  1  0
  7  8  2  0
  8  9  1  0
  9 10  1  0
 10 11  1  0
 11 12  1  0
 12 13  1  0
 12 14  1  0
 12 15  1  0
 11 16  1  0
 16 17  1  0
 16 18  1  0
 16 19  1  0
 11 20  1  0
 20 21  2  0
 21 22  1  0
 22 23  2  0
 23 24  1  0
 24 25  2  0
 25 26  1  0
 23 27  1  0
 22 28  1  0
 21 29  1  0
 10 30  1  0
 10 31  1  0
  9 32  1  0
  6 33  1  0
  5 34  1  0
  1 35  1  0
  1 36  1  0
  1 37  1  0
  8  2  1  0
 25 20  1  0
M  END
>  <cnnaffinity>  (1) 
-5.13771

>  <filename>  (1) 
Cc1c(Cl)ccnc1NCC(C)(C)c1cccnc1

$$$$
