
     RDKit          3D

 39 41  0  0  0  0  0  0  0  0999 V2000
    6.2945   -4.8399   20.6928 C   0  0  0  0  0  0  0  0  0  0  0  0
    5.8931   -5.3956   22.0463 C   0  0  0  0  0  0  0  0  0  0  0  0
    5.6242   -6.7679   22.1805 C   0  0  0  0  0  0  0  0  0  0  0  0
    5.2454   -7.3319   23.4038 C   0  0  0  0  0  0  0  0  0  0  0  0
    5.2072   -6.5361   24.5513 C   0  0  0  0  0  0  0  0  0  0  0  0
    5.5038   -5.1754   24.4413 C   0  0  0  0  0  0  0  0  0  0  0  0
    5.7864   -4.5782   23.2003 C   0  0  0  0  0  0  0  0  0  0  0  0
    5.9105   -3.0652   23.1468 C   0  0  0  0  0  0  0  0  0  0  0  0
    7.3274   -2.5479   23.4226 C   0  0  0  0  0  0  0  0  0  0  0  0
    7.3522   -1.0888   23.4694 N   0  0  0  0  0  0  0  0  0  0  0  0
    7.2484   -0.3206   24.6028 C   0  0  0  0  0  0  0  0  0  0  0  0
    7.1113    0.9722   24.1804 C   0  0  0  0  0  0  0  0  0  0  0  0
    7.1185    1.0212   22.8178 N   0  0  0  0  0  0  0  0  0  0  0  0
    7.2768   -0.2291   22.4059 C   0  0  0  0  0  0  0  0  0  0  0  0
    7.4008   -0.7014   20.9596 C   0  0  0  0  0  0  0  0  0  0  0  0
    8.1149   -1.6507   20.6618 O   0  0  0  0  0  0  0  0  0  0  0  0
    6.6383    0.0042   19.8867 C   0  0  0  0  0  0  0  0  0  0  0  0
    5.4341    0.6894   20.1132 C   0  0  0  0  0  0  0  0  0  0  0  0
    4.8183    1.3152   19.0323 C   0  0  0  0  0  0  0  0  0  0  0  0
    5.4384    1.2714   17.7798 C   0  0  0  0  0  0  0  0  0  0  0  0
    6.5782    0.6011   17.5474 N   0  0  0  0  0  0  0  0  0  0  0  0
    7.1493   -0.0281   18.5772 C   0  0  0  0  0  0  0  0  0  0  0  0
    8.0697   -0.5709   18.3720 H   0  0  0  0  0  0  0  0  0  0  0  0
    5.0155    1.8059   16.9281 H   0  0  0  0  0  0  0  0  0  0  0  0
    3.8835    1.8506   19.1432 H   0  0  0  0  0  0  0  0  0  0  0  0
    5.0069    0.7598   21.1175 H   0  0  0  0  0  0  0  0  0  0  0  0
    6.9934    1.8659   24.7796 H   0  0  0  0  0  0  0  0  0  0  0  0
    7.2698   -0.7506   25.5919 H   0  0  0  0  0  0  0  0  0  0  0  0
    8.0360   -2.8841   22.6653 H   0  0  0  0  0  0  0  0  0  0  0  0
    7.6924   -2.9148   24.3872 H   0  0  0  0  0  0  0  0  0  0  0  0
    5.5750   -2.6662   22.1790 H   0  0  0  0  0  0  0  0  0  0  0  0
    5.2494   -2.6265   23.9076 H   0  0  0  0  0  0  0  0  0  0  0  0
    5.5010   -4.5513   25.3366 H   0  0  0  0  0  0  0  0  0  0  0  0
    4.9486   -6.9749   25.5147 H   0  0  0  0  0  0  0  0  0  0  0  0
    4.9577   -8.3784   23.4595 H   0  0  0  0  0  0  0  0  0  0  0  0
    5.7134   -7.4105   21.3078 H   0  0  0  0  0  0  0  0  0  0  0  0
    6.5370   -5.6415   19.9905 H   0  0  0  0  0  0  0  0  0  0  0  0
    5.5150   -4.2325   20.2165 H   0  0  0  0  0  0  0  0  0  0  0  0
    7.1756   -4.1991   20.7836 H   0  0  0  0  0  0  0  0  0  0  0  0
  1  2  1  0
  2  3  2  0
  3  4  1  0
  4  5  2  0
  5  6  1  0
  6  7  2  0
  7  8  1  0
  8  9  1  0
  9 10  1  0
 10 11  1  0
 11 12  2  0
 12 13  1  0
 13 14  2  0
 14 15  1  0
 15 16  2  0
 15 17  1  0
 17 18  2  0
 18 19  1  0
 19 20  2  0
 20 21  1  0
 21 22  2  0
 22 23  1  0
 20 24  1  0
 19 25  1  0
 18 26  1  0
 12 27  1  0
 11 28  1  0
  9 29  1  0
  9 30  1  0
  8 31  1  0
  8 32  1  0
  6 33  1  0
  5 34  1  0
  4 35  1  0
  3 36  1  0
  1 37  1  0
  1 38  1  0
  1 39  1  0
  7  2  1  0
 14 10  1  0
 22 17  1  0
M  END
>  <cnnaffinity>  (1) 
-5.14039

>  <filename>  (1) 
Cc1ccccc1CCn1ccnc1C(=O)c1cccnc1

$$$$
