
     RDKit          3D

 35 37  0  0  0  0  0  0  0  0999 V2000
    9.4213    0.6924   20.7639 C   0  0  0  0  0  0  0  0  0  0  0  0
    8.6257   -0.4033   21.4146 C   0  0  0  0  0  0  0  0  0  0  0  0
    9.1541   -1.2317   22.4082 C   0  0  0  0  0  0  0  0  0  0  0  0
    8.4724   -2.2208   22.9751 N   0  0  0  0  0  0  0  0  0  0  0  0
    7.2128   -2.3987   22.5531 C   0  0  0  0  0  0  0  0  0  0  0  0
    6.4552   -3.4533   23.2393 C   0  0  0  0  0  0  0  0  0  0  0  0
    5.1890   -3.8266   22.9749 C   0  0  0  0  0  0  0  0  0  0  0  0
    4.3976   -4.8686   23.6572 C   0  0  0  0  0  0  0  0  0  0  0  0
    4.7540   -5.4026   24.9063 C   0  0  0  0  0  0  0  0  0  0  0  0
    3.9505   -6.3925   25.4670 C   0  0  0  0  0  0  0  0  0  0  0  0
    2.8214   -6.8145   24.7570 C   0  0  0  0  0  0  0  0  0  0  0  0
    2.5429   -6.2146   23.5232 C   0  0  0  0  0  0  0  0  0  0  0  0
    3.2971   -5.2580   22.9796 N   0  0  0  0  0  0  0  0  0  0  0  0
    1.6723   -6.5176   22.9418 H   0  0  0  0  0  0  0  0  0  0  0  0
    2.1574   -7.5793   25.1379 H   0  0  0  0  0  0  0  0  0  0  0  0
    4.2027   -6.8205   26.4359 H   0  0  0  0  0  0  0  0  0  0  0  0
    5.6326   -5.0086   25.4063 H   0  0  0  0  0  0  0  0  0  0  0  0
    4.6124   -3.3704   22.1668 H   0  0  0  0  0  0  0  0  0  0  0  0
    7.0797   -3.9103   24.0072 H   0  0  0  0  0  0  0  0  0  0  0  0
    6.6153   -1.7067   21.5804 N   0  0  0  0  0  0  0  0  0  0  0  0
    7.3193   -0.7379   21.0105 C   0  0  0  0  0  0  0  0  0  0  0  0
    6.6237   -0.0199   19.9253 C   0  0  0  0  0  0  0  0  0  0  0  0
    5.4097    0.6334   20.1642 C   0  0  0  0  0  0  0  0  0  0  0  0
    4.8028    1.3113   19.1094 C   0  0  0  0  0  0  0  0  0  0  0  0
    5.4164    1.2852   17.8511 C   0  0  0  0  0  0  0  0  0  0  0  0
    6.5702    0.6488   17.6060 N   0  0  0  0  0  0  0  0  0  0  0  0
    7.1547    0.0180   18.6315 C   0  0  0  0  0  0  0  0  0  0  0  0
    8.1072   -0.4596   18.3974 H   0  0  0  0  0  0  0  0  0  0  0  0
    4.9608    1.7891   17.0011 H   0  0  0  0  0  0  0  0  0  0  0  0
    3.8733    1.8540   19.2439 H   0  0  0  0  0  0  0  0  0  0  0  0
    4.9650    0.6126   21.1620 H   0  0  0  0  0  0  0  0  0  0  0  0
   10.1889   -1.0955   22.7418 H   0  0  0  0  0  0  0  0  0  0  0  0
    9.7608    0.3160   19.8004 H   0  0  0  0  0  0  0  0  0  0  0  0
    8.7982    1.5686   20.5605 H   0  0  0  0  0  0  0  0  0  0  0  0
   10.2869    0.9978   21.3552 H   0  0  0  0  0  0  0  0  0  0  0  0
  1  2  1  0
  2  3  2  0
  3  4  1  0
  4  5  2  0
  5  6  1  0
  6  7  2  3
  7  8  1  0
  8  9  2  0
  9 10  1  0
 10 11  2  0
 11 12  1  0
 12 13  2  0
 12 14  1  0
 11 15  1  0
 10 16  1  0
  9 17  1  0
  7 18  1  0
  6 19  1  0
  5 20  1  0
 20 21  2  0
 21 22  1  0
 22 23  2  0
 23 24  1  0
 24 25  2  0
 25 26  1  0
 26 27  2  0
 27 28  1  0
 25 29  1  0
 24 30  1  0
 23 31  1  0
  3 32  1  0
  1 33  1  0
  1 34  1  0
  1 35  1  0
 21  2  1  0
 27 22  1  0
 13  8  1  0
M  END
>  <cnnaffinity>  (1) 
-5.4041

>  <filename>  (1) 
Cc1cnc(C=Cc2ccccn2)nc1-c1cccnc1

$$$$
