
     RDKit          3D

 49 52  0  0  0  0  0  0  0  0999 V2000
    7.1142    5.3515   27.1754 C   0  0  0  0  0  0  0  0  0  0  0  0
    7.4985    5.7507   25.7434 C   0  0  0  0  0  0  0  0  0  0  0  0
    6.2672    6.1101   24.8745 C   0  0  0  0  0  0  0  0  0  0  0  0
    5.5404    4.8516   24.3654 C   0  0  0  0  0  0  0  0  0  0  0  0
    6.4823    3.9962   23.5048 C   0  0  0  0  0  0  0  0  0  0  0  0
    7.8485    3.8490   24.1217 C   0  0  0  0  0  0  0  0  0  0  0  0
    8.9300    3.0375   23.7828 C   0  0  0  0  0  0  0  0  0  0  0  0
    8.9090    1.9500   22.8168 C   0  0  0  0  0  0  0  0  0  0  0  0
    7.8764    1.1509   22.5918 N   0  0  0  0  0  0  0  0  0  0  0  0
    8.3104    0.3403   21.6024 C   0  0  0  0  0  0  0  0  0  0  0  0
    7.4436   -0.6837   20.9379 C   0  0  0  0  0  0  0  0  0  0  0  0
    6.6491   -0.0603   19.8018 C   0  0  0  0  0  0  0  0  0  0  0  0
    5.4614    0.6274   20.0795 C   0  0  0  0  0  0  0  0  0  0  0  0
    4.8235    1.3078   19.0426 C   0  0  0  0  0  0  0  0  0  0  0  0
    5.4013    1.2885   17.7708 C   0  0  0  0  0  0  0  0  0  0  0  0
    6.5375    0.6339   17.4818 N   0  0  0  0  0  0  0  0  0  0  0  0
    7.1354   -0.0192   18.4849 C   0  0  0  0  0  0  0  0  0  0  0  0
    8.0655   -0.5344   18.2354 H   0  0  0  0  0  0  0  0  0  0  0  0
    4.9360    1.8171   16.9430 H   0  0  0  0  0  0  0  0  0  0  0  0
    3.9065    1.8599   19.2093 H   0  0  0  0  0  0  0  0  0  0  0  0
    5.0692    0.6349   21.0994 H   0  0  0  0  0  0  0  0  0  0  0  0
    6.7745   -1.0780   21.7094 H   0  0  0  0  0  0  0  0  0  0  0  0
    8.0850   -1.4994   20.5894 H   0  0  0  0  0  0  0  0  0  0  0  0
    9.5431    0.5638   21.2046 N   0  0  0  0  0  0  0  0  0  0  0  0
    9.9291    1.6088   21.9814 N   0  0  0  0  0  0  0  0  0  0  0  0
   11.3521    1.9220   22.0325 C   0  0  0  0  0  0  0  0  0  0  0  0
   12.0711    0.8948   22.9250 C   0  0  0  0  0  0  0  0  0  0  0  0
   13.3677    1.3926   23.5208 C   0  0  0  0  0  0  0  0  0  0  0  0
   13.5637    0.8502   24.7343 F   0  0  0  0  0  0  0  0  0  0  0  0
   13.3694    2.7359   23.6790 F   0  0  0  0  0  0  0  0  0  0  0  0
   14.4305    1.0801   22.7577 F   0  0  0  0  0  0  0  0  0  0  0  0
   11.4196    0.5913   23.7519 H   0  0  0  0  0  0  0  0  0  0  0  0
   12.2817   -0.0196   22.3625 H   0  0  0  0  0  0  0  0  0  0  0  0
   11.4632    2.9435   22.4045 H   0  0  0  0  0  0  0  0  0  0  0  0
   11.7302    1.8845   21.0087 H   0  0  0  0  0  0  0  0  0  0  0  0
    9.9754    3.5145   24.6003 C   0  0  0  0  0  0  0  0  0  0  0  0
    9.5830    4.5110   25.3816 N   0  0  0  0  0  0  0  0  0  0  0  0
    8.2926    4.7024   25.0681 N   0  0  0  0  0  0  0  0  0  0  0  0
   11.0039    3.1751   24.6732 H   0  0  0  0  0  0  0  0  0  0  0  0
    6.0723    3.0014   23.3078 H   0  0  0  0  0  0  0  0  0  0  0  0
    6.6075    4.4606   22.5172 H   0  0  0  0  0  0  0  0  0  0  0  0
    4.6551    5.1315   23.7838 H   0  0  0  0  0  0  0  0  0  0  0  0
    5.1846    4.2671   25.2247 H   0  0  0  0  0  0  0  0  0  0  0  0
    5.5922    6.7511   25.4536 H   0  0  0  0  0  0  0  0  0  0  0  0
    6.6054    6.7074   24.0173 H   0  0  0  0  0  0  0  0  0  0  0  0
    8.1658    6.6144   25.7980 H   0  0  0  0  0  0  0  0  0  0  0  0
    8.0112    5.1648   27.7721 H   0  0  0  0  0  0  0  0  0  0  0  0
    6.5498    6.1625   27.6494 H   0  0  0  0  0  0  0  0  0  0  0  0
    6.4909    4.4500   27.1924 H   0  0  0  0  0  0  0  0  0  0  0  0
  1  2  1  0
  2  3  1  0
  3  4  1  0
  4  5  1  0
  5  6  1  0
  6  7  2  0
  7  8  1  0
  8  9  2  0
  9 10  1  0
 10 11  1  0
 11 12  1  0
 12 13  2  0
 13 14  1  0
 14 15  2  0
 15 16  1  0
 16 17  2  0
 17 18  1  0
 15 19  1  0
 14 20  1  0
 13 21  1  0
 11 22  1  0
 11 23  1  0
 10 24  2  0
 24 25  1  0
 25 26  1  0
 26 27  1  0
 27 28  1  0
 28 29  1  0
 28 30  1  0
 28 31  1  0
 27 32  1  0
 27 33  1  0
 26 34  1  0
 26 35  1  0
  7 36  1  0
 36 37  2  0
 37 38  1  0
 36 39  1  0
  5 40  1  0
  5 41  1  0
  4 42  1  0
  4 43  1  0
  3 44  1  0
  3 45  1  0
  2 46  1  0
  1 47  1  0
  1 48  1  0
  1 49  1  0
 38  2  1  0
 38  6  1  0
 25  8  1  0
 17 12  1  0
M  END
>  <cnnaffinity>  (1) 
-6.01498

>  <filename>  (1) 
CC1CCCc2c(-c3nc(Cc4cccnc4)nn3CCC(F)(F)F)cnn21

$$$$
