
     RDKit          3D

 42 44  0  0  0  0  0  0  0  0999 V2000
   10.6127   -4.2350   24.9821 C   0  0  0  0  0  0  0  0  0  0  0  0
    9.5574   -4.6074   23.9585 C   0  0  0  0  0  0  0  0  0  0  0  0
    8.9682   -5.8790   24.0459 C   0  0  0  0  0  0  0  0  0  0  0  0
    8.0929   -6.3442   23.0552 C   0  0  0  0  0  0  0  0  0  0  0  0
    7.7647   -5.5247   21.9768 C   0  0  0  0  0  0  0  0  0  0  0  0
    8.2903   -4.2392   21.9098 C   0  0  0  0  0  0  0  0  0  0  0  0
    9.1552   -3.7432   22.9054 C   0  0  0  0  0  0  0  0  0  0  0  0
    9.6172   -2.2656   22.8515 C   0  0  0  0  0  0  0  0  0  0  0  0
   10.9172   -2.0242   22.0574 C   0  0  0  0  0  0  0  0  0  0  0  0
   10.8088   -2.2368   20.9889 H   0  0  0  0  0  0  0  0  0  0  0  0
   11.7322   -2.6313   22.4629 H   0  0  0  0  0  0  0  0  0  0  0  0
   11.2515   -0.9850   22.1468 H   0  0  0  0  0  0  0  0  0  0  0  0
    8.4673   -1.3921   22.3736 C   0  0  0  0  0  0  0  0  0  0  0  0
    8.2540   -0.8986   21.1692 N   0  0  0  0  0  0  0  0  0  0  0  0
    6.9906   -0.3932   21.2488 C   0  0  0  0  0  0  0  0  0  0  0  0
    6.3343    0.1944   20.0729 C   0  0  0  0  0  0  0  0  0  0  0  0
    5.1004    0.8729   20.0961 C   0  0  0  0  0  0  0  0  0  0  0  0
    4.6522    1.4454   18.9059 C   0  0  0  0  0  0  0  0  0  0  0  0
    5.4262    1.3051   17.7471 C   0  0  0  0  0  0  0  0  0  0  0  0
    6.5779    0.6218   17.7071 N   0  0  0  0  0  0  0  0  0  0  0  0
    7.0123    0.0823   18.8488 C   0  0  0  0  0  0  0  0  0  0  0  0
    7.9486   -0.4694   18.7865 H   0  0  0  0  0  0  0  0  0  0  0  0
    5.1090    1.7466   16.8050 H   0  0  0  0  0  0  0  0  0  0  0  0
    3.7293    2.0134   18.8544 H   0  0  0  0  0  0  0  0  0  0  0  0
    4.5177    0.9582   21.0182 H   0  0  0  0  0  0  0  0  0  0  0  0
    6.4281   -0.5365   22.4295 N   0  0  0  0  0  0  0  0  0  0  0  0
    7.3704   -1.1894   23.1499 N   0  0  0  0  0  0  0  0  0  0  0  0
    7.0695   -1.5924   24.5144 C   0  0  0  0  0  0  0  0  0  0  0  0
    6.1713   -2.8259   24.6165 C   0  0  0  0  0  0  0  0  0  0  0  0
    6.1410   -3.2022   25.9542 F   0  0  0  0  0  0  0  0  0  0  0  0
    5.1523   -2.5996   24.2896 H   0  0  0  0  0  0  0  0  0  0  0  0
    6.5473   -3.6735   24.0327 H   0  0  0  0  0  0  0  0  0  0  0  0
    7.9903   -1.7922   25.0705 H   0  0  0  0  0  0  0  0  0  0  0  0
    6.5705   -0.7501   24.9969 H   0  0  0  0  0  0  0  0  0  0  0  0
    9.8244   -1.9606   23.8885 H   0  0  0  0  0  0  0  0  0  0  0  0
    7.9965   -3.5867   21.0870 H   0  0  0  0  0  0  0  0  0  0  0  0
    7.0810   -5.8826   21.2126 H   0  0  0  0  0  0  0  0  0  0  0  0
    7.6548   -7.3314   23.0780 H   0  0  0  0  0  0  0  0  0  0  0  0
    9.2385   -6.5012   24.8994 H   0  0  0  0  0  0  0  0  0  0  0  0
   10.9102   -5.1000   25.5866 H   0  0  0  0  0  0  0  0  0  0  0  0
   10.2430   -3.4703   25.6733 H   0  0  0  0  0  0  0  0  0  0  0  0
   11.5220   -3.8548   24.5007 H   0  0  0  0  0  0  0  0  0  0  0  0
  1  2  1  0
  2  3  2  0
  3  4  1  0
  4  5  2  0
  5  6  1  0
  6  7  2  0
  7  8  1  0
  8  9  1  0
  9 10  1  0
  9 11  1  0
  9 12  1  0
  8 13  1  0
 13 14  2  0
 14 15  1  0
 15 16  1  0
 16 17  2  0
 17 18  1  0
 18 19  2  0
 19 20  1  0
 20 21  2  0
 21 22  1  0
 19 23  1  0
 18 24  1  0
 17 25  1  0
 15 26  2  0
 26 27  1  0
 27 28  1  0
 28 29  1  0
 29 30  1  0
 29 31  1  0
 29 32  1  0
 28 33  1  0
 28 34  1  0
  8 35  1  0
  6 36  1  0
  5 37  1  0
  4 38  1  0
  3 39  1  0
  1 40  1  0
  1 41  1  0
  1 42  1  0
  7  2  1  0
 27 13  1  0
 21 16  1  0
M  END
>  <cnnaffinity>  (1) 
-6.12994

>  <filename>  (1) 
Cc1ccccc1C(C)c1nc(-c2cccnc2)nn1CCF

$$$$
