
     RDKit          3D

 32 34  0  0  0  0  0  0  0  0999 V2000
    4.9952    1.7926   16.8816 H   0  0  0  0  0  0  0  0  0  0  0  0
    5.4306    1.3007   17.7520 C   0  0  0  0  0  0  0  0  0  0  0  0
    6.5716    0.6247   17.5500 N   0  0  0  0  0  0  0  0  0  0  0  0
    7.1497    0.0098   18.5916 C   0  0  0  0  0  0  0  0  0  0  0  0
    8.0810   -0.5094   18.3813 H   0  0  0  0  0  0  0  0  0  0  0  0
    6.6027    0.0238   19.8921 C   0  0  0  0  0  0  0  0  0  0  0  0
    7.2065   -0.6267   21.0167 N   0  0  0  0  0  0  0  0  0  0  0  0
    6.5521   -1.5249   21.8558 C   0  0  0  0  0  0  0  0  0  0  0  0
    5.5514   -1.8622   21.6377 H   0  0  0  0  0  0  0  0  0  0  0  0
    7.3794   -1.8403   22.8815 C   0  0  0  0  0  0  0  0  0  0  0  0
    7.1920   -2.7341   24.0505 C   0  0  0  0  0  0  0  0  0  0  0  0
    6.0460   -2.5768   24.8538 C   0  0  0  0  0  0  0  0  0  0  0  0
    5.3674   -1.7640   24.6275 H   0  0  0  0  0  0  0  0  0  0  0  0
    5.8087   -3.3858   25.9683 C   0  0  0  0  0  0  0  0  0  0  0  0
    4.9164   -3.2391   26.5755 H   0  0  0  0  0  0  0  0  0  0  0  0
    6.7427   -4.3638   26.3186 C   0  0  0  0  0  0  0  0  0  0  0  0
    6.5917   -4.9899   27.1952 H   0  0  0  0  0  0  0  0  0  0  0  0
    7.8962   -4.5205   25.5472 C   0  0  0  0  0  0  0  0  0  0  0  0
    8.6594   -5.2471   25.8406 H   0  0  0  0  0  0  0  0  0  0  0  0
    8.1271   -3.7429   24.4030 C   0  0  0  0  0  0  0  0  0  0  0  0
    9.3829   -4.0258   23.6147 C   0  0  0  0  0  0  0  0  0  0  0  0
    9.2288   -3.8942   22.5408 H   0  0  0  0  0  0  0  0  0  0  0  0
    9.7043   -5.0566   23.7898 H   0  0  0  0  0  0  0  0  0  0  0  0
   10.2083   -3.3774   23.9319 H   0  0  0  0  0  0  0  0  0  0  0  0
    8.5366   -1.1092   22.6467 N   0  0  0  0  0  0  0  0  0  0  0  0
    9.3907   -1.1177   23.1748 H   0  0  0  0  0  0  0  0  0  0  0  0
    8.4607   -0.3501   21.5230 C   0  0  0  0  0  0  0  0  0  0  0  0
    9.6579    0.6367   20.9341 S   0  0  0  0  0  0  0  0  0  0  0  0
    5.4123    0.7266   20.0868 C   0  0  0  0  0  0  0  0  0  0  0  0
    4.9863    0.7613   21.0871 H   0  0  0  0  0  0  0  0  0  0  0  0
    4.8159    1.3751   19.0041 C   0  0  0  0  0  0  0  0  0  0  0  0
    3.8985    1.9387   19.1176 H   0  0  0  0  0  0  0  0  0  0  0  0
  1  2  1  0
  2  3  2  0
  3  4  1  0
  4  5  1  0
  4  6  2  0
  6  7  1  0
  7  8  1  0
  8  9  1  0
  8 10  2  0
 10 11  1  0
 11 12  2  0
 12 13  1  0
 12 14  1  0
 14 15  1  0
 14 16  2  0
 16 17  1  0
 16 18  1  0
 18 19  1  0
 18 20  2  0
 20 21  1  0
 21 22  1  0
 21 23  1  0
 21 24  1  0
 10 25  1  0
 25 26  1  0
 25 27  1  0
 27 28  2  0
  6 29  1  0
 29 30  1  0
 29 31  2  0
 31 32  1  0
 31  2  1  0
 27  7  1  0
 20 11  1  0
M  END
>  <cnnaffinity>  (1) 
-5.48582

>  <filename>  (1) 
Cc1ccccc1-c1cn(-c2cccnc2)c(=S)[nH]1

$$$$
