
     RDKit          3D

 33 34  0  0  0  0  0  0  0  0999 V2000
    6.7433   -5.1965   24.7294 C   0  0  0  0  0  0  0  0  0  0  0  0
    6.2981   -5.2315   23.2912 C   0  0  0  0  0  0  0  0  0  0  0  0
    5.3500   -6.1720   22.8778 C   0  0  0  0  0  0  0  0  0  0  0  0
    5.0200   -6.2700   21.5266 C   0  0  0  0  0  0  0  0  0  0  0  0
    5.5018   -5.4376   20.5981 N   0  0  0  0  0  0  0  0  0  0  0  0
    6.3726   -4.5084   21.0041 C   0  0  0  0  0  0  0  0  0  0  0  0
    6.8516   -4.3728   22.3135 C   0  0  0  0  0  0  0  0  0  0  0  0
    7.9228   -3.3516   22.6387 C   0  0  0  0  0  0  0  0  0  0  0  0
    7.4042   -1.9704   23.0868 C   0  0  0  0  0  0  0  0  0  0  0  0
    6.7646   -1.2047   22.0280 N   0  0  0  0  0  0  0  0  0  0  0  0
    7.4431   -0.6982   20.9692 C   0  0  0  0  0  0  0  0  0  0  0  0
    8.6516   -0.8302   20.8382 O   0  0  0  0  0  0  0  0  0  0  0  0
    6.6155    0.0062   19.9494 C   0  0  0  0  0  0  0  0  0  0  0  0
    5.3917    0.6651   20.1655 C   0  0  0  0  0  0  0  0  0  0  0  0
    4.7986    1.3118   19.0834 C   0  0  0  0  0  0  0  0  0  0  0  0
    5.4300    1.2729   17.8357 C   0  0  0  0  0  0  0  0  0  0  0  0
    6.5914    0.6356   17.6201 N   0  0  0  0  0  0  0  0  0  0  0  0
    7.1613    0.0321   18.6644 C   0  0  0  0  0  0  0  0  0  0  0  0
    8.1058   -0.4732   18.4706 H   0  0  0  0  0  0  0  0  0  0  0  0
    4.9834    1.7548   16.9675 H   0  0  0  0  0  0  0  0  0  0  0  0
    3.8528    1.8353   19.1824 H   0  0  0  0  0  0  0  0  0  0  0  0
    4.9195    0.6912   21.1521 H   0  0  0  0  0  0  0  0  0  0  0  0
    5.7644   -1.2547   21.9357 H   0  0  0  0  0  0  0  0  0  0  0  0
    6.6831   -2.0736   23.9037 H   0  0  0  0  0  0  0  0  0  0  0  0
    8.2486   -1.3843   23.4700 H   0  0  0  0  0  0  0  0  0  0  0  0
    8.5516   -3.1781   21.7600 H   0  0  0  0  0  0  0  0  0  0  0  0
    8.5842   -3.7434   23.4217 H   0  0  0  0  0  0  0  0  0  0  0  0
    6.7258   -3.8196   20.2331 H   0  0  0  0  0  0  0  0  0  0  0  0
    4.3474   -7.0443   21.1666 H   0  0  0  0  0  0  0  0  0  0  0  0
    4.8634   -6.8240   23.5947 H   0  0  0  0  0  0  0  0  0  0  0  0
    7.7615   -5.5931   24.8271 H   0  0  0  0  0  0  0  0  0  0  0  0
    6.7446   -4.1762   25.1289 H   0  0  0  0  0  0  0  0  0  0  0  0
    6.0930   -5.8115   25.3586 H   0  0  0  0  0  0  0  0  0  0  0  0
  1  2  1  0
  2  3  2  0
  3  4  1  0
  4  5  2  0
  5  6  1  0
  6  7  2  0
  7  8  1  0
  8  9  1  0
  9 10  1  0
 10 11  1  0
 11 12  2  0
 11 13  1  0
 13 14  2  0
 14 15  1  0
 15 16  2  0
 16 17  1  0
 17 18  2  0
 18 19  1  0
 16 20  1  0
 15 21  1  0
 14 22  1  0
 10 23  1  0
  9 24  1  0
  9 25  1  0
  8 26  1  0
  8 27  1  0
  6 28  1  0
  4 29  1  0
  3 30  1  0
  1 31  1  0
  1 32  1  0
  1 33  1  0
  7  2  1  0
 18 13  1  0
M  END
>  <cnnaffinity>  (1) 
-4.9037

>  <filename>  (1) 
Cc1ccncc1CCNC(=O)c1cccnc1

$$$$
