
     RDKit          3D

 36 39  0  0  0  0  0  0  0  0999 V2000
    9.3526    0.7016   20.7779 C   0  0  0  0  0  0  0  0  0  0  0  0
    8.5737   -0.4545   21.3542 C   0  0  0  0  0  0  0  0  0  0  0  0
    9.1106   -1.3008   22.3214 C   0  0  0  0  0  0  0  0  0  0  0  0
    8.4769   -2.3557   22.8161 N   0  0  0  0  0  0  0  0  0  0  0  0
    7.1914   -2.5231   22.4614 C   0  0  0  0  0  0  0  0  0  0  0  0
    6.3986   -3.5755   23.1315 C   0  0  0  0  0  0  0  0  0  0  0  0
    4.9997   -3.6130   23.0502 C   0  0  0  0  0  0  0  0  0  0  0  0
    4.2382   -4.4303   23.9058 C   0  0  0  0  0  0  0  0  0  0  0  0
    4.8542   -5.2401   24.8623 C   0  0  0  0  0  0  0  0  0  0  0  0
    6.2638   -5.3187   24.8943 C   0  0  0  0  0  0  0  0  0  0  0  0
    7.0100   -4.5370   23.9758 C   0  0  0  0  0  0  0  0  0  0  0  0
    8.3273   -4.8657   24.1086 N   0  0  0  0  0  0  0  0  0  0  0  0
    8.4608   -5.8020   25.1083 C   0  0  0  0  0  0  0  0  0  0  0  0
    7.2317   -6.0978   25.6301 C   0  0  0  0  0  0  0  0  0  0  0  0
    7.0382   -6.7928   26.4385 H   0  0  0  0  0  0  0  0  0  0  0  0
    9.4282   -6.2281   25.3275 H   0  0  0  0  0  0  0  0  0  0  0  0
    9.0295   -4.2810   23.6706 H   0  0  0  0  0  0  0  0  0  0  0  0
    4.2499   -5.7682   25.5947 H   0  0  0  0  0  0  0  0  0  0  0  0
    3.1538   -4.4105   23.8099 H   0  0  0  0  0  0  0  0  0  0  0  0
    4.4968   -2.9739   22.3243 H   0  0  0  0  0  0  0  0  0  0  0  0
    6.5717   -1.7793   21.5433 N   0  0  0  0  0  0  0  0  0  0  0  0
    7.2558   -0.7851   20.9851 C   0  0  0  0  0  0  0  0  0  0  0  0
    6.5373   -0.0433   19.9410 C   0  0  0  0  0  0  0  0  0  0  0  0
    5.3240    0.6226   20.1481 C   0  0  0  0  0  0  0  0  0  0  0  0
    4.7797    1.3263   19.0731 C   0  0  0  0  0  0  0  0  0  0  0  0
    5.4424    1.3005   17.8387 C   0  0  0  0  0  0  0  0  0  0  0  0
    6.5768    0.6192   17.6226 N   0  0  0  0  0  0  0  0  0  0  0  0
    7.0963   -0.0380   18.6624 C   0  0  0  0  0  0  0  0  0  0  0  0
    8.0176   -0.5872   18.4672 H   0  0  0  0  0  0  0  0  0  0  0  0
    5.0371    1.8310   16.9797 H   0  0  0  0  0  0  0  0  0  0  0  0
    3.8559    1.8873   19.1698 H   0  0  0  0  0  0  0  0  0  0  0  0
    4.8272    0.5835   21.1211 H   0  0  0  0  0  0  0  0  0  0  0  0
   10.1085   -1.1034   22.7192 H   0  0  0  0  0  0  0  0  0  0  0  0
   10.2831    0.8762   21.3227 H   0  0  0  0  0  0  0  0  0  0  0  0
    9.6083    0.5117   19.7339 H   0  0  0  0  0  0  0  0  0  0  0  0
    8.7583    1.6198   20.7853 H   0  0  0  0  0  0  0  0  0  0  0  0
  1  2  1  0
  2  3  2  0
  3  4  1  0
  4  5  2  0
  5  6  1  0
  6  7  2  0
  7  8  1  0
  8  9  2  0
  9 10  1  0
 10 11  2  0
 11 12  1  0
 12 13  1  0
 13 14  2  0
 14 15  1  0
 13 16  1  0
 12 17  1  0
  9 18  1  0
  8 19  1  0
  7 20  1  0
  5 21  1  0
 21 22  2  0
 22 23  1  0
 23 24  2  0
 24 25  1  0
 25 26  2  0
 26 27  1  0
 27 28  2  0
 28 29  1  0
 26 30  1  0
 25 31  1  0
 24 32  1  0
  3 33  1  0
  1 34  1  0
  1 35  1  0
  1 36  1  0
 22  2  1  0
 28 23  1  0
 11  6  1  0
 14 10  1  0
M  END
>  <cnnaffinity>  (1) 
-5.47474

>  <filename>  (1) 
Cc1cnc(-c2cccc3cc[nH]c23)nc1-c1cccnc1

$$$$
