
     RDKit          3D

 45 49  0  0  0  0  0  0  0  0999 V2000
   11.9299    0.8675   24.2630 C   0  0  0  0  0  0  0  0  0  0  0  0
   12.2211    1.7975   23.0984 C   0  0  0  0  0  0  0  0  0  0  0  0
   13.3540    2.6194   23.1686 C   0  0  0  0  0  0  0  0  0  0  0  0
   13.5872    3.6645   22.2719 C   0  0  0  0  0  0  0  0  0  0  0  0
   12.7258    3.8286   21.1797 C   0  0  0  0  0  0  0  0  0  0  0  0
   11.6637    2.9361   21.0094 C   0  0  0  0  0  0  0  0  0  0  0  0
   11.3487    2.0210   22.0141 C   0  0  0  0  0  0  0  0  0  0  0  0
   10.0078    1.5037   22.0380 N   0  0  0  0  0  0  0  0  0  0  0  0
    9.5582    0.5712   21.1759 N   0  0  0  0  0  0  0  0  0  0  0  0
    8.3431    0.3115   21.6263 C   0  0  0  0  0  0  0  0  0  0  0  0
    7.4244   -0.6695   20.9615 C   0  0  0  0  0  0  0  0  0  0  0  0
    6.6373   -0.0411   19.8222 C   0  0  0  0  0  0  0  0  0  0  0  0
    5.4345    0.6245   20.0836 C   0  0  0  0  0  0  0  0  0  0  0  0
    4.8009    1.3053   19.0442 C   0  0  0  0  0  0  0  0  0  0  0  0
    5.3973    1.3003   17.7806 C   0  0  0  0  0  0  0  0  0  0  0  0
    6.5412    0.6567   17.5020 N   0  0  0  0  0  0  0  0  0  0  0  0
    7.1368    0.0073   18.5094 C   0  0  0  0  0  0  0  0  0  0  0  0
    8.0743   -0.4976   18.2693 H   0  0  0  0  0  0  0  0  0  0  0  0
    4.9360    1.8356   16.9540 H   0  0  0  0  0  0  0  0  0  0  0  0
    3.8762    1.8462   19.2055 H   0  0  0  0  0  0  0  0  0  0  0  0
    5.0145    0.6143   21.0915 H   0  0  0  0  0  0  0  0  0  0  0  0
    6.7442   -1.0512   21.7312 H   0  0  0  0  0  0  0  0  0  0  0  0
    8.0331   -1.5048   20.6031 H   0  0  0  0  0  0  0  0  0  0  0  0
    7.9698    1.0395   22.6969 N   0  0  0  0  0  0  0  0  0  0  0  0
    9.0204    1.8307   22.9235 C   0  0  0  0  0  0  0  0  0  0  0  0
    9.1416    2.9430   23.9024 C   0  0  0  0  0  0  0  0  0  0  0  0
   10.0798    3.8859   23.7145 N   0  0  0  0  0  0  0  0  0  0  0  0
   10.1770    4.9245   24.5610 C   0  0  0  0  0  0  0  0  0  0  0  0
    9.3755    5.1177   25.6784 C   0  0  0  0  0  0  0  0  0  0  0  0
    8.3930    4.1274   25.8931 C   0  0  0  0  0  0  0  0  0  0  0  0
    8.2567    3.0384   25.0163 C   0  0  0  0  0  0  0  0  0  0  0  0
    7.1805    2.2846   25.5596 C   0  0  0  0  0  0  0  0  0  0  0  0
    6.6990    2.8394   26.6535 N   0  0  0  0  0  0  0  0  0  0  0  0
    7.4451    3.9541   26.8460 N   0  0  0  0  0  0  0  0  0  0  0  0
    7.2587    4.5697   27.6221 H   0  0  0  0  0  0  0  0  0  0  0  0
    6.7851    1.3736   25.1388 H   0  0  0  0  0  0  0  0  0  0  0  0
    9.5021    5.9811   26.3169 H   0  0  0  0  0  0  0  0  0  0  0  0
   10.9726    5.6279   24.3234 H   0  0  0  0  0  0  0  0  0  0  0  0
   11.0212    2.9973   20.1438 H   0  0  0  0  0  0  0  0  0  0  0  0
   12.8312    4.6617   20.4881 H   0  0  0  0  0  0  0  0  0  0  0  0
   14.4550    4.3056   22.4144 H   0  0  0  0  0  0  0  0  0  0  0  0
   14.0309    2.4223   23.9847 H   0  0  0  0  0  0  0  0  0  0  0  0
   11.4598    1.4460   25.0739 H   0  0  0  0  0  0  0  0  0  0  0  0
   11.2468    0.0576   23.9820 H   0  0  0  0  0  0  0  0  0  0  0  0
   12.8612    0.4468   24.6633 H   0  0  0  0  0  0  0  0  0  0  0  0
  1  2  1  0
  2  3  2  0
  3  4  1  0
  4  5  2  0
  5  6  1  0
  6  7  2  0
  7  8  1  0
  8  9  1  0
  9 10  2  0
 10 11  1  0
 11 12  1  0
 12 13  2  0
 13 14  1  0
 14 15  2  0
 15 16  1  0
 16 17  2  0
 17 18  1  0
 15 19  1  0
 14 20  1  0
 13 21  1  0
 11 22  1  0
 11 23  1  0
 10 24  1  0
 24 25  2  0
 25 26  1  0
 26 27  2  0
 27 28  1  0
 28 29  2  0
 29 30  1  0
 30 31  2  0
 31 32  1  0
 32 33  2  0
 33 34  1  0
 34 35  1  0
 32 36  1  0
 29 37  1  0
 28 38  1  0
  6 39  1  0
  5 40  1  0
  4 41  1  0
  3 42  1  0
  1 43  1  0
  1 44  1  0
  1 45  1  0
  7  2  1  0
 25  8  1  0
 31 26  1  0
 17 12  1  0
 34 30  1  0
M  END
>  <cnnaffinity>  (1) 
-6.33708

>  <filename>  (1) 
Cc1ccccc1-n1nc(Cc2cccnc2)nc1-c1nccc2[nH]ncc12

$$$$
