
     RDKit          3D

 36 38  0  0  0  0  0  0  0  0999 V2000
   10.1937    4.6457   23.0202 C   0  0  0  0  0  0  0  0  0  0  0  0
    9.4616    3.4534   22.4824 C   0  0  0  0  0  0  0  0  0  0  0  0
    9.9617    2.2187   22.1589 C   0  0  0  0  0  0  0  0  0  0  0  0
    8.8686    1.5178   21.6571 C   0  0  0  0  0  0  0  0  0  0  0  0
    8.9637    0.2689   21.0840 N   0  0  0  0  0  0  0  0  0  0  0  0
    7.5944   -0.6303   21.2155 S   0  0  0  0  0  0  0  0  0  0  0  0
    6.9810   -0.4464   22.5065 O   0  0  0  0  0  0  0  0  0  0  0  0
    8.1078   -1.9231   20.8031 O   0  0  0  0  0  0  0  0  0  0  0  0
    6.6414    0.0777   19.9827 C   0  0  0  0  0  0  0  0  0  0  0  0
    5.4149    0.7054   20.2118 C   0  0  0  0  0  0  0  0  0  0  0  0
    4.8241    1.3068   19.1048 C   0  0  0  0  0  0  0  0  0  0  0  0
    5.4811    1.2548   17.8694 C   0  0  0  0  0  0  0  0  0  0  0  0
    6.6623    0.6426   17.6815 N   0  0  0  0  0  0  0  0  0  0  0  0
    7.2358    0.0647   18.7331 C   0  0  0  0  0  0  0  0  0  0  0  0
    8.1965   -0.4154   18.5427 H   0  0  0  0  0  0  0  0  0  0  0  0
    5.0439    1.7311   16.9942 H   0  0  0  0  0  0  0  0  0  0  0  0
    3.8777    1.8332   19.1832 H   0  0  0  0  0  0  0  0  0  0  0  0
    4.9734    0.7660   21.2127 H   0  0  0  0  0  0  0  0  0  0  0  0
    9.5945   -0.3547   21.5502 H   0  0  0  0  0  0  0  0  0  0  0  0
    7.7487    2.1918   21.6837 N   0  0  0  0  0  0  0  0  0  0  0  0
    8.1274    3.4271   22.1542 N   0  0  0  0  0  0  0  0  0  0  0  0
    7.1708    4.4860   22.2101 C   0  0  0  0  0  0  0  0  0  0  0  0
    7.4456    5.7531   21.6655 C   0  0  0  0  0  0  0  0  0  0  0  0
    6.4873    6.7651   21.7467 C   0  0  0  0  0  0  0  0  0  0  0  0
    5.2574    6.5283   22.3669 C   0  0  0  0  0  0  0  0  0  0  0  0
    4.9803    5.2614   22.8910 C   0  0  0  0  0  0  0  0  0  0  0  0
    5.9255    4.2373   22.8017 C   0  0  0  0  0  0  0  0  0  0  0  0
    5.7132    3.2395   23.1718 H   0  0  0  0  0  0  0  0  0  0  0  0
    4.0194    5.0650   23.3575 H   0  0  0  0  0  0  0  0  0  0  0  0
    4.5133    7.3181   22.4242 H   0  0  0  0  0  0  0  0  0  0  0  0
    6.7027    7.7391   21.3175 H   0  0  0  0  0  0  0  0  0  0  0  0
    8.3898    5.9385   21.1626 H   0  0  0  0  0  0  0  0  0  0  0  0
   10.9695    1.8535   22.2243 H   0  0  0  0  0  0  0  0  0  0  0  0
    9.5777    5.2397   23.6963 H   0  0  0  0  0  0  0  0  0  0  0  0
   10.5220    5.3192   22.2223 H   0  0  0  0  0  0  0  0  0  0  0  0
   11.0948    4.3286   23.5504 H   0  0  0  0  0  0  0  0  0  0  0  0
  1  2  1  0
  2  3  2  0
  3  4  1  0
  4  5  1  0
  5  6  1  0
  6  7  2  0
  6  8  2  0
  6  9  1  0
  9 10  2  0
 10 11  1  0
 11 12  2  0
 12 13  1  0
 13 14  2  0
 14 15  1  0
 12 16  1  0
 11 17  1  0
 10 18  1  0
  5 19  1  0
  4 20  2  0
 20 21  1  0
 21 22  1  0
 22 23  2  0
 23 24  1  0
 24 25  2  0
 25 26  1  0
 26 27  2  0
 27 28  1  0
 26 29  1  0
 25 30  1  0
 24 31  1  0
 23 32  1  0
  3 33  1  0
  1 34  1  0
  1 35  1  0
  1 36  1  0
 21  2  1  0
 27 22  1  0
 14  9  1  0
M  END
>  <cnnaffinity>  (1) 
-4.97718

>  <filename>  (1) 
Cc1cc(NS(=O)(=O)c2cccnc2)nn1-c1ccccc1

$$$$
