
     RDKit          3D

 36 39  0  0  0  0  0  0  0  0999 V2000
    3.1445   -5.2776   25.8108 C   0  0  0  0  0  0  0  0  0  0  0  0
    4.4033   -4.5550   25.3993 C   0  0  0  0  0  0  0  0  0  0  0  0
    4.5182   -3.9348   24.1138 C   0  0  0  0  0  0  0  0  0  0  0  0
    5.5565   -3.2636   23.6880 N   0  0  0  0  0  0  0  0  0  0  0  0
    6.6366   -3.1370   24.5284 C   0  0  0  0  0  0  0  0  0  0  0  0
    7.8169   -2.4174   24.1023 C   0  0  0  0  0  0  0  0  0  0  0  0
    7.8860   -1.7520   22.7946 C   0  0  0  0  0  0  0  0  0  0  0  0
    6.8748   -1.1587   22.0797 C   0  0  0  0  0  0  0  0  0  0  0  0
    7.3848   -0.6740   20.9278 N   0  0  0  0  0  0  0  0  0  0  0  0
    6.6732    0.0084   19.9109 C   0  0  0  0  0  0  0  0  0  0  0  0
    5.4478    0.6440   20.1719 C   0  0  0  0  0  0  0  0  0  0  0  0
    4.8181    1.3016   19.1123 C   0  0  0  0  0  0  0  0  0  0  0  0
    5.4071    1.2864   17.8443 C   0  0  0  0  0  0  0  0  0  0  0  0
    6.5697    0.6624   17.5925 N   0  0  0  0  0  0  0  0  0  0  0  0
    7.1880    0.0532   18.6059 C   0  0  0  0  0  0  0  0  0  0  0  0
    8.1311   -0.4282   18.3734 H   0  0  0  0  0  0  0  0  0  0  0  0
    4.9294    1.7791   16.9985 H   0  0  0  0  0  0  0  0  0  0  0  0
    3.8862    1.8324   19.2636 H   0  0  0  0  0  0  0  0  0  0  0  0
    5.0088    0.6465   21.1728 H   0  0  0  0  0  0  0  0  0  0  0  0
    8.7051   -0.9397   20.8280 N   0  0  0  0  0  0  0  0  0  0  0  0
    9.0139   -1.5605   21.9506 C   0  0  0  0  0  0  0  0  0  0  0  0
   10.0245   -1.9024   22.1250 H   0  0  0  0  0  0  0  0  0  0  0  0
    5.8295   -1.0900   22.3019 H   0  0  0  0  0  0  0  0  0  0  0  0
    8.9013   -2.3433   24.9655 C   0  0  0  0  0  0  0  0  0  0  0  0
    8.8800   -2.9309   26.2507 C   0  0  0  0  0  0  0  0  0  0  0  0
    7.7699   -3.6113   26.6868 C   0  0  0  0  0  0  0  0  0  0  0  0
    6.6361   -3.7313   25.8390 C   0  0  0  0  0  0  0  0  0  0  0  0
    5.4732   -4.4420   26.2487 C   0  0  0  0  0  0  0  0  0  0  0  0
    5.4527   -4.8913   27.2465 H   0  0  0  0  0  0  0  0  0  0  0  0
    7.7473   -4.0698   27.6765 H   0  0  0  0  0  0  0  0  0  0  0  0
    9.7500   -2.8429   26.8971 H   0  0  0  0  0  0  0  0  0  0  0  0
    9.7839   -1.7966   24.6409 H   0  0  0  0  0  0  0  0  0  0  0  0
    3.6826   -4.0059   23.4218 H   0  0  0  0  0  0  0  0  0  0  0  0
    3.3725   -6.0865   26.5129 H   0  0  0  0  0  0  0  0  0  0  0  0
    2.6183   -5.7119   24.9560 H   0  0  0  0  0  0  0  0  0  0  0  0
    2.4478   -4.5989   26.3155 H   0  0  0  0  0  0  0  0  0  0  0  0
  1  2  1  0
  2  3  2  0
  3  4  1  0
  4  5  2  0
  5  6  1  0
  6  7  1  0
  7  8  2  0
  8  9  1  0
  9 10  1  0
 10 11  2  0
 11 12  1  0
 12 13  2  0
 13 14  1  0
 14 15  2  0
 15 16  1  0
 13 17  1  0
 12 18  1  0
 11 19  1  0
  9 20  1  0
 20 21  2  0
 21 22  1  0
  8 23  1  0
  6 24  2  0
 24 25  1  0
 25 26  2  0
 26 27  1  0
 27 28  2  0
 28 29  1  0
 26 30  1  0
 25 31  1  0
 24 32  1  0
  3 33  1  0
  1 34  1  0
  1 35  1  0
  1 36  1  0
 28  2  1  0
 27  5  1  0
 21  7  1  0
 15 10  1  0
M  END
>  <cnnaffinity>  (1) 
-5.67348

>  <filename>  (1) 
Cc1cnc2c(-c3cnn(-c4cccnc4)c3)cccc2c1

$$$$
