
     RDKit          3D

 38 40  0  0  0  0  0  0  0  0999 V2000
    4.8913    1.7928   16.9867 H   0  0  0  0  0  0  0  0  0  0  0  0
    5.4026    1.2722   17.7933 C   0  0  0  0  0  0  0  0  0  0  0  0
    6.5706    0.6871   17.4835 N   0  0  0  0  0  0  0  0  0  0  0  0
    7.2438    0.0719   18.4657 C   0  0  0  0  0  0  0  0  0  0  0  0
    8.1919   -0.3867   18.1963 H   0  0  0  0  0  0  0  0  0  0  0  0
    6.7777   -0.0025   19.7989 C   0  0  0  0  0  0  0  0  0  0  0  0
    7.5222   -0.6044   20.8715 N   0  0  0  0  0  0  0  0  0  0  0  0
    8.8605   -0.3345   21.1560 C   0  0  0  0  0  0  0  0  0  0  0  0
    9.6261    0.2427   20.4303 O   0  0  0  0  0  0  0  0  0  0  0  0
    9.1134   -0.8672   22.4470 N   0  0  0  0  0  0  0  0  0  0  0  0
   10.0652   -0.5479   23.4649 N   0  0  0  0  0  0  0  0  0  0  0  0
   10.9715   -0.2412   23.1309 H   0  0  0  0  0  0  0  0  0  0  0  0
    9.9098    0.6694   24.6731 S   0  0  0  0  0  0  0  0  0  0  0  0
   11.2375    1.2507   24.5954 O   0  0  0  0  0  0  0  0  0  0  0  0
    9.3508    0.0927   25.8700 O   0  0  0  0  0  0  0  0  0  0  0  0
    8.7375    1.7583   23.9110 C   0  0  0  0  0  0  0  0  0  0  0  0
    9.1732    2.5405   22.8337 C   0  0  0  0  0  0  0  0  0  0  0  0
   10.2195    2.5971   22.5265 H   0  0  0  0  0  0  0  0  0  0  0  0
    8.2276    3.2550   22.1113 C   0  0  0  0  0  0  0  0  0  0  0  0
    8.5478    3.9037   21.3025 H   0  0  0  0  0  0  0  0  0  0  0  0
    6.8645    3.2134   22.4282 C   0  0  0  0  0  0  0  0  0  0  0  0
    5.9035    4.0074   21.5890 C   0  0  0  0  0  0  0  0  0  0  0  0
    5.0178    4.3086   22.1511 H   0  0  0  0  0  0  0  0  0  0  0  0
    6.3852    4.9048   21.1852 H   0  0  0  0  0  0  0  0  0  0  0  0
    5.5560    3.4242   20.7329 H   0  0  0  0  0  0  0  0  0  0  0  0
    6.4579    2.4544   23.5386 C   0  0  0  0  0  0  0  0  0  0  0  0
    5.4091    2.4378   23.8280 H   0  0  0  0  0  0  0  0  0  0  0  0
    7.3885    1.7346   24.2944 C   0  0  0  0  0  0  0  0  0  0  0  0
    7.0563    1.1722   25.1685 H   0  0  0  0  0  0  0  0  0  0  0  0
    7.9597   -1.5613   22.9640 C   0  0  0  0  0  0  0  0  0  0  0  0
    8.1696   -2.6015   23.2081 H   0  0  0  0  0  0  0  0  0  0  0  0
    7.5594   -1.0663   23.8563 H   0  0  0  0  0  0  0  0  0  0  0  0
    6.9943   -1.4686   21.8261 C   0  0  0  0  0  0  0  0  0  0  0  0
    5.9673   -2.0868   21.7226 O   0  0  0  0  0  0  0  0  0  0  0  0
    5.5383    0.5680   20.0909 C   0  0  0  0  0  0  0  0  0  0  0  0
    5.1434    0.4922   21.1030 H   0  0  0  0  0  0  0  0  0  0  0  0
    4.8494    1.2373   19.0770 C   0  0  0  0  0  0  0  0  0  0  0  0
    3.9159    1.7561   19.2752 H   0  0  0  0  0  0  0  0  0  0  0  0
  1  2  1  0
  2  3  2  0
  3  4  1  0
  4  5  1  0
  4  6  2  0
  6  7  1  0
  7  8  1  0
  8  9  2  0
  8 10  1  0
 10 11  1  0
 11 12  1  0
 11 13  1  0
 13 14  2  0
 13 15  2  0
 13 16  1  0
 16 17  2  0
 17 18  1  0
 17 19  1  0
 19 20  1  0
 19 21  2  0
 21 22  1  0
 22 23  1  0
 22 24  1  0
 22 25  1  0
 21 26  1  0
 26 27  1  0
 26 28  2  0
 28 29  1  0
 10 30  1  0
 30 31  1  0
 30 32  1  0
 30 33  1  0
 33 34  2  0
  6 35  1  0
 35 36  1  0
 35 37  2  0
 37 38  1  0
 37  2  1  0
 33  7  1  0
 28 16  1  0
M  END
>  <cnnaffinity>  (1) 
-5.2865

>  <filename>  (1) 
Cc1ccc(S(=O)(=O)NN2CC(=O)N(c3cccnc3)C2=O)cc1

$$$$
