
     RDKit          3D

 45 49  0  0  0  0  0  0  0  0999 V2000
   11.9247    0.8892   24.2697 C   0  0  0  0  0  0  0  0  0  0  0  0
   12.2202    1.8143   23.1019 C   0  0  0  0  0  0  0  0  0  0  0  0
   13.3448    2.6460   23.1773 C   0  0  0  0  0  0  0  0  0  0  0  0
   13.5765    3.6838   22.2703 C   0  0  0  0  0  0  0  0  0  0  0  0
   12.7199    3.8355   21.1726 C   0  0  0  0  0  0  0  0  0  0  0  0
   11.6630    2.9381   21.0016 C   0  0  0  0  0  0  0  0  0  0  0  0
   11.3536    2.0212   22.0077 C   0  0  0  0  0  0  0  0  0  0  0  0
   10.0173    1.4957   22.0272 N   0  0  0  0  0  0  0  0  0  0  0  0
    9.5748    0.5565   21.1660 N   0  0  0  0  0  0  0  0  0  0  0  0
    8.3548    0.3015   21.6066 C   0  0  0  0  0  0  0  0  0  0  0  0
    7.4279   -0.6789   20.9491 C   0  0  0  0  0  0  0  0  0  0  0  0
    6.6350   -0.0483   19.8140 C   0  0  0  0  0  0  0  0  0  0  0  0
    5.4333    0.6187   20.0777 C   0  0  0  0  0  0  0  0  0  0  0  0
    4.8000    1.3041   19.0406 C   0  0  0  0  0  0  0  0  0  0  0  0
    5.3960    1.3017   17.7764 C   0  0  0  0  0  0  0  0  0  0  0  0
    6.5396    0.6580   17.4959 N   0  0  0  0  0  0  0  0  0  0  0  0
    7.1343    0.0053   18.5014 C   0  0  0  0  0  0  0  0  0  0  0  0
    8.0732   -0.4967   18.2610 H   0  0  0  0  0  0  0  0  0  0  0  0
    4.9355    1.8391   16.9508 H   0  0  0  0  0  0  0  0  0  0  0  0
    3.8765    1.8474   19.2036 H   0  0  0  0  0  0  0  0  0  0  0  0
    5.0165    0.6087   21.0872 H   0  0  0  0  0  0  0  0  0  0  0  0
    6.7501   -1.0578   21.7234 H   0  0  0  0  0  0  0  0  0  0  0  0
    8.0301   -1.5176   20.5889 H   0  0  0  0  0  0  0  0  0  0  0  0
    7.9732    1.0383   22.6686 N   0  0  0  0  0  0  0  0  0  0  0  0
    9.0204    1.8263   22.8988 C   0  0  0  0  0  0  0  0  0  0  0  0
    9.1334    2.9458   23.8878 C   0  0  0  0  0  0  0  0  0  0  0  0
   10.0533    3.9220   23.7114 N   0  0  0  0  0  0  0  0  0  0  0  0
   10.1091    4.9256   24.5964 C   0  0  0  0  0  0  0  0  0  0  0  0
    9.3591    5.0872   25.6944 N   0  0  0  0  0  0  0  0  0  0  0  0
    8.4566    4.1150   25.8364 C   0  0  0  0  0  0  0  0  0  0  0  0
    8.2601    2.9981   24.9914 C   0  0  0  0  0  0  0  0  0  0  0  0
    7.1756    2.2347   25.5628 C   0  0  0  0  0  0  0  0  0  0  0  0
    6.7736    2.8993   26.6832 C   0  0  0  0  0  0  0  0  0  0  0  0
    7.5547    4.0313   26.8422 N   0  0  0  0  0  0  0  0  0  0  0  0
    7.5057    4.7533   27.5375 H   0  0  0  0  0  0  0  0  0  0  0  0
    5.9829    2.6518   27.3858 H   0  0  0  0  0  0  0  0  0  0  0  0
    6.7688    1.3171   25.1555 H   0  0  0  0  0  0  0  0  0  0  0  0
   10.8700    5.6820   24.4082 H   0  0  0  0  0  0  0  0  0  0  0  0
   11.0270    2.9929   20.1296 H   0  0  0  0  0  0  0  0  0  0  0  0
   12.8299    4.6651   20.4811 H   0  0  0  0  0  0  0  0  0  0  0  0
   14.4284    4.3419   22.4133 H   0  0  0  0  0  0  0  0  0  0  0  0
   14.0104    2.4815   24.0093 H   0  0  0  0  0  0  0  0  0  0  0  0
   12.8570    0.4742   24.6746 H   0  0  0  0  0  0  0  0  0  0  0  0
   11.4453    1.4689   25.0759 H   0  0  0  0  0  0  0  0  0  0  0  0
   11.2509    0.0708   23.9884 H   0  0  0  0  0  0  0  0  0  0  0  0
  1  2  1  0
  2  3  2  0
  3  4  1  0
  4  5  2  0
  5  6  1  0
  6  7  2  0
  7  8  1  0
  8  9  1  0
  9 10  2  0
 10 11  1  0
 11 12  1  0
 12 13  2  0
 13 14  1  0
 14 15  2  0
 15 16  1  0
 16 17  2  0
 17 18  1  0
 15 19  1  0
 14 20  1  0
 13 21  1  0
 11 22  1  0
 11 23  1  0
 10 24  1  0
 24 25  2  0
 25 26  1  0
 26 27  2  0
 27 28  1  0
 28 29  2  0
 29 30  1  0
 30 31  2  0
 31 32  1  0
 32 33  2  0
 33 34  1  0
 34 35  1  0
 33 36  1  0
 32 37  1  0
 28 38  1  0
  6 39  1  0
  5 40  1  0
  4 41  1  0
  3 42  1  0
  1 43  1  0
  1 44  1  0
  1 45  1  0
  7  2  1  0
 25  8  1  0
 31 26  1  0
 17 12  1  0
 34 30  1  0
M  END
>  <cnnaffinity>  (1) 
-6.27382

>  <filename>  (1) 
Cc1ccccc1-n1nc(Cc2cccnc2)nc1-c1ncnc2[nH]ccc12

$$$$
