
     RDKit          3D

 42 45  0  0  0  0  0  0  0  0999 V2000
    6.8004    3.7154   24.1028 C   0  0  0  0  0  0  0  0  0  0  0  0
    7.6969    2.5888   24.5676 C   0  0  0  0  0  0  0  0  0  0  0  0
    8.9850    2.8485   25.1017 C   0  0  0  0  0  0  0  0  0  0  0  0
    9.7985    1.8250   25.5890 C   0  0  0  0  0  0  0  0  0  0  0  0
    9.3436    0.5024   25.5168 C   0  0  0  0  0  0  0  0  0  0  0  0
    9.9551   -0.6806   25.9032 N   0  0  0  0  0  0  0  0  0  0  0  0
    9.1352   -1.6124   25.4984 C   0  0  0  0  0  0  0  0  0  0  0  0
    8.0107   -1.1454   24.8530 N   0  0  0  0  0  0  0  0  0  0  0  0
    7.1416   -1.8988   23.9504 C   0  0  0  0  0  0  0  0  0  0  0  0
    7.3326   -1.5284   22.5009 C   0  0  0  0  0  0  0  0  0  0  0  0
    6.4117   -0.9489   21.7630 N   0  0  0  0  0  0  0  0  0  0  0  0
    7.0652   -0.6504   20.6167 C   0  0  0  0  0  0  0  0  0  0  0  0
    6.4361    0.0821   19.5267 C   0  0  0  0  0  0  0  0  0  0  0  0
    5.2242    0.7726   19.6876 C   0  0  0  0  0  0  0  0  0  0  0  0
    4.7352    1.4934   18.6041 C   0  0  0  0  0  0  0  0  0  0  0  0
    5.4502    1.4753   17.4019 C   0  0  0  0  0  0  0  0  0  0  0  0
    6.5988    0.8001   17.2357 N   0  0  0  0  0  0  0  0  0  0  0  0
    7.0834    0.1355   18.2868 C   0  0  0  0  0  0  0  0  0  0  0  0
    8.0340   -0.3796   18.1444 H   0  0  0  0  0  0  0  0  0  0  0  0
    5.0934    2.0241   16.5341 H   0  0  0  0  0  0  0  0  0  0  0  0
    3.8256    2.0800   18.6734 H   0  0  0  0  0  0  0  0  0  0  0  0
    4.6924    0.7465   20.6407 H   0  0  0  0  0  0  0  0  0  0  0  0
    8.3283   -1.0393   20.5946 N   0  0  0  0  0  0  0  0  0  0  0  0
    8.5010   -1.5970   21.8180 N   0  0  0  0  0  0  0  0  0  0  0  0
    9.8059   -2.1668   22.1099 C   0  0  0  0  0  0  0  0  0  0  0  0
   10.8877   -1.1192   22.3370 C   0  0  0  0  0  0  0  0  0  0  0  0
   12.1093   -1.7685   22.2235 F   0  0  0  0  0  0  0  0  0  0  0  0
   10.8228   -0.3329   21.5770 H   0  0  0  0  0  0  0  0  0  0  0  0
   10.8379   -0.6680   23.3351 H   0  0  0  0  0  0  0  0  0  0  0  0
    9.7461   -2.8313   22.9731 H   0  0  0  0  0  0  0  0  0  0  0  0
   10.1036   -2.7585   21.2435 H   0  0  0  0  0  0  0  0  0  0  0  0
    6.0974   -1.6923   24.2023 H   0  0  0  0  0  0  0  0  0  0  0  0
    7.3037   -2.9732   24.0916 H   0  0  0  0  0  0  0  0  0  0  0  0
    8.1147    0.2390   24.8878 C   0  0  0  0  0  0  0  0  0  0  0  0
    7.2579    1.2667   24.4616 C   0  0  0  0  0  0  0  0  0  0  0  0
    6.2784    1.0436   24.0419 H   0  0  0  0  0  0  0  0  0  0  0  0
    9.2949   -2.6792   25.6334 H   0  0  0  0  0  0  0  0  0  0  0  0
   10.7864    1.9682   26.0006 H   0  0  0  0  0  0  0  0  0  0  0  0
    9.3550    3.8720   25.1131 H   0  0  0  0  0  0  0  0  0  0  0  0
    6.7744    4.5413   24.8244 H   0  0  0  0  0  0  0  0  0  0  0  0
    7.1410    4.1308   23.1452 H   0  0  0  0  0  0  0  0  0  0  0  0
    5.7724    3.3602   23.9682 H   0  0  0  0  0  0  0  0  0  0  0  0
  1  2  1  0
  2  3  2  0
  3  4  1  0
  4  5  2  0
  5  6  1  0
  6  7  2  0
  7  8  1  0
  8  9  1  0
  9 10  1  0
 10 11  2  0
 11 12  1  0
 12 13  1  0
 13 14  2  0
 14 15  1  0
 15 16  2  0
 16 17  1  0
 17 18  2  0
 18 19  1  0
 16 20  1  0
 15 21  1  0
 14 22  1  0
 12 23  2  0
 23 24  1  0
 24 25  1  0
 25 26  1  0
 26 27  1  0
 26 28  1  0
 26 29  1  0
 25 30  1  0
 25 31  1  0
  9 32  1  0
  9 33  1  0
  8 34  1  0
 34 35  2  0
 35 36  1  0
  7 37  1  0
  4 38  1  0
  3 39  1  0
  1 40  1  0
  1 41  1  0
  1 42  1  0
 35  2  1  0
 34  5  1  0
 24 10  1  0
 18 13  1  0
M  END
>  <cnnaffinity>  (1) 
-5.75735

>  <filename>  (1) 
Cc1ccc2ncn(Cc3nc(-c4cccnc4)nn3CCF)c2c1

$$$$
