
     RDKit          3D

 48 52  0  0  0  0  0  0  0  0999 V2000
   10.0079    1.6389   25.3336 C   0  0  0  0  0  0  0  0  0  0  0  0
    9.1100    2.8206   25.0237 C   0  0  0  0  0  0  0  0  0  0  0  0
    8.7954    3.7487   26.0268 C   0  0  0  0  0  0  0  0  0  0  0  0
    8.1386    4.9491   25.7448 C   0  0  0  0  0  0  0  0  0  0  0  0
    7.6770    5.1799   24.4500 C   0  0  0  0  0  0  0  0  0  0  0  0
    7.7985    4.2017   23.4590 C   0  0  0  0  0  0  0  0  0  0  0  0
    7.0771    4.3792   22.1525 C   0  0  0  0  0  0  0  0  0  0  0  0
    6.2675    3.6428   22.0631 H   0  0  0  0  0  0  0  0  0  0  0  0
    7.7800    4.2062   21.3452 H   0  0  0  0  0  0  0  0  0  0  0  0
    6.6789    5.3947   22.0605 H   0  0  0  0  0  0  0  0  0  0  0  0
    8.5743    3.0513   23.7372 C   0  0  0  0  0  0  0  0  0  0  0  0
    8.7512    2.0645   22.6967 N   0  0  0  0  0  0  0  0  0  0  0  0
    7.6813    1.3238   22.3148 N   0  0  0  0  0  0  0  0  0  0  0  0
    8.2154    0.3688   21.5788 C   0  0  0  0  0  0  0  0  0  0  0  0
    7.3454   -0.6616   20.9157 C   0  0  0  0  0  0  0  0  0  0  0  0
    6.5451   -0.0808   19.7533 C   0  0  0  0  0  0  0  0  0  0  0  0
    5.3448    0.6059   19.9844 C   0  0  0  0  0  0  0  0  0  0  0  0
    4.7548    1.3091   18.9306 C   0  0  0  0  0  0  0  0  0  0  0  0
    5.3798    1.2878   17.6810 C   0  0  0  0  0  0  0  0  0  0  0  0
    6.5028    0.5986   17.4242 N   0  0  0  0  0  0  0  0  0  0  0  0
    7.0590   -0.0647   18.4443 C   0  0  0  0  0  0  0  0  0  0  0  0
    7.9809   -0.6022   18.2162 H   0  0  0  0  0  0  0  0  0  0  0  0
    4.9667    1.8513   16.8476 H   0  0  0  0  0  0  0  0  0  0  0  0
    3.8527    1.8949   19.0705 H   0  0  0  0  0  0  0  0  0  0  0  0
    4.9098    0.6155   20.9871 H   0  0  0  0  0  0  0  0  0  0  0  0
    6.6677   -1.0469   21.6860 H   0  0  0  0  0  0  0  0  0  0  0  0
    7.9894   -1.4848   20.5934 H   0  0  0  0  0  0  0  0  0  0  0  0
    9.5623    0.4249   21.4644 N   0  0  0  0  0  0  0  0  0  0  0  0
    9.8797    1.5145   22.1525 C   0  0  0  0  0  0  0  0  0  0  0  0
   11.2297    2.1064   22.3388 C   0  0  0  0  0  0  0  0  0  0  0  0
   11.4417    3.4832   22.5012 C   0  0  0  0  0  0  0  0  0  0  0  0
   12.7281    3.9889   22.7855 C   0  0  0  0  0  0  0  0  0  0  0  0
   13.8328    3.2521   22.9126 N   0  0  0  0  0  0  0  0  0  0  0  0
   13.6167    1.9411   22.7408 C   0  0  0  0  0  0  0  0  0  0  0  0
   12.3916    1.2977   22.4540 C   0  0  0  0  0  0  0  0  0  0  0  0
   12.7428   -0.0890   22.4474 C   0  0  0  0  0  0  0  0  0  0  0  0
   14.0269   -0.2764   22.6844 N   0  0  0  0  0  0  0  0  0  0  0  0
   14.5437    0.9643   22.8350 N   0  0  0  0  0  0  0  0  0  0  0  0
   15.4941    1.1421   23.1130 H   0  0  0  0  0  0  0  0  0  0  0  0
   12.0772   -0.9241   22.2721 H   0  0  0  0  0  0  0  0  0  0  0  0
   12.8404    5.0586   22.9330 H   0  0  0  0  0  0  0  0  0  0  0  0
   10.6127    4.1783   22.4360 H   0  0  0  0  0  0  0  0  0  0  0  0
    7.1754    6.1136   24.1929 H   0  0  0  0  0  0  0  0  0  0  0  0
    7.9889    5.6961   26.5218 H   0  0  0  0  0  0  0  0  0  0  0  0
    9.0517    3.4904   27.0447 H   0  0  0  0  0  0  0  0  0  0  0  0
   10.0435    1.4295   26.4012 H   0  0  0  0  0  0  0  0  0  0  0  0
    9.6697    0.7324   24.8244 H   0  0  0  0  0  0  0  0  0  0  0  0
   11.0358    1.8331   25.0078 H   0  0  0  0  0  0  0  0  0  0  0  0
  1  2  1  0
  2  3  2  0
  3  4  1  0
  4  5  2  0
  5  6  1  0
  6  7  1  0
  7  8  1  0
  7  9  1  0
  7 10  1  0
  6 11  2  0
 11 12  1  0
 12 13  1  0
 13 14  2  0
 14 15  1  0
 15 16  1  0
 16 17  2  0
 17 18  1  0
 18 19  2  0
 19 20  1  0
 20 21  2  0
 21 22  1  0
 19 23  1  0
 18 24  1  0
 17 25  1  0
 15 26  1  0
 15 27  1  0
 14 28  1  0
 28 29  2  0
 29 30  1  0
 30 31  2  0
 31 32  1  0
 32 33  2  0
 33 34  1  0
 34 35  2  0
 35 36  1  0
 36 37  2  0
 37 38  1  0
 38 39  1  0
 36 40  1  0
 32 41  1  0
 31 42  1  0
  5 43  1  0
  4 44  1  0
  3 45  1  0
  1 46  1  0
  1 47  1  0
  1 48  1  0
 11  2  1  0
 29 12  1  0
 35 30  1  0
 21 16  1  0
 38 34  1  0
M  END
>  <cnnaffinity>  (1) 
-6.88612

>  <filename>  (1) 
Cc1cccc(C)c1-n1nc(Cc2cccnc2)nc1-c1ccnc2[nH]ncc12

$$$$
