
     RDKit          3D

 27 28  0  0  0  0  0  0  0  0999 V2000
    7.4187   -2.2102   19.7287 H   0  0  0  0  0  0  0  0  0  0  0  0
    7.2884   -2.1497   20.6834 O   0  0  0  0  0  0  0  0  0  0  0  0
    7.4187   -0.7787   21.0179 C   0  0  2  0  0  0  0  0  0  0  0  0
    6.8874   -0.6619   21.9714 H   0  0  0  0  0  0  0  0  0  0  0  0
    6.7127    0.0400   19.9485 C   0  0  0  0  0  0  0  0  0  0  0  0
    7.2621    0.0633   18.6577 C   0  0  0  0  0  0  0  0  0  0  0  0
    8.2216   -0.4208   18.4714 H   0  0  0  0  0  0  0  0  0  0  0  0
    6.6984    0.6588   17.6020 N   0  0  0  0  0  0  0  0  0  0  0  0
    5.5211    1.2719   17.8003 C   0  0  0  0  0  0  0  0  0  0  0  0
    5.0824    1.7498   16.9267 H   0  0  0  0  0  0  0  0  0  0  0  0
    4.8772    1.3118   19.0415 C   0  0  0  0  0  0  0  0  0  0  0  0
    3.9323    1.8370   19.1288 H   0  0  0  0  0  0  0  0  0  0  0  0
    5.4821    0.6892   20.1366 C   0  0  0  0  0  0  0  0  0  0  0  0
    4.9931    0.6998   21.1138 H   0  0  0  0  0  0  0  0  0  0  0  0
    8.8747   -0.3288   21.2696 C   0  0  0  0  0  0  0  0  0  0  0  0
    9.0907    1.0043   21.6649 C   0  0  0  0  0  0  0  0  0  0  0  0
    8.2673    1.7007   21.7635 H   0  0  0  0  0  0  0  0  0  0  0  0
   10.3872    1.4481   21.9099 C   0  0  0  0  0  0  0  0  0  0  0  0
   10.5592    2.4773   22.2090 H   0  0  0  0  0  0  0  0  0  0  0  0
   11.4767    0.6784   21.7823 N   0  0  0  0  0  0  0  0  0  0  0  0
   11.2934   -0.5987   21.4261 C   0  0  0  0  0  0  0  0  0  0  0  0
   12.5293   -1.4536   21.3287 C   0  0  0  0  0  0  0  0  0  0  0  0
   13.3677   -0.9626   21.8292 H   0  0  0  0  0  0  0  0  0  0  0  0
   12.8157   -1.6319   20.2845 H   0  0  0  0  0  0  0  0  0  0  0  0
   12.3477   -2.4172   21.8137 H   0  0  0  0  0  0  0  0  0  0  0  0
   10.0174   -1.1409   21.1769 C   0  0  0  0  0  0  0  0  0  0  0  0
    9.9512   -2.2073   20.9794 H   0  0  0  0  0  0  0  0  0  0  0  0
  1  2  1  0
  2  3  1  0
  3  4  1  1
  3  5  1  0
  5  6  2  0
  6  7  1  0
  6  8  1  0
  8  9  2  0
  9 10  1  0
  9 11  1  0
 11 12  1  0
 11 13  2  0
 13 14  1  0
  3 15  1  0
 15 16  2  0
 16 17  1  0
 16 18  1  0
 18 19  1  0
 18 20  2  0
 20 21  1  0
 21 22  1  0
 22 23  1  0
 22 24  1  0
 22 25  1  0
 21 26  2  0
 26 27  1  0
 13  5  1  0
 26 15  1  0
M  END
>  <cnnaffinity>  (1) 
-4.59767

>  <filename>  (1) 
Cc1cc([C@H](O)c2cccnc2)ccn1

$$$$
