
     RDKit          3D

 31 33  0  0  0  0  0  0  0  0999 V2000
    4.9230    1.7961   16.9926 H   0  0  0  0  0  0  0  0  0  0  0  0
    5.3921    1.2923   17.8321 C   0  0  0  0  0  0  0  0  0  0  0  0
    6.5479    0.6660   17.5611 N   0  0  0  0  0  0  0  0  0  0  0  0
    7.1702    0.0551   18.5731 C   0  0  0  0  0  0  0  0  0  0  0  0
    8.1265   -0.4158   18.3588 H   0  0  0  0  0  0  0  0  0  0  0  0
    6.6660    0.0117   19.8894 C   0  0  0  0  0  0  0  0  0  0  0  0
    7.3655   -0.6580   20.9268 N   0  0  0  0  0  0  0  0  0  0  0  0
    6.7705   -1.4334   21.9175 C   0  0  0  0  0  0  0  0  0  0  0  0
    5.7031   -1.5981   21.9325 H   0  0  0  0  0  0  0  0  0  0  0  0
    7.7346   -1.9277   22.7279 C   0  0  0  0  0  0  0  0  0  0  0  0
    7.6140   -2.7837   23.9204 C   0  0  0  0  0  0  0  0  0  0  0  0
    6.3822   -2.8869   24.5889 C   0  0  0  0  0  0  0  0  0  0  0  0
    5.5221   -2.3238   24.2537 H   0  0  0  0  0  0  0  0  0  0  0  0
    6.2808   -3.7136   25.7023 C   0  0  0  0  0  0  0  0  0  0  0  0
    5.3306   -3.8073   26.2245 H   0  0  0  0  0  0  0  0  0  0  0  0
    7.2968   -4.4346   26.1967 N   0  0  0  0  0  0  0  0  0  0  0  0
    8.4743   -4.3419   25.5699 C   0  0  0  0  0  0  0  0  0  0  0  0
    9.6220   -5.1476   26.1107 C   0  0  0  0  0  0  0  0  0  0  0  0
    9.3377   -5.6424   27.0415 H   0  0  0  0  0  0  0  0  0  0  0  0
   10.4908   -4.5041   26.2884 H   0  0  0  0  0  0  0  0  0  0  0  0
    9.9281   -5.9044   25.3791 H   0  0  0  0  0  0  0  0  0  0  0  0
    8.6703   -3.5396   24.4379 C   0  0  0  0  0  0  0  0  0  0  0  0
    9.6511   -3.5306   23.9765 H   0  0  0  0  0  0  0  0  0  0  0  0
    8.9381   -1.4617   22.2066 N   0  0  0  0  0  0  0  0  0  0  0  0
    9.8781   -1.5408   22.5405 H   0  0  0  0  0  0  0  0  0  0  0  0
    8.7583   -0.6631   21.1174 C   0  0  0  0  0  0  0  0  0  0  0  0
    9.6429   -0.1135   20.4966 O   0  0  0  0  0  0  0  0  0  0  0  0
    5.4469    0.6469   20.1562 C   0  0  0  0  0  0  0  0  0  0  0  0
    5.0346    0.6386   21.1687 H   0  0  0  0  0  0  0  0  0  0  0  0
    4.8087    1.3081   19.1034 C   0  0  0  0  0  0  0  0  0  0  0  0
    3.8791    1.8389   19.2586 H   0  0  0  0  0  0  0  0  0  0  0  0
  1  2  1  0
  2  3  2  0
  3  4  1  0
  4  5  1  0
  4  6  2  0
  6  7  1  0
  7  8  1  0
  8  9  1  0
  8 10  2  0
 10 11  1  0
 11 12  2  0
 12 13  1  0
 12 14  1  0
 14 15  1  0
 14 16  2  0
 16 17  1  0
 17 18  1  0
 18 19  1  0
 18 20  1  0
 18 21  1  0
 17 22  2  0
 22 23  1  0
 10 24  1  0
 24 25  1  0
 24 26  1  0
 26 27  2  0
  6 28  1  0
 28 29  1  0
 28 30  2  0
 30 31  1  0
 30  2  1  0
 26  7  1  0
 22 11  1  0
M  END
>  <cnnaffinity>  (1) 
-5.48849

>  <filename>  (1) 
Cc1cc(-c2cn(-c3cccnc3)c(=O)[nH]2)ccn1

$$$$
