
     RDKit          3D

 24 25  0  0  0  0  0  0  0  0999 V2000
    4.9092    1.7795   16.9981 H   0  0  0  0  0  0  0  0  0  0  0  0
    5.3981    1.2942   17.8387 C   0  0  0  0  0  0  0  0  0  0  0  0
    6.5633    0.6824   17.5720 N   0  0  0  0  0  0  0  0  0  0  0  0
    7.1693    0.0498   18.5827 C   0  0  0  0  0  0  0  0  0  0  0  0
    8.1264   -0.4271   18.3790 H   0  0  0  0  0  0  0  0  0  0  0  0
    6.6410   -0.0217   19.8858 C   0  0  0  0  0  0  0  0  0  0  0  0
    7.5672   -0.8086   21.1956 S   0  0  0  0  0  0  0  0  0  0  0  0
    8.5102    0.6323   21.6791 C   0  0  0  0  0  0  0  0  0  0  0  0
    9.6638    0.8516   21.0436 N   0  0  0  0  0  0  0  0  0  0  0  0
   10.3405    1.9512   21.4008 C   0  0  0  0  0  0  0  0  0  0  0  0
   11.2879    2.1146   20.8968 H   0  0  0  0  0  0  0  0  0  0  0  0
    9.8984    2.8625   22.3544 C   0  0  0  0  0  0  0  0  0  0  0  0
   10.4839    3.7407   22.5839 H   0  0  0  0  0  0  0  0  0  0  0  0
    8.6750    2.6395   22.9883 C   0  0  0  0  0  0  0  0  0  0  0  0
    8.1300    3.6044   23.9913 C   0  0  0  0  0  0  0  0  0  0  0  0
    8.9371    4.1182   24.5157 H   0  0  0  0  0  0  0  0  0  0  0  0
    7.5072    3.0957   24.7301 H   0  0  0  0  0  0  0  0  0  0  0  0
    7.5181    4.3559   23.4857 H   0  0  0  0  0  0  0  0  0  0  0  0
    7.9631    1.4986   22.6342 C   0  0  0  0  0  0  0  0  0  0  0  0
    6.9948    1.2918   23.0787 H   0  0  0  0  0  0  0  0  0  0  0  0
    5.4362    0.6424   20.1530 C   0  0  0  0  0  0  0  0  0  0  0  0
    5.0095    0.6272   21.1610 H   0  0  0  0  0  0  0  0  0  0  0  0
    4.8018    1.3121   19.1057 C   0  0  0  0  0  0  0  0  0  0  0  0
    3.8706    1.8466   19.2636 H   0  0  0  0  0  0  0  0  0  0  0  0
  1  2  1  0
  2  3  2  0
  3  4  1  0
  4  5  1  0
  4  6  2  0
  6  7  1  0
  7  8  1  0
  8  9  2  0
  9 10  1  0
 10 11  1  0
 10 12  2  0
 12 13  1  0
 12 14  1  0
 14 15  1  0
 15 16  1  0
 15 17  1  0
 15 18  1  0
 14 19  2  0
 19 20  1  0
  6 21  1  0
 21 22  1  0
 21 23  2  0
 23 24  1  0
 23  2  1  0
 19  8  1  0
M  END
>  <cnnaffinity>  (1) 
-4.36218

>  <filename>  (1) 
Cc1ccnc(Sc2cccnc2)c1

$$$$
