
     RDKit          3D

 31 33  0  0  0  0  0  0  0  0999 V2000
    4.9323    1.8004   16.9940 H   0  0  0  0  0  0  0  0  0  0  0  0
    5.3959    1.2910   17.8317 C   0  0  0  0  0  0  0  0  0  0  0  0
    6.5501    0.6607   17.5620 N   0  0  0  0  0  0  0  0  0  0  0  0
    7.1710    0.0455   18.5744 C   0  0  0  0  0  0  0  0  0  0  0  0
    8.1245   -0.4322   18.3537 H   0  0  0  0  0  0  0  0  0  0  0  0
    6.6516    0.0048   19.8841 C   0  0  0  0  0  0  0  0  0  0  0  0
    7.3351   -0.6740   20.9382 N   0  0  0  0  0  0  0  0  0  0  0  0
    6.7382   -1.5961   21.7872 C   0  0  0  0  0  0  0  0  0  0  0  0
    5.6895   -1.8324   21.6848 H   0  0  0  0  0  0  0  0  0  0  0  0
    7.6795   -2.0566   22.6463 C   0  0  0  0  0  0  0  0  0  0  0  0
    7.5606   -3.0079   23.7648 C   0  0  0  0  0  0  0  0  0  0  0  0
    6.2942   -3.2890   24.3050 C   0  0  0  0  0  0  0  0  0  0  0  0
    5.4135   -2.7890   23.9283 H   0  0  0  0  0  0  0  0  0  0  0  0
    6.1828   -4.2093   25.3430 C   0  0  0  0  0  0  0  0  0  0  0  0
    5.2080   -4.4487   25.7647 H   0  0  0  0  0  0  0  0  0  0  0  0
    7.2286   -4.8561   25.8787 N   0  0  0  0  0  0  0  0  0  0  0  0
    8.4424   -4.5859   25.3813 C   0  0  0  0  0  0  0  0  0  0  0  0
    9.6188   -5.3060   25.9783 C   0  0  0  0  0  0  0  0  0  0  0  0
    9.3061   -5.9003   26.8418 H   0  0  0  0  0  0  0  0  0  0  0  0
   10.3865   -4.5860   26.2881 H   0  0  0  0  0  0  0  0  0  0  0  0
   10.0716   -5.9682   25.2292 H   0  0  0  0  0  0  0  0  0  0  0  0
    8.6485   -3.6789   24.3313 C   0  0  0  0  0  0  0  0  0  0  0  0
    9.6631   -3.5322   23.9773 H   0  0  0  0  0  0  0  0  0  0  0  0
    8.8513   -1.3993   22.2895 N   0  0  0  0  0  0  0  0  0  0  0  0
    9.7560   -1.3857   22.7268 H   0  0  0  0  0  0  0  0  0  0  0  0
    8.6554   -0.5029   21.2951 C   0  0  0  0  0  0  0  0  0  0  0  0
    9.8129    0.5624   20.7760 S   0  0  0  0  0  0  0  0  0  0  0  0
    5.4404    0.6489   20.1515 C   0  0  0  0  0  0  0  0  0  0  0  0
    5.0403    0.6338   21.1692 H   0  0  0  0  0  0  0  0  0  0  0  0
    4.8035    1.3128   19.1005 C   0  0  0  0  0  0  0  0  0  0  0  0
    3.8725    1.8474   19.2557 H   0  0  0  0  0  0  0  0  0  0  0  0
  1  2  1  0
  2  3  2  0
  3  4  1  0
  4  5  1  0
  4  6  2  0
  6  7  1  0
  7  8  1  0
  8  9  1  0
  8 10  2  0
 10 11  1  0
 11 12  2  0
 12 13  1  0
 12 14  1  0
 14 15  1  0
 14 16  2  0
 16 17  1  0
 17 18  1  0
 18 19  1  0
 18 20  1  0
 18 21  1  0
 17 22  2  0
 22 23  1  0
 10 24  1  0
 24 25  1  0
 24 26  1  0
 26 27  2  0
  6 28  1  0
 28 29  1  0
 28 30  2  0
 30 31  1  0
 30  2  1  0
 26  7  1  0
 22 11  1  0
M  END
>  <cnnaffinity>  (1) 
-5.63386

>  <filename>  (1) 
Cc1cc(-c2cn(-c3cccnc3)c(=S)[nH]2)ccn1

$$$$
