
     RDKit          3D

 34 36  0  0  0  0  0  0  0  0999 V2000
    4.9256    1.8347   16.9540 H   0  0  0  0  0  0  0  0  0  0  0  0
    5.3969    1.3229   17.7917 C   0  0  0  0  0  0  0  0  0  0  0  0
    6.5628    0.7057   17.5332 N   0  0  0  0  0  0  0  0  0  0  0  0
    7.1647    0.0745   18.5479 C   0  0  0  0  0  0  0  0  0  0  0  0
    8.1201   -0.3956   18.3021 H   0  0  0  0  0  0  0  0  0  0  0  0
    6.6485    0.0039   19.8586 C   0  0  0  0  0  0  0  0  0  0  0  0
    7.3698   -0.6953   21.0031 C   0  0  2  0  0  0  0  0  0  0  0  0
    8.2080   -1.2487   20.5638 H   0  0  0  0  0  0  0  0  0  0  0  0
    6.5253   -1.7511   21.7402 C   0  0  0  0  0  0  0  0  0  0  0  0
    5.8955   -2.6781   21.2831 O   0  0  0  0  0  0  0  0  0  0  0  0
    6.6022   -1.4847   23.0814 N   0  0  0  0  0  0  0  0  0  0  0  0
    5.8006   -1.8807   23.5572 H   0  0  0  0  0  0  0  0  0  0  0  0
    7.0770   -0.1521   23.4026 C   0  0  0  0  0  0  0  0  0  0  0  0
    7.7200   -0.1692   24.2965 H   0  0  0  0  0  0  0  0  0  0  0  0
    6.2448    0.5420   23.6200 H   0  0  0  0  0  0  0  0  0  0  0  0
    7.8562    0.2753   22.1333 C   0  0  1  0  0  0  0  0  0  0  0  0
    7.6303    1.3131   21.8906 H   0  0  0  0  0  0  0  0  0  0  0  0
    9.3550    0.2348   22.3354 C   0  0  0  0  0  0  0  0  0  0  0  0
   10.0372    1.3808   22.1876 N   0  0  0  0  0  0  0  0  0  0  0  0
   11.3661    1.3329   22.3142 C   0  0  0  0  0  0  0  0  0  0  0  0
   11.8827    2.2825   22.1835 H   0  0  0  0  0  0  0  0  0  0  0  0
   12.1085    0.1708   22.5877 C   0  0  0  0  0  0  0  0  0  0  0  0
   13.6071    0.2390   22.7619 C   0  0  0  0  0  0  0  0  0  0  0  0
   14.1557   -0.0266   21.8510 H   0  0  0  0  0  0  0  0  0  0  0  0
   13.9541   -0.4324   23.5469 H   0  0  0  0  0  0  0  0  0  0  0  0
   13.9213    1.2451   23.0587 H   0  0  0  0  0  0  0  0  0  0  0  0
   11.3767   -1.0201   22.7082 C   0  0  0  0  0  0  0  0  0  0  0  0
   11.8964   -1.9687   22.8226 H   0  0  0  0  0  0  0  0  0  0  0  0
    9.9859   -0.9752   22.6379 C   0  0  0  0  0  0  0  0  0  0  0  0
    9.3709   -1.8400   22.8641 H   0  0  0  0  0  0  0  0  0  0  0  0
    5.4321    0.6529   20.0982 C   0  0  0  0  0  0  0  0  0  0  0  0
    5.0091    0.6524   21.1042 H   0  0  0  0  0  0  0  0  0  0  0  0
    4.7972    1.3199   19.0523 C   0  0  0  0  0  0  0  0  0  0  0  0
    3.8656    1.8495   19.2066 H   0  0  0  0  0  0  0  0  0  0  0  0
  1  2  1  0
  2  3  2  0
  3  4  1  0
  4  5  1  0
  4  6  2  0
  6  7  1  0
  7  8  1  6
  7  9  1  0
  9 10  2  0
  9 11  1  0
 11 12  1  0
 11 13  1  0
 13 14  1  0
 13 15  1  0
 13 16  1  0
 16 17  1  6
 16 18  1  0
 18 19  2  0
 19 20  1  0
 20 21  1  0
 20 22  2  0
 22 23  1  0
 23 24  1  0
 23 25  1  0
 23 26  1  0
 22 27  1  0
 27 28  1  0
 27 29  2  0
 29 30  1  0
  6 31  1  0
 31 32  1  0
 31 33  2  0
 33 34  1  0
 33  2  1  0
 16  7  1  0
 29 18  1  0
M  END
>  <cnnaffinity>  (1) 
-5.29936

>  <filename>  (1) 
Cc1ccc([C@@H]2CNC(=O)[C@H]2c2cccnc2)nc1

$$$$
