
     RDKit          3D

 45 49  0  0  0  0  0  0  0  0999 V2000
   11.9080    1.1609   24.4020 C   0  0  0  0  0  0  0  0  0  0  0  0
   12.1135    2.0502   23.1885 C   0  0  0  0  0  0  0  0  0  0  0  0
   13.1974    2.9386   23.1991 C   0  0  0  0  0  0  0  0  0  0  0  0
   13.3903    3.8419   22.1679 C   0  0  0  0  0  0  0  0  0  0  0  0
   14.3653    4.7611   22.2853 F   0  0  0  0  0  0  0  0  0  0  0  0
   12.6208    3.7890   21.0061 C   0  0  0  0  0  0  0  0  0  0  0  0
   11.6482    2.7994   20.9126 C   0  0  0  0  0  0  0  0  0  0  0  0
   11.2680    2.0824   22.0496 C   0  0  0  0  0  0  0  0  0  0  0  0
    9.9368    1.5473   22.0938 N   0  0  0  0  0  0  0  0  0  0  0  0
    9.4725    0.6549   21.1869 N   0  0  0  0  0  0  0  0  0  0  0  0
    8.3053    0.2997   21.7062 C   0  0  0  0  0  0  0  0  0  0  0  0
    7.3997   -0.6724   20.9967 C   0  0  0  0  0  0  0  0  0  0  0  0
    6.6301   -0.0348   19.8445 C   0  0  0  0  0  0  0  0  0  0  0  0
    5.4274    0.6344   20.0959 C   0  0  0  0  0  0  0  0  0  0  0  0
    4.7986    1.3120   19.0516 C   0  0  0  0  0  0  0  0  0  0  0  0
    5.3970    1.3013   17.7891 C   0  0  0  0  0  0  0  0  0  0  0  0
    6.5416    0.6558   17.5198 N   0  0  0  0  0  0  0  0  0  0  0  0
    7.1335    0.0087   18.5316 C   0  0  0  0  0  0  0  0  0  0  0  0
    8.0716   -0.4945   18.2907 H   0  0  0  0  0  0  0  0  0  0  0  0
    4.9382    1.8325   16.9575 H   0  0  0  0  0  0  0  0  0  0  0  0
    3.8738    1.8539   19.2066 H   0  0  0  0  0  0  0  0  0  0  0  0
    4.9970    0.6269   21.0994 H   0  0  0  0  0  0  0  0  0  0  0  0
    6.7047   -1.0818   21.7381 H   0  0  0  0  0  0  0  0  0  0  0  0
    8.0189   -1.5008   20.6376 H   0  0  0  0  0  0  0  0  0  0  0  0
    7.9802    0.9175   22.8726 N   0  0  0  0  0  0  0  0  0  0  0  0
    8.9871    1.7519   23.0532 C   0  0  0  0  0  0  0  0  0  0  0  0
    9.0717    2.7974   24.0603 C   0  0  0  0  0  0  0  0  0  0  0  0
    8.6943    2.5665   25.3768 C   0  0  0  0  0  0  0  0  0  0  0  0
    8.8256    3.4773   26.3653 N   0  0  0  0  0  0  0  0  0  0  0  0
    9.3022    4.6993   26.0860 C   0  0  0  0  0  0  0  0  0  0  0  0
    9.6616    5.0828   24.7780 C   0  0  0  0  0  0  0  0  0  0  0  0
    9.5172    4.1026   23.7881 C   0  0  0  0  0  0  0  0  0  0  0  0
    9.8585    4.7190   22.6381 N   0  0  0  0  0  0  0  0  0  0  0  0
   10.2201    5.9976   22.9411 C   0  0  0  0  0  0  0  0  0  0  0  0
   10.1240    6.2731   24.2118 N   0  0  0  0  0  0  0  0  0  0  0  0
   10.5243    6.6918   22.1663 H   0  0  0  0  0  0  0  0  0  0  0  0
    9.8961    4.2799   21.7342 H   0  0  0  0  0  0  0  0  0  0  0  0
    9.4053    5.4065   26.9066 H   0  0  0  0  0  0  0  0  0  0  0  0
    8.2979    1.5941   25.6696 H   0  0  0  0  0  0  0  0  0  0  0  0
   11.1509    2.6046   19.9744 H   0  0  0  0  0  0  0  0  0  0  0  0
   12.7530    4.5321   20.2295 H   0  0  0  0  0  0  0  0  0  0  0  0
   13.9136    2.9248   24.0039 H   0  0  0  0  0  0  0  0  0  0  0  0
   12.8425    0.6383   24.6484 H   0  0  0  0  0  0  0  0  0  0  0  0
   11.1083    0.4258   24.2502 H   0  0  0  0  0  0  0  0  0  0  0  0
   11.6467    1.7806   25.2744 H   0  0  0  0  0  0  0  0  0  0  0  0
  1  2  1  0
  2  3  2  0
  3  4  1  0
  4  5  1  0
  4  6  2  0
  6  7  1  0
  7  8  2  0
  8  9  1  0
  9 10  1  0
 10 11  2  0
 11 12  1  0
 12 13  1  0
 13 14  2  0
 14 15  1  0
 15 16  2  0
 16 17  1  0
 17 18  2  0
 18 19  1  0
 16 20  1  0
 15 21  1  0
 14 22  1  0
 12 23  1  0
 12 24  1  0
 11 25  1  0
 25 26  2  0
 26 27  1  0
 27 28  2  0
 28 29  1  0
 29 30  2  0
 30 31  1  0
 31 32  2  0
 32 33  1  0
 33 34  1  0
 34 35  2  0
 34 36  1  0
 33 37  1  0
 30 38  1  0
 28 39  1  0
  7 40  1  0
  6 41  1  0
  3 42  1  0
  1 43  1  0
  1 44  1  0
  1 45  1  0
  8  2  1  0
 26  9  1  0
 32 27  1  0
 18 13  1  0
 35 31  1  0
M  END
>  <cnnaffinity>  (1) 
-6.55527

>  <filename>  (1) 
Cc1cc(F)ccc1-n1nc(Cc2cccnc2)nc1-c1cncc2nc[nH]c12

$$$$
