
     RDKit          3D

 45 49  0  0  0  0  0  0  0  0999 V2000
   11.9054    0.8587   24.3182 C   0  0  0  0  0  0  0  0  0  0  0  0
   12.1522    1.8569   23.2032 C   0  0  0  0  0  0  0  0  0  0  0  0
   13.2490    2.7222   23.2815 C   0  0  0  0  0  0  0  0  0  0  0  0
   13.5041    3.6695   22.3037 C   0  0  0  0  0  0  0  0  0  0  0  0
   14.5514    4.4993   22.4548 F   0  0  0  0  0  0  0  0  0  0  0  0
   12.7229    3.7488   21.1556 C   0  0  0  0  0  0  0  0  0  0  0  0
   11.6478    2.8686   21.0353 C   0  0  0  0  0  0  0  0  0  0  0  0
   11.3108    1.9999   22.0769 C   0  0  0  0  0  0  0  0  0  0  0  0
    9.9939    1.4341   22.0805 N   0  0  0  0  0  0  0  0  0  0  0  0
    9.5954    0.4880   21.2001 N   0  0  0  0  0  0  0  0  0  0  0  0
    8.3483    0.2578   21.5679 C   0  0  0  0  0  0  0  0  0  0  0  0
    7.4414   -0.7152   20.8670 C   0  0  0  0  0  0  0  0  0  0  0  0
    6.6386   -0.0700   19.7424 C   0  0  0  0  0  0  0  0  0  0  0  0
    5.4493    0.6174   20.0233 C   0  0  0  0  0  0  0  0  0  0  0  0
    4.8093    1.3146   18.9962 C   0  0  0  0  0  0  0  0  0  0  0  0
    5.3837    1.3048   17.7226 C   0  0  0  0  0  0  0  0  0  0  0  0
    6.5102    0.6395   17.4259 N   0  0  0  0  0  0  0  0  0  0  0  0
    7.1095   -0.0277   18.4194 C   0  0  0  0  0  0  0  0  0  0  0  0
    8.0303   -0.5494   18.1533 H   0  0  0  0  0  0  0  0  0  0  0  0
    4.9259    1.8574   16.9036 H   0  0  0  0  0  0  0  0  0  0  0  0
    3.8967    1.8742   19.1686 H   0  0  0  0  0  0  0  0  0  0  0  0
    5.0504    0.6211   21.0401 H   0  0  0  0  0  0  0  0  0  0  0  0
    6.7641   -1.1009   21.6358 H   0  0  0  0  0  0  0  0  0  0  0  0
    8.0413   -1.5555   20.5000 H   0  0  0  0  0  0  0  0  0  0  0  0
    7.9113    1.0100   22.6030 N   0  0  0  0  0  0  0  0  0  0  0  0
    8.9601    1.7575   22.9135 C   0  0  0  0  0  0  0  0  0  0  0  0
    9.0828    2.8528   23.9081 C   0  0  0  0  0  0  0  0  0  0  0  0
    9.7880    4.0696   23.6805 C   0  0  0  0  0  0  0  0  0  0  0  0
    9.8881    5.0545   24.6738 C   0  0  0  0  0  0  0  0  0  0  0  0
    9.3327    4.9754   25.8973 N   0  0  0  0  0  0  0  0  0  0  0  0
    8.6634    3.8412   26.0723 C   0  0  0  0  0  0  0  0  0  0  0  0
    8.4919    2.7489   25.1870 C   0  0  0  0  0  0  0  0  0  0  0  0
    7.7679    1.7451   25.8117 N   0  0  0  0  0  0  0  0  0  0  0  0
    7.4919    2.2285   26.9883 C   0  0  0  0  0  0  0  0  0  0  0  0
    7.9837    3.4850   27.1970 N   0  0  0  0  0  0  0  0  0  0  0  0
    7.9868    4.0492   28.0239 H   0  0  0  0  0  0  0  0  0  0  0  0
    6.9164    1.7016   27.7389 H   0  0  0  0  0  0  0  0  0  0  0  0
   10.4467    5.9652   24.4683 H   0  0  0  0  0  0  0  0  0  0  0  0
   10.2505    4.2909   22.7266 H   0  0  0  0  0  0  0  0  0  0  0  0
   11.0133    2.8933   20.1587 H   0  0  0  0  0  0  0  0  0  0  0  0
   12.9802    4.4713   20.3934 H   0  0  0  0  0  0  0  0  0  0  0  0
   13.9424    2.6291   24.0965 H   0  0  0  0  0  0  0  0  0  0  0  0
   11.2261    0.0631   23.9913 H   0  0  0  0  0  0  0  0  0  0  0  0
   12.8506    0.4091   24.6370 H   0  0  0  0  0  0  0  0  0  0  0  0
   11.4671    1.3407   25.2009 H   0  0  0  0  0  0  0  0  0  0  0  0
  1  2  1  0
  2  3  2  0
  3  4  1  0
  4  5  1  0
  4  6  2  0
  6  7  1  0
  7  8  2  0
  8  9  1  0
  9 10  1  0
 10 11  2  0
 11 12  1  0
 12 13  1  0
 13 14  2  0
 14 15  1  0
 15 16  2  0
 16 17  1  0
 17 18  2  0
 18 19  1  0
 16 20  1  0
 15 21  1  0
 14 22  1  0
 12 23  1  0
 12 24  1  0
 11 25  1  0
 25 26  2  0
 26 27  1  0
 27 28  2  0
 28 29  1  0
 29 30  2  0
 30 31  1  0
 31 32  2  0
 32 33  1  0
 33 34  2  0
 34 35  1  0
 35 36  1  0
 34 37  1  0
 29 38  1  0
 28 39  1  0
  7 40  1  0
  6 41  1  0
  3 42  1  0
  1 43  1  0
  1 44  1  0
  1 45  1  0
  8  2  1  0
 26  9  1  0
 32 27  1  0
 18 13  1  0
 35 31  1  0
M  END
>  <cnnaffinity>  (1) 
-6.37371

>  <filename>  (1) 
Cc1cc(F)ccc1-n1nc(Cc2cccnc2)nc1-c1ccnc2[nH]cnc12

$$$$
