
     RDKit          3D

 29 30  0  0  0  0  0  0  0  0999 V2000
    4.9971    1.7523   16.9127 H   0  0  0  0  0  0  0  0  0  0  0  0
    5.4434    1.2973   17.7910 C   0  0  0  0  0  0  0  0  0  0  0  0
    6.6195    0.6573   17.6691 N   0  0  0  0  0  0  0  0  0  0  0  0
    7.1514    0.1183   18.7828 C   0  0  0  0  0  0  0  0  0  0  0  0
    8.0890   -0.4197   18.6976 H   0  0  0  0  0  0  0  0  0  0  0  0
    6.5426    0.1938   20.0501 C   0  0  0  0  0  0  0  0  0  0  0  0
    7.1957   -0.4398   21.2517 C   0  0  2  0  0  0  0  0  0  0  0  0
    6.6272   -0.2424   22.1706 H   0  0  0  0  0  0  0  0  0  0  0  0
    9.0349    0.2812   21.4275 Br  0  0  0  0  0  0  0  0  0  0  0  0
    7.2689   -1.9319   21.0031 C   0  0  0  0  0  0  0  0  0  0  0  0
    7.9469   -2.0822   20.1680 H   0  0  0  0  0  0  0  0  0  0  0  0
    6.2801   -2.3103   20.7271 H   0  0  0  0  0  0  0  0  0  0  0  0
    7.7511   -2.6694   22.2117 C   0  0  0  0  0  0  0  0  0  0  0  0
    6.8424   -3.1081   23.0947 N   0  0  0  0  0  0  0  0  0  0  0  0
    7.2618   -3.7410   24.2037 C   0  0  0  0  0  0  0  0  0  0  0  0
    6.2562   -4.1172   25.2602 C   0  0  0  0  0  0  0  0  0  0  0  0
    5.2439   -3.8012   24.9834 H   0  0  0  0  0  0  0  0  0  0  0  0
    6.5112   -3.6332   26.2102 H   0  0  0  0  0  0  0  0  0  0  0  0
    6.2551   -5.2009   25.4041 H   0  0  0  0  0  0  0  0  0  0  0  0
    8.6221   -4.0133   24.4140 C   0  0  0  0  0  0  0  0  0  0  0  0
    8.9217   -4.5569   25.3036 H   0  0  0  0  0  0  0  0  0  0  0  0
    9.5788   -3.5827   23.4970 C   0  0  0  0  0  0  0  0  0  0  0  0
   10.6360   -3.8145   23.6369 H   0  0  0  0  0  0  0  0  0  0  0  0
    9.1280   -2.8616   22.3936 C   0  0  0  0  0  0  0  0  0  0  0  0
    9.8260   -2.4556   21.6677 H   0  0  0  0  0  0  0  0  0  0  0  0
    5.3121    0.8329   20.1618 C   0  0  0  0  0  0  0  0  0  0  0  0
    4.7989    0.8900   21.1206 H   0  0  0  0  0  0  0  0  0  0  0  0
    4.7610    1.3889   19.0092 C   0  0  0  0  0  0  0  0  0  0  0  0
    3.8093    1.9029   19.0472 H   0  0  0  0  0  0  0  0  0  0  0  0
  1  2  1  0
  2  3  2  0
  3  4  1  0
  4  5  1  0
  4  6  2  0
  6  7  1  0
  7  8  1  1
  7  9  1  0
  7 10  1  0
 10 11  1  0
 10 12  1  0
 10 13  1  0
 13 14  2  0
 14 15  1  0
 15 16  1  0
 16 17  1  0
 16 18  1  0
 16 19  1  0
 15 20  2  0
 20 21  1  0
 20 22  1  0
 22 23  1  0
 22 24  2  0
 24 25  1  0
  6 26  1  0
 26 27  1  0
 26 28  2  0
 28 29  1  0
 28  2  1  0
 24 13  1  0
M  END
>  <cnnaffinity>  (1) 
-5.03994

>  <filename>  (1) 
Cc1cccc(C[C@@H](Br)c2cccnc2)n1

$$$$
