
     RDKit          3D

 28 29  0  0  0  0  0  0  0  0999 V2000
    5.1429    1.7918   16.8794 H   0  0  0  0  0  0  0  0  0  0  0  0
    5.5123    1.2900   17.7723 C   0  0  0  0  0  0  0  0  0  0  0  0
    6.6593    0.6041   17.6363 N   0  0  0  0  0  0  0  0  0  0  0  0
    7.1520   -0.0062   18.7251 C   0  0  0  0  0  0  0  0  0  0  0  0
    8.1055   -0.5201   18.6205 H   0  0  0  0  0  0  0  0  0  0  0  0
    6.5250   -0.0064   19.9945 C   0  0  0  0  0  0  0  0  0  0  0  0
    7.0343   -0.7109   21.1168 N   0  0  0  0  0  0  0  0  0  0  0  0
    6.4628   -0.5795   21.9607 H   0  0  0  0  0  0  0  0  0  0  0  0
    8.6294   -1.1842   21.3055 S   0  0  0  0  0  0  0  0  0  0  0  0
    8.5695   -2.8873   21.2187 O   0  0  0  0  0  0  0  0  0  0  0  0
    7.5693   -3.6504   21.9909 C   0  0  0  0  0  0  0  0  0  0  0  0
    7.4324   -3.4944   23.3617 C   0  0  0  0  0  0  0  0  0  0  0  0
    8.0366   -2.7445   23.8575 H   0  0  0  0  0  0  0  0  0  0  0  0
    6.5197   -4.3316   24.0286 C   0  0  0  0  0  0  0  0  0  0  0  0
    6.3634   -4.2188   25.1001 H   0  0  0  0  0  0  0  0  0  0  0  0
    5.8262   -5.3218   23.3273 C   0  0  0  0  0  0  0  0  0  0  0  0
    5.1378   -5.9749   23.8632 H   0  0  0  0  0  0  0  0  0  0  0  0
    6.0177   -5.4869   21.9447 C   0  0  0  0  0  0  0  0  0  0  0  0
    5.3584   -6.6068   21.1898 C   0  0  0  0  0  0  0  0  0  0  0  0
    4.3042   -6.7116   21.4496 H   0  0  0  0  0  0  0  0  0  0  0  0
    5.8401   -7.5621   21.4134 H   0  0  0  0  0  0  0  0  0  0  0  0
    5.4276   -6.4430   20.1131 H   0  0  0  0  0  0  0  0  0  0  0  0
    6.8744   -4.6031   21.2751 C   0  0  0  0  0  0  0  0  0  0  0  0
    6.9869   -4.6280   20.1984 H   0  0  0  0  0  0  0  0  0  0  0  0
    5.3220    0.7094   20.1106 C   0  0  0  0  0  0  0  0  0  0  0  0
    4.8013    0.7501   21.0681 H   0  0  0  0  0  0  0  0  0  0  0  0
    4.8210    1.3747   18.9877 C   0  0  0  0  0  0  0  0  0  0  0  0
    3.9114    1.9655   19.0315 H   0  0  0  0  0  0  0  0  0  0  0  0
  1  2  1  0
  2  3  2  0
  3  4  1  0
  4  5  1  0
  4  6  2  0
  6  7  1  0
  7  8  1  0
  7  9  1  0
  9 10  1  0
 10 11  1  0
 11 12  2  0
 12 13  1  0
 12 14  1  0
 14 15  1  0
 14 16  2  0
 16 17  1  0
 16 18  1  0
 18 19  1  0
 19 20  1  0
 19 21  1  0
 19 22  1  0
 18 23  2  0
 23 24  1  0
  6 25  1  0
 25 26  1  0
 25 27  2  0
 27 28  1  0
 27  2  1  0
 23 11  1  0
M  END
>  <cnnaffinity>  (1) 
-4.60908

>  <filename>  (1) 
Cc1cccc(OSNc2cccnc2)c1

$$$$
