
     RDKit          3D

 34 36  0  0  0  0  0  0  0  0999 V2000
    5.3350   -2.5528   20.9655 H   0  0  0  0  0  0  0  0  0  0  0  0
    5.8735   -2.4400   21.9067 C   0  0  0  0  0  0  0  0  0  0  0  0
    7.0113   -1.7224   21.9694 C   0  0  0  0  0  0  0  0  0  0  0  0
    7.5104   -0.7319   20.9686 C   0  0  0  0  0  0  0  0  0  0  0  0
    6.6825   -0.0470   19.9381 C   0  0  0  0  0  0  0  0  0  0  0  0
    7.2203    0.0372   18.6455 C   0  0  0  0  0  0  0  0  0  0  0  0
    8.1867   -0.4140   18.4275 H   0  0  0  0  0  0  0  0  0  0  0  0
    6.6221    0.6439   17.6190 N   0  0  0  0  0  0  0  0  0  0  0  0
    5.4513    1.2543   17.8647 C   0  0  0  0  0  0  0  0  0  0  0  0
    4.9859    1.7604   17.0193 H   0  0  0  0  0  0  0  0  0  0  0  0
    4.8343    1.2489   19.1176 C   0  0  0  0  0  0  0  0  0  0  0  0
    3.9044    1.7925   19.2461 H   0  0  0  0  0  0  0  0  0  0  0  0
    5.4480    0.5807   20.1801 C   0  0  0  0  0  0  0  0  0  0  0  0
    4.9986    0.5881   21.1751 H   0  0  0  0  0  0  0  0  0  0  0  0
    8.7707   -0.5105   21.0530 N   0  0  0  0  0  0  0  0  0  0  0  0
    9.3346   -1.2724   22.1735 C   0  0  0  0  0  0  0  0  0  0  0  0
    9.9563   -0.6282   22.8003 H   0  0  0  0  0  0  0  0  0  0  0  0
    9.9917   -2.0564   21.7736 H   0  0  0  0  0  0  0  0  0  0  0  0
    8.1485   -1.8618   22.9741 C   0  0  0  0  0  0  0  0  0  0  0  0
    7.9593   -1.2397   23.8594 H   0  0  0  0  0  0  0  0  0  0  0  0
    8.3243   -2.8863   23.3134 H   0  0  0  0  0  0  0  0  0  0  0  0
    5.2556   -3.2012   23.0121 C   0  0  0  0  0  0  0  0  0  0  0  0
    4.4664   -4.2163   22.5952 N   0  0  0  0  0  0  0  0  0  0  0  0
    3.8673   -4.9773   23.5122 C   0  0  0  0  0  0  0  0  0  0  0  0
    3.0305   -6.1199   22.9957 C   0  0  0  0  0  0  0  0  0  0  0  0
    1.9845   -5.9853   23.2941 H   0  0  0  0  0  0  0  0  0  0  0  0
    3.3674   -7.0801   23.4065 H   0  0  0  0  0  0  0  0  0  0  0  0
    3.0798   -6.1596   21.9037 H   0  0  0  0  0  0  0  0  0  0  0  0
    3.9701   -4.7219   24.8958 C   0  0  0  0  0  0  0  0  0  0  0  0
    3.4437   -5.3626   25.5914 H   0  0  0  0  0  0  0  0  0  0  0  0
    4.7300   -3.6404   25.3356 C   0  0  0  0  0  0  0  0  0  0  0  0
    4.7964   -3.3968   26.3994 H   0  0  0  0  0  0  0  0  0  0  0  0
    5.3978   -2.8786   24.3772 C   0  0  0  0  0  0  0  0  0  0  0  0
    5.9865   -2.0177   24.6646 H   0  0  0  0  0  0  0  0  0  0  0  0
  1  2  1  0
  2  3  2  3
  3  4  1  0
  4  5  1  0
  5  6  2  0
  6  7  1  0
  6  8  1  0
  8  9  2  0
  9 10  1  0
  9 11  1  0
 11 12  1  0
 11 13  2  0
 13 14  1  0
  4 15  2  0
 15 16  1  0
 16 17  1  0
 16 18  1  0
 16 19  1  0
 19 20  1  0
 19 21  1  0
  2 22  1  0
 22 23  2  0
 23 24  1  0
 24 25  1  0
 25 26  1  0
 25 27  1  0
 25 28  1  0
 24 29  2  0
 29 30  1  0
 29 31  1  0
 31 32  1  0
 31 33  2  0
 33 34  1  0
 19  3  1  0
 33 22  1  0
 13  5  1  0
M  END
>  <cnnaffinity>  (1) 
-5.15553

>  <filename>  (1) 
Cc1cccc(C=C2CCN=C2c2cccnc2)n1

$$$$
