
     RDKit          3D

 40 43  0  0  0  0  0  0  0  0999 V2000
   14.4482    4.0456   22.5211 C   0  0  0  0  0  0  0  0  0  0  0  0
   13.2554    3.2449   22.9385 C   0  0  0  0  0  0  0  0  0  0  0  0
   12.0884    3.7471   23.4210 C   0  0  0  0  0  0  0  0  0  0  0  0
   11.0810    2.7489   23.5284 C   0  0  0  0  0  0  0  0  0  0  0  0
   11.5404    1.5235   23.1602 C   0  0  0  0  0  0  0  0  0  0  0  0
   13.1716    1.5045   22.6826 S   0  0  0  0  0  0  0  0  0  0  0  0
   10.2483    0.4923   22.6617 S   0  0  0  0  0  0  0  0  0  0  0  0
   10.1064   -0.6466   23.5434 O   0  0  0  0  0  0  0  0  0  0  0  0
   10.3547    0.3279   21.2268 O   0  0  0  0  0  0  0  0  0  0  0  0
    9.1081    1.6708   23.0013 N   0  0  0  0  0  0  0  0  0  0  0  0
    7.7534    1.5477   22.4751 C   0  0  0  0  0  0  0  0  0  0  0  0
    7.1244    0.2933   23.0199 C   0  0  0  0  0  0  0  0  0  0  0  0
    6.8224    0.2157   24.3920 C   0  0  0  0  0  0  0  0  0  0  0  0
    6.4183   -0.9882   24.9755 C   0  0  0  0  0  0  0  0  0  0  0  0
    6.3131   -2.1370   24.1827 C   0  0  0  0  0  0  0  0  0  0  0  0
    6.5952   -2.0767   22.8138 C   0  0  0  0  0  0  0  0  0  0  0  0
    6.9741   -0.8626   22.2298 C   0  0  0  0  0  0  0  0  0  0  0  0
    7.2874   -0.8843   20.8770 O   0  0  0  0  0  0  0  0  0  0  0  0
    6.6409   -0.0959   19.9440 C   0  0  0  0  0  0  0  0  0  0  0  0
    5.4162    0.5480   20.1538 C   0  0  0  0  0  0  0  0  0  0  0  0
    4.8653    1.2652   19.0835 C   0  0  0  0  0  0  0  0  0  0  0  0
    5.5371    1.3139   17.8585 C   0  0  0  0  0  0  0  0  0  0  0  0
    6.7225    0.7091   17.6595 N   0  0  0  0  0  0  0  0  0  0  0  0
    7.2595    0.0316   18.6816 C   0  0  0  0  0  0  0  0  0  0  0  0
    8.2294   -0.4398   18.5073 H   0  0  0  0  0  0  0  0  0  0  0  0
    5.1106    1.8426   17.0063 H   0  0  0  0  0  0  0  0  0  0  0  0
    3.9275    1.7970   19.1923 H   0  0  0  0  0  0  0  0  0  0  0  0
    4.9347    0.5085   21.1316 H   0  0  0  0  0  0  0  0  0  0  0  0
    6.5333   -2.9488   22.1713 H   0  0  0  0  0  0  0  0  0  0  0  0
    5.9971   -3.0763   24.6280 H   0  0  0  0  0  0  0  0  0  0  0  0
    6.2121   -1.0346   26.0423 H   0  0  0  0  0  0  0  0  0  0  0  0
    6.9325    1.1046   25.0165 H   0  0  0  0  0  0  0  0  0  0  0  0
    7.2050    2.4347   22.8123 H   0  0  0  0  0  0  0  0  0  0  0  0
    7.7683    1.5601   21.3756 H   0  0  0  0  0  0  0  0  0  0  0  0
    9.6083    2.8054   23.6065 C   0  0  0  0  0  0  0  0  0  0  0  0
    8.9027    3.6760   24.0631 O   0  0  0  0  0  0  0  0  0  0  0  0
   11.9224    4.7956   23.6522 H   0  0  0  0  0  0  0  0  0  0  0  0
   14.1881    4.7427   21.7146 H   0  0  0  0  0  0  0  0  0  0  0  0
   14.8421    4.6528   23.3418 H   0  0  0  0  0  0  0  0  0  0  0  0
   15.2422    3.3972   22.1604 H   0  0  0  0  0  0  0  0  0  0  0  0
  1  2  1  0
  2  3  2  0
  3  4  1  0
  4  5  2  0
  5  6  1  0
  5  7  1  0
  7  8  2  0
  7  9  2  0
  7 10  1  0
 10 11  1  0
 11 12  1  0
 12 13  2  0
 13 14  1  0
 14 15  2  0
 15 16  1  0
 16 17  2  0
 17 18  1  0
 18 19  1  0
 19 20  2  0
 20 21  1  0
 21 22  2  0
 22 23  1  0
 23 24  2  0
 24 25  1  0
 22 26  1  0
 21 27  1  0
 20 28  1  0
 16 29  1  0
 15 30  1  0
 14 31  1  0
 13 32  1  0
 11 33  1  0
 11 34  1  0
 10 35  1  0
 35 36  2  0
  3 37  1  0
  1 38  1  0
  1 39  1  0
  1 40  1  0
  6  2  1  0
 17 12  1  0
 24 19  1  0
 35  4  1  0
M  END
>  <cnnaffinity>  (1) 
-6.007

>  <filename>  (1) 
Cc1cc2c(s1)S(=O)(=O)N(Cc1ccccc1Oc1cccnc1)C2=O

$$$$
