
     RDKit          3D

 38 41  0  0  0  0  0  0  0  0999 V2000
    9.4056    0.6949   20.7590 C   0  0  0  0  0  0  0  0  0  0  0  0
    8.6056   -0.3964   21.4158 C   0  0  0  0  0  0  0  0  0  0  0  0
    9.1452   -1.2224   22.3976 C   0  0  0  0  0  0  0  0  0  0  0  0
    8.4868   -2.2228   22.9613 N   0  0  0  0  0  0  0  0  0  0  0  0
    7.2164   -2.4221   22.5805 C   0  0  0  0  0  0  0  0  0  0  0  0
    6.4187   -3.4891   23.2697 C   0  0  0  0  0  0  0  0  0  0  0  0
    5.0722   -3.7156   22.8928 C   0  0  0  0  0  0  0  0  0  0  0  0
    4.3081   -4.7098   23.5146 C   0  0  0  0  0  0  0  0  0  0  0  0
    4.8571   -5.5000   24.5299 C   0  0  0  0  0  0  0  0  0  0  0  0
    6.1824   -5.2689   24.9022 C   0  0  0  0  0  0  0  0  0  0  0  0
    6.9727   -4.2773   24.2936 C   0  0  0  0  0  0  0  0  0  0  0  0
    8.3547   -4.2956   24.9403 C   0  0  0  0  0  0  0  0  0  0  0  0
    8.2600   -5.4278   25.9969 C   0  0  0  0  0  0  0  0  0  0  0  0
    6.9015   -5.9230   25.8593 N   0  0  0  0  0  0  0  0  0  0  0  0
    6.5166   -6.6634   26.4134 H   0  0  0  0  0  0  0  0  0  0  0  0
    8.4386   -5.0657   27.0204 H   0  0  0  0  0  0  0  0  0  0  0  0
    8.9844   -6.2360   25.8182 H   0  0  0  0  0  0  0  0  0  0  0  0
    8.5923   -3.3231   25.3884 H   0  0  0  0  0  0  0  0  0  0  0  0
    9.1364   -4.4800   24.1939 H   0  0  0  0  0  0  0  0  0  0  0  0
    4.2754   -6.2715   25.0272 H   0  0  0  0  0  0  0  0  0  0  0  0
    3.2763   -4.8613   23.2011 H   0  0  0  0  0  0  0  0  0  0  0  0
    4.6407   -3.0940   22.1127 H   0  0  0  0  0  0  0  0  0  0  0  0
    6.6153   -1.7304   21.6064 N   0  0  0  0  0  0  0  0  0  0  0  0
    7.3028   -0.7536   21.0220 C   0  0  0  0  0  0  0  0  0  0  0  0
    6.6070   -0.0398   19.9297 C   0  0  0  0  0  0  0  0  0  0  0  0
    5.3991    0.6249   20.1662 C   0  0  0  0  0  0  0  0  0  0  0  0
    4.8011    1.3097   19.1084 C   0  0  0  0  0  0  0  0  0  0  0  0
    5.4181    1.2848   17.8518 C   0  0  0  0  0  0  0  0  0  0  0  0
    6.5698    0.6438   17.6098 N   0  0  0  0  0  0  0  0  0  0  0  0
    7.1465    0.0079   18.6370 C   0  0  0  0  0  0  0  0  0  0  0  0
    8.1015   -0.4621   18.4000 H   0  0  0  0  0  0  0  0  0  0  0  0
    4.9704    1.7936   16.9996 H   0  0  0  0  0  0  0  0  0  0  0  0
    3.8736    1.8563   19.2386 H   0  0  0  0  0  0  0  0  0  0  0  0
    4.9541    0.6094   21.1641 H   0  0  0  0  0  0  0  0  0  0  0  0
   10.1767   -1.0853   22.7272 H   0  0  0  0  0  0  0  0  0  0  0  0
   10.2835    0.9834   21.3422 H   0  0  0  0  0  0  0  0  0  0  0  0
    9.7385    0.3188   19.7918 H   0  0  0  0  0  0  0  0  0  0  0  0
    8.7960    1.5830   20.5636 H   0  0  0  0  0  0  0  0  0  0  0  0
  1  2  1  0
  2  3  2  0
  3  4  1  0
  4  5  2  0
  5  6  1  0
  6  7  2  0
  7  8  1  0
  8  9  2  0
  9 10  1  0
 10 11  2  0
 11 12  1  0
 12 13  1  0
 13 14  1  0
 14 15  1  0
 13 16  1  0
 13 17  1  0
 12 18  1  0
 12 19  1  0
  9 20  1  0
  8 21  1  0
  7 22  1  0
  5 23  1  0
 23 24  2  0
 24 25  1  0
 25 26  2  0
 26 27  1  0
 27 28  2  0
 28 29  1  0
 29 30  2  0
 30 31  1  0
 28 32  1  0
 27 33  1  0
 26 34  1  0
  3 35  1  0
  1 36  1  0
  1 37  1  0
  1 38  1  0
 24  2  1  0
 30 25  1  0
 11  6  1  0
 14 10  1  0
M  END
>  <cnnaffinity>  (1) 
-5.57883

>  <filename>  (1) 
Cc1cnc(-c2cccc3c2CCN3)nc1-c1cccnc1

$$$$
