
     RDKit          3D

 38 39  0  0  0  0  0  0  0  0999 V2000
    4.8800    1.6468   16.8887 H   0  0  0  0  0  0  0  0  0  0  0  0
    5.3635    1.2520   17.7831 C   0  0  0  0  0  0  0  0  0  0  0  0
    6.5504    0.6531   17.6002 N   0  0  0  0  0  0  0  0  0  0  0  0
    7.1750    0.1652   18.6820 C   0  0  0  0  0  0  0  0  0  0  0  0
    8.1352   -0.3196   18.5024 H   0  0  0  0  0  0  0  0  0  0  0  0
    6.6782    0.2607   20.0005 C   0  0  0  0  0  0  0  0  0  0  0  0
    7.3955   -0.3447   21.2184 C   0  0  2  0  0  0  0  0  0  0  0  0
    6.9588    0.0771   22.1241 H   0  0  0  0  0  0  0  0  0  0  0  0
    8.8551    0.0340   21.2799 C   0  0  0  0  0  0  0  0  0  0  0  0
    9.7542   -0.3043   20.5563 O   0  0  0  0  0  0  0  0  0  0  0  0
    9.0016    0.8237   22.4128 O   0  0  0  0  0  0  0  0  0  0  0  0
   10.1112    1.5951   22.6347 N   0  0  0  0  0  0  0  0  0  0  0  0
   11.1728    0.7543   23.2667 C   0  0  0  0  0  0  0  0  0  0  0  0
   10.9021    0.5800   24.3220 H   0  0  0  0  0  0  0  0  0  0  0  0
   11.1743   -0.2304   22.7767 H   0  0  0  0  0  0  0  0  0  0  0  0
   12.5809    1.4293   23.1996 C   0  0  0  0  0  0  0  0  0  0  0  0
   13.1563    1.1174   24.0766 H   0  0  0  0  0  0  0  0  0  0  0  0
   13.1214    1.0519   22.3183 H   0  0  0  0  0  0  0  0  0  0  0  0
   12.4647    2.9644   23.1165 C   0  0  0  0  0  0  0  0  0  0  0  0
   11.8413    3.2854   23.9645 H   0  0  0  0  0  0  0  0  0  0  0  0
   13.7836    3.7512   23.1079 C   0  0  0  0  0  0  0  0  0  0  0  0
   14.5562    3.2227   22.5356 H   0  0  0  0  0  0  0  0  0  0  0  0
   14.1748    3.9624   24.1036 H   0  0  0  0  0  0  0  0  0  0  0  0
   13.6352    4.7273   22.6253 H   0  0  0  0  0  0  0  0  0  0  0  0
   11.7038    3.3163   21.8227 C   0  0  0  0  0  0  0  0  0  0  0  0
   11.3274    4.3349   21.9359 H   0  0  0  0  0  0  0  0  0  0  0  0
   12.4143    3.3256   20.9879 H   0  0  0  0  0  0  0  0  0  0  0  0
   10.5652    2.3504   21.4306 C   0  0  0  0  0  0  0  0  0  0  0  0
    9.6905    2.8721   21.0221 H   0  0  0  0  0  0  0  0  0  0  0  0
   10.9302    1.6849   20.6369 H   0  0  0  0  0  0  0  0  0  0  0  0
    7.2498   -1.8907   21.2228 C   0  0  0  0  0  0  0  0  0  0  0  0
    7.9006   -2.3418   20.4679 H   0  0  0  0  0  0  0  0  0  0  0  0
    6.2186   -2.1872   21.0132 H   0  0  0  0  0  0  0  0  0  0  0  0
    7.5313   -2.3203   22.1890 H   0  0  0  0  0  0  0  0  0  0  0  0
    5.4282    0.8766   20.1570 C   0  0  0  0  0  0  0  0  0  0  0  0
    5.0089    0.9741   21.1610 H   0  0  0  0  0  0  0  0  0  0  0  0
    4.7564    1.3750   19.0379 C   0  0  0  0  0  0  0  0  0  0  0  0
    3.7839    1.8477   19.1249 H   0  0  0  0  0  0  0  0  0  0  0  0
  1  2  1  0
  2  3  2  0
  3  4  1  0
  4  5  1  0
  4  6  2  0
  6  7  1  0
  7  8  1  1
  7  9  1  0
  9 10  2  0
  9 11  1  0
 11 12  1  0
 12 13  1  0
 13 14  1  0
 13 15  1  0
 13 16  1  0
 16 17  1  0
 16 18  1  0
 16 19  1  0
 19 20  1  0
 19 21  1  0
 21 22  1  0
 21 23  1  0
 21 24  1  0
 19 25  1  0
 25 26  1  0
 25 27  1  0
 25 28  1  0
 28 29  1  0
 28 30  1  0
  7 31  1  0
 31 32  1  0
 31 33  1  0
 31 34  1  0
  6 35  1  0
 35 36  1  0
 35 37  2  0
 37 38  1  0
 37  2  1  0
 28 12  1  0
M  END
>  <cnnaffinity>  (1) 
-4.73727

>  <filename>  (1) 
CC1CCN(OC(=O)[C@H](C)c2cccnc2)CC1

$$$$
