
     RDKit          3D

 39 41  0  0  0  0  0  0  0  0999 V2000
    3.4933   -4.2324   26.6429 C   0  0  0  0  0  0  0  0  0  0  0  0
    4.9056   -4.7791   26.6531 C   0  0  0  0  0  0  0  0  0  0  0  0
    5.5183   -5.1014   27.8717 C   0  0  0  0  0  0  0  0  0  0  0  0
    6.8188   -5.6136   27.9325 C   0  0  0  0  0  0  0  0  0  0  0  0
    7.5395   -5.8201   26.7563 C   0  0  0  0  0  0  0  0  0  0  0  0
    6.9509   -5.5249   25.5259 C   0  0  0  0  0  0  0  0  0  0  0  0
    5.6470   -5.0118   25.4747 C   0  0  0  0  0  0  0  0  0  0  0  0
    5.0656   -4.7362   24.2124 N   0  0  0  0  0  0  0  0  0  0  0  0
    5.2170   -5.5221   23.1107 C   0  0  0  0  0  0  0  0  0  0  0  0
    5.8145   -6.5780   23.0928 O   0  0  0  0  0  0  0  0  0  0  0  0
    4.6674   -4.9214   21.8562 C   0  0  0  0  0  0  0  0  0  0  0  0
    5.7139   -3.9516   21.4753 C   0  0  0  0  0  0  0  0  0  0  0  0
    6.8610   -4.3187   20.9876 N   0  0  0  0  0  0  0  0  0  0  0  0
    7.5465   -3.1360   20.8483 O   0  0  0  0  0  0  0  0  0  0  0  0
    6.7472   -2.1569   21.2638 C   0  0  0  0  0  0  0  0  0  0  0  0
    7.3084   -0.7270   21.0429 C   0  0  0  0  0  0  0  0  0  0  0  0
    8.6467   -0.8101   20.7982 F   0  0  0  0  0  0  0  0  0  0  0  0
    7.1821   -0.0202   22.2035 F   0  0  0  0  0  0  0  0  0  0  0  0
    6.6250    0.0407   19.9281 C   0  0  0  0  0  0  0  0  0  0  0  0
    5.3981    0.6797   20.1582 C   0  0  0  0  0  0  0  0  0  0  0  0
    4.7828    1.3220   19.0865 C   0  0  0  0  0  0  0  0  0  0  0  0
    5.4129    1.2982   17.8388 C   0  0  0  0  0  0  0  0  0  0  0  0
    6.5818    0.6829   17.6106 N   0  0  0  0  0  0  0  0  0  0  0  0
    7.1775    0.0778   18.6413 C   0  0  0  0  0  0  0  0  0  0  0  0
    8.1333   -0.4014   18.4328 H   0  0  0  0  0  0  0  0  0  0  0  0
    4.9543    1.7803   16.9792 H   0  0  0  0  0  0  0  0  0  0  0  0
    3.8448    1.8529   19.2054 H   0  0  0  0  0  0  0  0  0  0  0  0
    4.9523    0.6976   21.1542 H   0  0  0  0  0  0  0  0  0  0  0  0
    5.5938   -2.6053   21.6988 N   0  0  0  0  0  0  0  0  0  0  0  0
    4.5685   -5.7242   21.1304 H   0  0  0  0  0  0  0  0  0  0  0  0
    3.7144   -4.4238   22.0216 H   0  0  0  0  0  0  0  0  0  0  0  0
    4.6448   -3.8305   24.0702 H   0  0  0  0  0  0  0  0  0  0  0  0
    7.4763   -5.6964   24.5922 H   0  0  0  0  0  0  0  0  0  0  0  0
    8.5500   -6.2227   26.7902 H   0  0  0  0  0  0  0  0  0  0  0  0
    7.2629   -5.8567   28.8925 H   0  0  0  0  0  0  0  0  0  0  0  0
    4.9541   -4.9525   28.7899 H   0  0  0  0  0  0  0  0  0  0  0  0
    2.8524   -4.7624   25.9279 H   0  0  0  0  0  0  0  0  0  0  0  0
    3.4643   -3.1651   26.3876 H   0  0  0  0  0  0  0  0  0  0  0  0
    3.0339   -4.3375   27.6316 H   0  0  0  0  0  0  0  0  0  0  0  0
  1  2  1  0
  2  3  2  0
  3  4  1  0
  4  5  2  0
  5  6  1  0
  6  7  2  0
  7  8  1  0
  8  9  1  0
  9 10  2  0
  9 11  1  0
 11 12  1  0
 12 13  2  0
 13 14  1  0
 14 15  1  0
 15 16  1  0
 16 17  1  0
 16 18  1  0
 16 19  1  0
 19 20  2  0
 20 21  1  0
 21 22  2  0
 22 23  1  0
 23 24  2  0
 24 25  1  0
 22 26  1  0
 21 27  1  0
 20 28  1  0
 15 29  2  0
 11 30  1  0
 11 31  1  0
  8 32  1  0
  6 33  1  0
  5 34  1  0
  4 35  1  0
  3 36  1  0
  1 37  1  0
  1 38  1  0
  1 39  1  0
  7  2  1  0
 29 12  1  0
 24 19  1  0
M  END
>  <cnnaffinity>  (1) 
-5.21956

>  <filename>  (1) 
Cc1ccccc1NC(=O)Cc1noc(C(F)(F)c2cccnc2)n1

$$$$
