
     RDKit          3D

 36 38  0  0  0  0  0  0  0  0999 V2000
   10.1016   -2.8662   23.1417 C   0  0  0  0  0  0  0  0  0  0  0  0
    9.4130   -3.3272   24.3954 C   0  0  0  0  0  0  0  0  0  0  0  0
   10.1824   -3.8836   25.4239 C   0  0  0  0  0  0  0  0  0  0  0  0
    9.5960   -4.2944   26.6213 C   0  0  0  0  0  0  0  0  0  0  0  0
    8.2190   -4.1554   26.7861 C   0  0  0  0  0  0  0  0  0  0  0  0
    7.4297   -3.6158   25.7632 C   0  0  0  0  0  0  0  0  0  0  0  0
    5.5493   -3.4436   26.0681 Br  0  0  0  0  0  0  0  0  0  0  0  0
    8.0195   -3.2031   24.5504 C   0  0  0  0  0  0  0  0  0  0  0  0
    7.1685   -2.6108   23.4463 C   0  0  0  0  0  0  0  0  0  0  0  0
    7.2483   -1.1386   23.4457 N   0  0  0  0  0  0  0  0  0  0  0  0
    7.1069   -0.3375   24.5611 C   0  0  0  0  0  0  0  0  0  0  0  0
    7.0684    0.9496   24.1092 C   0  0  0  0  0  0  0  0  0  0  0  0
    7.1570    0.9729   22.7265 N   0  0  0  0  0  0  0  0  0  0  0  0
    7.2824   -0.2862   22.3362 C   0  0  0  0  0  0  0  0  0  0  0  0
    7.4002   -0.7036   20.9146 C   0  0  0  0  0  0  0  0  0  0  0  0
    8.1018   -1.6614   20.5837 O   0  0  0  0  0  0  0  0  0  0  0  0
    6.6583   -0.0020   19.8765 C   0  0  0  0  0  0  0  0  0  0  0  0
    5.4530    0.6501   20.1626 C   0  0  0  0  0  0  0  0  0  0  0  0
    4.8321    1.3017   19.1037 C   0  0  0  0  0  0  0  0  0  0  0  0
    5.4103    1.2915   17.8287 C   0  0  0  0  0  0  0  0  0  0  0  0
    6.5707    0.6617   17.5690 N   0  0  0  0  0  0  0  0  0  0  0  0
    7.1803    0.0299   18.5806 C   0  0  0  0  0  0  0  0  0  0  0  0
    8.1369   -0.4521   18.3943 H   0  0  0  0  0  0  0  0  0  0  0  0
    4.8924    1.8014   17.0213 H   0  0  0  0  0  0  0  0  0  0  0  0
    3.8948    1.8247   19.2582 H   0  0  0  0  0  0  0  0  0  0  0  0
    5.0064    0.6532   21.1628 H   0  0  0  0  0  0  0  0  0  0  0  0
    6.9751    1.8316   24.7342 H   0  0  0  0  0  0  0  0  0  0  0  0
    7.0411   -0.6635   25.5973 H   0  0  0  0  0  0  0  0  0  0  0  0
    7.5046   -3.0098   22.4793 H   0  0  0  0  0  0  0  0  0  0  0  0
    6.1228   -2.9091   23.5876 H   0  0  0  0  0  0  0  0  0  0  0  0
    7.7525   -4.4714   27.7137 H   0  0  0  0  0  0  0  0  0  0  0  0
   10.2046   -4.7165   27.4165 H   0  0  0  0  0  0  0  0  0  0  0  0
   11.2519   -3.9833   25.2873 H   0  0  0  0  0  0  0  0  0  0  0  0
    9.8588   -1.8263   22.9161 H   0  0  0  0  0  0  0  0  0  0  0  0
    9.7609   -3.4632   22.3018 H   0  0  0  0  0  0  0  0  0  0  0  0
   11.1889   -2.9641   23.2312 H   0  0  0  0  0  0  0  0  0  0  0  0
  1  2  1  0
  2  3  2  0
  3  4  1  0
  4  5  2  0
  5  6  1  0
  6  7  1  0
  6  8  2  0
  8  9  1  0
  9 10  1  0
 10 11  1  0
 11 12  2  0
 12 13  1  0
 13 14  2  0
 14 15  1  0
 15 16  2  0
 15 17  1  0
 17 18  2  0
 18 19  1  0
 19 20  2  0
 20 21  1  0
 21 22  2  0
 22 23  1  0
 20 24  1  0
 19 25  1  0
 18 26  1  0
 12 27  1  0
 11 28  1  0
  9 29  1  0
  9 30  1  0
  5 31  1  0
  4 32  1  0
  3 33  1  0
  1 34  1  0
  1 35  1  0
  1 36  1  0
  8  2  1  0
 14 10  1  0
 22 17  1  0
M  END
>  <cnnaffinity>  (1) 
-5.49528

>  <filename>  (1) 
Cc1cccc(Br)c1Cn1ccnc1C(=O)c1cccnc1

$$$$
