
     RDKit          3D

 49 53  0  0  0  0  0  0  0  0999 V2000
    6.7707   -0.9264   27.3378 C   0  0  0  0  0  0  0  0  0  0  0  0
    8.0363   -0.6045   26.6291 C   0  0  0  0  0  0  0  0  0  0  0  0
    9.0550   -1.3164   26.0870 C   0  0  0  0  0  0  0  0  0  0  0  0
    9.9557   -0.3591   25.5025 C   0  0  0  0  0  0  0  0  0  0  0  0
    9.4103    0.8649   25.7330 C   0  0  0  0  0  0  0  0  0  0  0  0
    9.7003    2.2428   25.2407 C   0  0  0  0  0  0  0  0  0  0  0  0
    8.7451    2.6671   24.0865 C   0  0  0  0  0  0  0  0  0  0  0  0
    8.7533    1.7649   22.8903 C   0  0  0  0  0  0  0  0  0  0  0  0
    7.7306    1.0554   22.4605 N   0  0  0  0  0  0  0  0  0  0  0  0
    8.2838    0.2309   21.5322 C   0  0  0  0  0  0  0  0  0  0  0  0
    7.4678   -0.7495   20.7379 C   0  0  0  0  0  0  0  0  0  0  0  0
    6.6654   -0.1089   19.6074 C   0  0  0  0  0  0  0  0  0  0  0  0
    5.5002    0.6149   19.9025 C   0  0  0  0  0  0  0  0  0  0  0  0
    4.8585    1.3109   18.8768 C   0  0  0  0  0  0  0  0  0  0  0  0
    5.4044    1.2617   17.5915 C   0  0  0  0  0  0  0  0  0  0  0  0
    6.4994    0.5529   17.2772 N   0  0  0  0  0  0  0  0  0  0  0  0
    7.1017   -0.1128   18.2704 C   0  0  0  0  0  0  0  0  0  0  0  0
    8.0045   -0.6640   18.0020 H   0  0  0  0  0  0  0  0  0  0  0  0
    4.9517    1.8224   16.7770 H   0  0  0  0  0  0  0  0  0  0  0  0
    3.9719    1.9077   19.0631 H   0  0  0  0  0  0  0  0  0  0  0  0
    5.1303    0.6568   20.9298 H   0  0  0  0  0  0  0  0  0  0  0  0
    6.7890   -1.2358   21.4461 H   0  0  0  0  0  0  0  0  0  0  0  0
    8.1448   -1.5213   20.3607 H   0  0  0  0  0  0  0  0  0  0  0  0
    9.5874    0.3649   21.3758 N   0  0  0  0  0  0  0  0  0  0  0  0
    9.8770    1.3957   22.2217 N   0  0  0  0  0  0  0  0  0  0  0  0
   11.1831    1.9112   22.3642 C   0  0  0  0  0  0  0  0  0  0  0  0
   11.4451    3.2781   22.5109 C   0  0  0  0  0  0  0  0  0  0  0  0
   12.7704    3.7362   22.6756 C   0  0  0  0  0  0  0  0  0  0  0  0
   13.8441    2.8545   22.6855 C   0  0  0  0  0  0  0  0  0  0  0  0
   13.5868    1.4719   22.5725 C   0  0  0  0  0  0  0  0  0  0  0  0
   12.2706    1.0164   22.3967 C   0  0  0  0  0  0  0  0  0  0  0  0
   12.3781   -0.3517   22.2873 N   0  0  0  0  0  0  0  0  0  0  0  0
   13.7074   -0.6505   22.3877 C   0  0  0  0  0  0  0  0  0  0  0  0
   14.4617    0.3940   22.5655 N   0  0  0  0  0  0  0  0  0  0  0  0
   14.0764   -1.6693   22.3323 H   0  0  0  0  0  0  0  0  0  0  0  0
   11.6067   -0.9514   22.0461 H   0  0  0  0  0  0  0  0  0  0  0  0
   14.8634    3.2217   22.6431 H   0  0  0  0  0  0  0  0  0  0  0  0
   12.9703    4.7994   22.7796 H   0  0  0  0  0  0  0  0  0  0  0  0
   10.6403    4.0097   22.5061 H   0  0  0  0  0  0  0  0  0  0  0  0
    8.9560    3.6944   23.7876 H   0  0  0  0  0  0  0  0  0  0  0  0
    7.7159    2.6733   24.4492 H   0  0  0  0  0  0  0  0  0  0  0  0
    9.5797    2.9494   26.0647 H   0  0  0  0  0  0  0  0  0  0  0  0
   10.7451    2.2874   24.9216 H   0  0  0  0  0  0  0  0  0  0  0  0
    8.2481    0.7226   26.4224 O   0  0  0  0  0  0  0  0  0  0  0  0
   10.8657   -0.5470   24.9517 H   0  0  0  0  0  0  0  0  0  0  0  0
    9.1425   -2.3944   26.0989 H   0  0  0  0  0  0  0  0  0  0  0  0
    5.9216   -0.4935   26.7991 H   0  0  0  0  0  0  0  0  0  0  0  0
    6.6230   -2.0040   27.4162 H   0  0  0  0  0  0  0  0  0  0  0  0
    6.7819   -0.4964   28.3428 H   0  0  0  0  0  0  0  0  0  0  0  0
  1  2  1  0
  2  3  2  0
  3  4  1  0
  4  5  2  0
  5  6  1  0
  6  7  1  0
  7  8  1  0
  8  9  2  0
  9 10  1  0
 10 11  1  0
 11 12  1  0
 12 13  2  0
 13 14  1  0
 14 15  2  0
 15 16  1  0
 16 17  2  0
 17 18  1  0
 15 19  1  0
 14 20  1  0
 13 21  1  0
 11 22  1  0
 11 23  1  0
 10 24  2  0
 24 25  1  0
 25 26  1  0
 26 27  2  0
 27 28  1  0
 28 29  2  0
 29 30  1  0
 30 31  2  0
 31 32  1  0
 32 33  1  0
 33 34  2  0
 33 35  1  0
 32 36  1  0
 29 37  1  0
 28 38  1  0
 27 39  1  0
  7 40  1  0
  7 41  1  0
  6 42  1  0
  6 43  1  0
  5 44  1  0
  4 45  1  0
  3 46  1  0
  1 47  1  0
  1 48  1  0
  1 49  1  0
 44  2  1  0
 25  8  1  0
 31 26  1  0
 17 12  1  0
 34 30  1  0
M  END
>  <cnnaffinity>  (1) 
-6.75249

>  <filename>  (1) 
Cc1ccc(CCc2nc(Cc3cccnc3)nn2-c2cccc3nc[nH]c23)o1

$$$$
