
     RDKit          3D

 51 55  0  0  0  0  0  0  0  0999 V2000
   11.8863    0.6892   24.2785 C   0  0  0  0  0  0  0  0  0  0  0  0
   12.2778    0.8301   22.8010 C   0  0  0  0  0  0  0  0  0  0  0  0
   13.7772    1.1908   22.6703 C   0  0  0  0  0  0  0  0  0  0  0  0
   14.0775    2.7106   22.7553 C   0  0  0  0  0  0  0  0  0  0  0  0
   13.1154    3.6906   22.0658 C   0  0  0  0  0  0  0  0  0  0  0  0
   11.6989    3.2929   22.4394 C   0  0  0  0  0  0  0  0  0  0  0  0
   11.4112    1.8592   22.0015 C   0  0  0  0  0  0  0  0  0  0  0  0
    9.9729    1.5406   22.0343 N   0  0  0  0  0  0  0  0  0  0  0  0
    9.5306    0.5560   21.2084 N   0  0  0  0  0  0  0  0  0  0  0  0
    8.3425    0.2553   21.6923 C   0  0  0  0  0  0  0  0  0  0  0  0
    7.4294   -0.7021   20.9815 C   0  0  0  0  0  0  0  0  0  0  0  0
    6.6609   -0.0419   19.8423 C   0  0  0  0  0  0  0  0  0  0  0  0
    5.4632    0.6313   20.1067 C   0  0  0  0  0  0  0  0  0  0  0  0
    4.8225    1.3071   19.0675 C   0  0  0  0  0  0  0  0  0  0  0  0
    5.4082    1.2989   17.7978 C   0  0  0  0  0  0  0  0  0  0  0  0
    6.5532    0.6581   17.5182 N   0  0  0  0  0  0  0  0  0  0  0  0
    7.1537    0.0105   18.5255 C   0  0  0  0  0  0  0  0  0  0  0  0
    8.0867   -0.4955   18.2743 H   0  0  0  0  0  0  0  0  0  0  0  0
    4.9315    1.8202   16.9686 H   0  0  0  0  0  0  0  0  0  0  0  0
    3.8911    1.8366   19.2299 H   0  0  0  0  0  0  0  0  0  0  0  0
    5.0419    0.6256   21.1153 H   0  0  0  0  0  0  0  0  0  0  0  0
    8.0384   -1.5266   20.6002 H   0  0  0  0  0  0  0  0  0  0  0  0
    6.7238   -1.1064   21.7150 H   0  0  0  0  0  0  0  0  0  0  0  0
    8.0026    0.9417   22.8120 N   0  0  0  0  0  0  0  0  0  0  0  0
    9.0052    1.7988   22.9535 C   0  0  0  0  0  0  0  0  0  0  0  0
    9.0179    2.8865   23.9693 C   0  0  0  0  0  0  0  0  0  0  0  0
    9.0630    2.5001   25.3305 C   0  0  0  0  0  0  0  0  0  0  0  0
    9.0562    3.3751   26.3595 N   0  0  0  0  0  0  0  0  0  0  0  0
    9.0056    4.6470   25.9507 C   0  0  0  0  0  0  0  0  0  0  0  0
    9.0414    5.7482   26.7511 N   0  0  0  0  0  0  0  0  0  0  0  0
    9.0036    6.8787   25.9555 C   0  0  0  0  0  0  0  0  0  0  0  0
    8.9348    6.5214   24.6353 C   0  0  0  0  0  0  0  0  0  0  0  0
    8.9353    5.0854   24.5926 C   0  0  0  0  0  0  0  0  0  0  0  0
    8.9250    4.1845   23.5807 N   0  0  0  0  0  0  0  0  0  0  0  0
    8.8993    7.2037   23.7935 H   0  0  0  0  0  0  0  0  0  0  0  0
    9.0452    7.8739   26.3891 H   0  0  0  0  0  0  0  0  0  0  0  0
    9.0768    5.6723   27.7527 H   0  0  0  0  0  0  0  0  0  0  0  0
    9.1252    1.4424   25.5772 H   0  0  0  0  0  0  0  0  0  0  0  0
   11.6698    1.7475   20.9394 H   0  0  0  0  0  0  0  0  0  0  0  0
   11.6084    3.3559   23.5338 H   0  0  0  0  0  0  0  0  0  0  0  0
   10.9501    3.9624   22.0204 H   0  0  0  0  0  0  0  0  0  0  0  0
   13.2261    3.7455   20.9748 H   0  0  0  0  0  0  0  0  0  0  0  0
   13.3198    4.7080   22.4263 H   0  0  0  0  0  0  0  0  0  0  0  0
   15.1032    2.8781   22.4025 H   0  0  0  0  0  0  0  0  0  0  0  0
   14.0078    2.9879   23.8125 H   0  0  0  0  0  0  0  0  0  0  0  0
   14.1698    0.7438   21.7498 H   0  0  0  0  0  0  0  0  0  0  0  0
   14.3358    0.6882   23.4762 H   0  0  0  0  0  0  0  0  0  0  0  0
   12.1104   -0.1441   22.3173 H   0  0  0  0  0  0  0  0  0  0  0  0
   11.9367    1.6407   24.8219 H   0  0  0  0  0  0  0  0  0  0  0  0
   12.5842    0.0043   24.7704 H   0  0  0  0  0  0  0  0  0  0  0  0
   10.8788    0.2800   24.3917 H   0  0  0  0  0  0  0  0  0  0  0  0
  1  2  1  0
  2  3  1  0
  3  4  1  0
  4  5  1  0
  5  6  1  0
  6  7  1  0
  7  8  1  0
  8  9  1  0
  9 10  2  0
 10 11  1  0
 11 12  1  0
 12 13  2  0
 13 14  1  0
 14 15  2  0
 15 16  1  0
 16 17  2  0
 17 18  1  0
 15 19  1  0
 14 20  1  0
 13 21  1  0
 11 22  1  0
 11 23  1  0
 10 24  1  0
 24 25  2  0
 25 26  1  0
 26 27  2  0
 27 28  1  0
 28 29  2  0
 29 30  1  0
 30 31  1  0
 31 32  2  0
 32 33  1  0
 33 34  2  0
 32 35  1  0
 31 36  1  0
 30 37  1  0
 27 38  1  0
  7 39  1  0
  6 40  1  0
  6 41  1  0
  5 42  1  0
  5 43  1  0
  4 44  1  0
  4 45  1  0
  3 46  1  0
  3 47  1  0
  2 48  1  0
  1 49  1  0
  1 50  1  0
  1 51  1  0
  7  2  1  0
 25  8  1  0
 34 26  1  0
 17 12  1  0
 33 29  1  0
M  END
>  <cnnaffinity>  (1) 
-6.51528

>  <filename>  (1) 
CC1CCCCC1n1nc(Cc2cccnc2)nc1-c1cnc2[nH]ccc2n1

$$$$
