
     RDKit          3D

 39 41  0  0  0  0  0  0  0  0999 V2000
    5.6255   -6.6562   26.0400 C   0  0  0  0  0  0  0  0  0  0  0  0
    4.4633   -6.0273   25.3233 C   0  0  0  0  0  0  0  0  0  0  0  0
    3.4355   -6.8047   24.7797 C   0  0  0  0  0  0  0  0  0  0  0  0
    2.3141   -6.1745   24.2418 C   0  0  0  0  0  0  0  0  0  0  0  0
    2.1573   -4.8471   24.2170 N   0  0  0  0  0  0  0  0  0  0  0  0
    3.1440   -4.1116   24.7414 C   0  0  0  0  0  0  0  0  0  0  0  0
    4.3313   -4.6277   25.2675 C   0  0  0  0  0  0  0  0  0  0  0  0
    5.4601   -3.7207   25.7219 C   0  0  0  0  0  0  0  0  0  0  0  0
    6.5857   -3.5798   24.6927 C   0  0  0  0  0  0  0  0  0  0  0  0
    7.5370   -4.3341   24.6408 O   0  0  0  0  0  0  0  0  0  0  0  0
    6.4377   -2.5218   23.8574 N   0  0  0  0  0  0  0  0  0  0  0  0
    7.3288   -2.0238   22.9378 C   0  0  0  0  0  0  0  0  0  0  0  0
    8.7180   -2.1407   23.0063 C   0  0  0  0  0  0  0  0  0  0  0  0
    9.4645   -1.4590   22.0404 C   0  0  0  0  0  0  0  0  0  0  0  0
    8.7887   -0.7436   21.0470 C   0  0  0  0  0  0  0  0  0  0  0  0
    7.3806   -0.7394   21.0558 C   0  0  0  0  0  0  0  0  0  0  0  0
    6.6172   -0.0660   19.9825 C   0  0  0  0  0  0  0  0  0  0  0  0
    5.3946    0.5943   20.1905 C   0  0  0  0  0  0  0  0  0  0  0  0
    4.8219    1.2764   19.1176 C   0  0  0  0  0  0  0  0  0  0  0  0
    5.4599    1.2455   17.8727 C   0  0  0  0  0  0  0  0  0  0  0  0
    6.5834    0.5495   17.6401 N   0  0  0  0  0  0  0  0  0  0  0  0
    7.1270   -0.0912   18.6778 C   0  0  0  0  0  0  0  0  0  0  0  0
    8.0112   -0.6807   18.4397 H   0  0  0  0  0  0  0  0  0  0  0  0
    5.0487    1.7881   17.0236 H   0  0  0  0  0  0  0  0  0  0  0  0
    3.8984    1.8353   19.2319 H   0  0  0  0  0  0  0  0  0  0  0  0
    4.9110    0.5574   21.1679 H   0  0  0  0  0  0  0  0  0  0  0  0
    6.6663   -1.3350   22.0123 N   0  0  0  0  0  0  0  0  0  0  0  0
    9.3141   -0.1729   20.2880 H   0  0  0  0  0  0  0  0  0  0  0  0
   10.5563   -1.4946   22.0421 H   0  0  0  0  0  0  0  0  0  0  0  0
    9.1439   -2.7315   23.8021 H   0  0  0  0  0  0  0  0  0  0  0  0
    5.5279   -2.1627   23.6228 H   0  0  0  0  0  0  0  0  0  0  0  0
    5.9391   -4.0989   26.6325 H   0  0  0  0  0  0  0  0  0  0  0  0
    5.0630   -2.7298   25.9484 H   0  0  0  0  0  0  0  0  0  0  0  0
    2.9765   -3.0357   24.7612 H   0  0  0  0  0  0  0  0  0  0  0  0
    1.4977   -6.7588   23.8200 H   0  0  0  0  0  0  0  0  0  0  0  0
    3.4995   -7.8889   24.7921 H   0  0  0  0  0  0  0  0  0  0  0  0
    5.7475   -7.6979   25.7672 H   0  0  0  0  0  0  0  0  0  0  0  0
    5.4525   -6.6494   27.1223 H   0  0  0  0  0  0  0  0  0  0  0  0
    6.5638   -6.1333   25.8334 H   0  0  0  0  0  0  0  0  0  0  0  0
  1  2  1  0
  2  3  2  0
  3  4  1  0
  4  5  2  0
  5  6  1  0
  6  7  2  0
  7  8  1  0
  8  9  1  0
  9 10  2  0
  9 11  1  0
 11 12  1  0
 12 13  2  0
 13 14  1  0
 14 15  2  0
 15 16  1  0
 16 17  1  0
 17 18  2  0
 18 19  1  0
 19 20  2  0
 20 21  1  0
 21 22  2  0
 22 23  1  0
 20 24  1  0
 19 25  1  0
 18 26  1  0
 16 27  2  0
 15 28  1  0
 14 29  1  0
 13 30  1  0
 11 31  1  0
  8 32  1  0
  8 33  1  0
  6 34  1  0
  4 35  1  0
  3 36  1  0
  1 37  1  0
  1 38  1  0
  1 39  1  0
  7  2  1  0
 27 12  1  0
 22 17  1  0
M  END
>  <cnnaffinity>  (1) 
-5.36274

>  <filename>  (1) 
Cc1ccncc1CC(=O)Nc1cccc(-c2cccnc2)n1

$$$$
