
     RDKit          3D

 37 39  0  0  0  0  0  0  0  0999 V2000
    5.0646   -2.3894   27.8755 C   0  0  0  0  0  0  0  0  0  0  0  0
    6.2277   -3.3264   27.6360 C   0  0  0  0  0  0  0  0  0  0  0  0
    6.1616   -4.6360   28.1277 C   0  0  0  0  0  0  0  0  0  0  0  0
    7.2624   -5.4889   28.0440 C   0  0  0  0  0  0  0  0  0  0  0  0
    7.1454   -7.0785   28.7450 Cl  0  0  0  0  0  0  0  0  0  0  0  0
    8.4539   -5.0634   27.4592 C   0  0  0  0  0  0  0  0  0  0  0  0
    8.5340   -3.7485   26.9887 C   0  0  0  0  0  0  0  0  0  0  0  0
    7.4407   -2.8737   27.0727 C   0  0  0  0  0  0  0  0  0  0  0  0
    7.5823   -1.4444   26.5915 C   0  0  0  0  0  0  0  0  0  0  0  0
    7.2088   -1.2520   25.1404 C   0  0  0  0  0  0  0  0  0  0  0  0
    6.1132   -0.8601   24.7757 O   0  0  0  0  0  0  0  0  0  0  0  0
    8.2176   -1.4951   24.2536 N   0  0  0  0  0  0  0  0  0  0  0  0
    8.0851   -1.3899   22.8911 C   0  0  0  0  0  0  0  0  0  0  0  0
    8.8389   -1.9607   22.0026 N   0  0  0  0  0  0  0  0  0  0  0  0
    8.3853   -1.5091   20.7758 N   0  0  0  0  0  0  0  0  0  0  0  0
    7.3827   -0.7003   20.9872 C   0  0  0  0  0  0  0  0  0  0  0  0
    6.6404    0.0025   19.9392 C   0  0  0  0  0  0  0  0  0  0  0  0
    5.4202    0.6556   20.1637 C   0  0  0  0  0  0  0  0  0  0  0  0
    4.8077    1.3046   19.0964 C   0  0  0  0  0  0  0  0  0  0  0  0
    5.4313    1.2791   17.8459 C   0  0  0  0  0  0  0  0  0  0  0  0
    6.5904    0.6457   17.6095 N   0  0  0  0  0  0  0  0  0  0  0  0
    7.1770    0.0263   18.6361 C   0  0  0  0  0  0  0  0  0  0  0  0
    8.1227   -0.4684   18.4115 H   0  0  0  0  0  0  0  0  0  0  0  0
    4.9791    1.7883   17.0003 H   0  0  0  0  0  0  0  0  0  0  0  0
    3.8730    1.8365   19.2277 H   0  0  0  0  0  0  0  0  0  0  0  0
    4.9461    0.6643   21.1472 H   0  0  0  0  0  0  0  0  0  0  0  0
    7.1593   -0.5896   22.3329 N   0  0  0  0  0  0  0  0  0  0  0  0
    6.4039   -0.2512   22.9101 H   0  0  0  0  0  0  0  0  0  0  0  0
    9.0111   -2.0300   24.5465 H   0  0  0  0  0  0  0  0  0  0  0  0
    6.9515   -0.7452   27.1498 H   0  0  0  0  0  0  0  0  0  0  0  0
    8.6200   -1.1222   26.6898 H   0  0  0  0  0  0  0  0  0  0  0  0
    9.4851   -3.3873   26.5985 H   0  0  0  0  0  0  0  0  0  0  0  0
    9.2952   -5.7468   27.4033 H   0  0  0  0  0  0  0  0  0  0  0  0
    5.2528   -4.9878   28.6057 H   0  0  0  0  0  0  0  0  0  0  0  0
    4.7657   -1.8598   26.9649 H   0  0  0  0  0  0  0  0  0  0  0  0
    4.1965   -2.9347   28.2520 H   0  0  0  0  0  0  0  0  0  0  0  0
    5.3250   -1.6339   28.6303 H   0  0  0  0  0  0  0  0  0  0  0  0
  1  2  1  0
  2  3  2  0
  3  4  1  0
  4  5  1  0
  4  6  2  0
  6  7  1  0
  7  8  2  0
  8  9  1  0
  9 10  1  0
 10 11  2  0
 10 12  1  0
 12 13  1  0
 13 14  2  0
 14 15  1  0
 15 16  2  0
 16 17  1  0
 17 18  2  0
 18 19  1  0
 19 20  2  0
 20 21  1  0
 21 22  2  0
 22 23  1  0
 20 24  1  0
 19 25  1  0
 18 26  1  0
 16 27  1  0
 27 28  1  0
 12 29  1  0
  9 30  1  0
  9 31  1  0
  7 32  1  0
  6 33  1  0
  3 34  1  0
  1 35  1  0
  1 36  1  0
  1 37  1  0
  8  2  1  0
 27 13  1  0
 22 17  1  0
M  END
>  <cnnaffinity>  (1) 
-5.19246

>  <filename>  (1) 
Cc1cc(Cl)ccc1CC(=O)Nc1nnc(-c2cccnc2)[nH]1

$$$$
