
     RDKit          3D

 45 47  0  0  0  0  0  0  0  0999 V2000
   10.9873    1.8313   21.6983 C   0  0  0  0  0  0  0  0  0  0  0  0
   10.8722    1.1774   23.0622 C   0  0  0  0  0  0  0  0  0  0  0  0
   10.6503    1.9799   24.1892 C   0  0  0  0  0  0  0  0  0  0  0  0
   10.3943    1.4207   25.4478 C   0  0  0  0  0  0  0  0  0  0  0  0
   10.4463    0.0368   25.6132 C   0  0  0  0  0  0  0  0  0  0  0  0
   10.7078   -0.7744   24.5079 C   0  0  0  0  0  0  0  0  0  0  0  0
   10.8781   -0.2301   23.2252 C   0  0  0  0  0  0  0  0  0  0  0  0
   11.0362   -1.1616   22.0328 C   0  0  0  0  0  0  0  0  0  0  0  0
   12.4310   -1.7989   21.9582 C   0  0  0  0  0  0  0  0  0  0  0  0
   13.2050   -1.0895   22.2785 H   0  0  0  0  0  0  0  0  0  0  0  0
   12.4921   -2.6974   22.5846 H   0  0  0  0  0  0  0  0  0  0  0  0
   12.6601   -2.0979   20.9272 H   0  0  0  0  0  0  0  0  0  0  0  0
    9.9137   -2.2314   22.0177 C   0  0  0  0  0  0  0  0  0  0  0  0
    8.5595   -1.6240   21.8853 C   0  0  0  0  0  0  0  0  0  0  0  0
    8.2304   -1.0641   20.7400 N   0  0  0  0  0  0  0  0  0  0  0  0
    6.9868   -0.5791   20.9596 C   0  0  0  0  0  0  0  0  0  0  0  0
    6.3135    0.1390   19.8776 C   0  0  0  0  0  0  0  0  0  0  0  0
    5.1101    0.8535   19.9865 C   0  0  0  0  0  0  0  0  0  0  0  0
    4.6279    1.4933   18.8431 C   0  0  0  0  0  0  0  0  0  0  0  0
    5.3509    1.3990   17.6476 C   0  0  0  0  0  0  0  0  0  0  0  0
    6.5061    0.7279   17.5393 N   0  0  0  0  0  0  0  0  0  0  0  0
    6.9712    0.1311   18.6373 C   0  0  0  0  0  0  0  0  0  0  0  0
    7.9275   -0.3758   18.5413 H   0  0  0  0  0  0  0  0  0  0  0  0
    4.9966    1.8861   16.7400 H   0  0  0  0  0  0  0  0  0  0  0  0
    3.7192    2.0840   18.8614 H   0  0  0  0  0  0  0  0  0  0  0  0
    4.5867    0.9258   20.9421 H   0  0  0  0  0  0  0  0  0  0  0  0
    6.5191   -0.8214   22.1665 N   0  0  0  0  0  0  0  0  0  0  0  0
    7.5386   -1.4857   22.7759 N   0  0  0  0  0  0  0  0  0  0  0  0
    7.3793   -1.8252   24.1893 C   0  0  0  0  0  0  0  0  0  0  0  0
    6.7691   -3.2006   24.4342 C   0  0  0  0  0  0  0  0  0  0  0  0
    6.6612   -3.3623   25.8082 F   0  0  0  0  0  0  0  0  0  0  0  0
    5.7681   -3.2557   23.9981 H   0  0  0  0  0  0  0  0  0  0  0  0
    7.3868   -4.0162   24.0416 H   0  0  0  0  0  0  0  0  0  0  0  0
    8.3345   -1.7478   24.7139 H   0  0  0  0  0  0  0  0  0  0  0  0
    6.6968   -1.0881   24.6234 H   0  0  0  0  0  0  0  0  0  0  0  0
   10.0460   -2.8348   21.1192 H   0  0  0  0  0  0  0  0  0  0  0  0
    9.9684   -2.8975   22.8812 H   0  0  0  0  0  0  0  0  0  0  0  0
   10.9099   -0.5664   21.1157 H   0  0  0  0  0  0  0  0  0  0  0  0
   10.7564   -1.8519   24.6550 H   0  0  0  0  0  0  0  0  0  0  0  0
   10.2218   -0.4231   26.5739 H   0  0  0  0  0  0  0  0  0  0  0  0
   10.1474    2.0592   26.2868 H   0  0  0  0  0  0  0  0  0  0  0  0
   10.6184    3.0580   24.0469 H   0  0  0  0  0  0  0  0  0  0  0  0
   10.9151    2.9200   21.7744 H   0  0  0  0  0  0  0  0  0  0  0  0
   11.9337    1.6219   21.1855 H   0  0  0  0  0  0  0  0  0  0  0  0
   10.1823    1.4883   21.0332 H   0  0  0  0  0  0  0  0  0  0  0  0
  1  2  1  0
  2  3  2  0
  3  4  1  0
  4  5  2  0
  5  6  1  0
  6  7  2  0
  7  8  1  0
  8  9  1  0
  9 10  1  0
  9 11  1  0
  9 12  1  0
  8 13  1  0
 13 14  1  0
 14 15  2  0
 15 16  1  0
 16 17  1  0
 17 18  2  0
 18 19  1  0
 19 20  2  0
 20 21  1  0
 21 22  2  0
 22 23  1  0
 20 24  1  0
 19 25  1  0
 18 26  1  0
 16 27  2  0
 27 28  1  0
 28 29  1  0
 29 30  1  0
 30 31  1  0
 30 32  1  0
 30 33  1  0
 29 34  1  0
 29 35  1  0
 13 36  1  0
 13 37  1  0
  8 38  1  0
  6 39  1  0
  5 40  1  0
  4 41  1  0
  3 42  1  0
  1 43  1  0
  1 44  1  0
  1 45  1  0
  7  2  1  0
 28 14  1  0
 22 17  1  0
M  END
>  <cnnaffinity>  (1) 
-6.17136

>  <filename>  (1) 
Cc1ccccc1C(C)Cc1nc(-c2cccnc2)nn1CCF

$$$$
