
     RDKit          3D

 43 46  0  0  0  0  0  0  0  0999 V2000
    9.0468   -4.9296   27.4271 C   0  0  0  0  0  0  0  0  0  0  0  0
    7.7363   -4.4706   26.7443 C   0  0  0  0  0  0  0  0  0  0  0  0
    7.1297   -5.6329   25.9031 C   0  0  0  0  0  0  0  0  0  0  0  0
    6.4728   -5.1721   24.5889 C   0  0  0  0  0  0  0  0  0  0  0  0
    7.4199   -4.2694   23.7927 C   0  0  0  0  0  0  0  0  0  0  0  0
    7.8069   -3.1199   24.6112 N   0  0  0  0  0  0  0  0  0  0  0  0
    7.7861   -1.7725   24.2658 C   0  0  0  0  0  0  0  0  0  0  0  0
    7.7483   -1.3262   22.8727 C   0  0  0  0  0  0  0  0  0  0  0  0
    6.8261   -0.6265   22.2422 N   0  0  0  0  0  0  0  0  0  0  0  0
    7.2838   -0.5752   20.9681 C   0  0  0  0  0  0  0  0  0  0  0  0
    6.5753    0.0820   19.8685 C   0  0  0  0  0  0  0  0  0  0  0  0
    5.3544    0.7481   20.0388 C   0  0  0  0  0  0  0  0  0  0  0  0
    4.7918    1.3761   18.9304 C   0  0  0  0  0  0  0  0  0  0  0  0
    5.4584    1.3096   17.6996 C   0  0  0  0  0  0  0  0  0  0  0  0
    6.6152    0.6547   17.5246 N   0  0  0  0  0  0  0  0  0  0  0  0
    7.1580    0.0590   18.5892 C   0  0  0  0  0  0  0  0  0  0  0  0
    8.0987   -0.4600   18.4129 H   0  0  0  0  0  0  0  0  0  0  0  0
    5.0451    1.7945   16.8176 H   0  0  0  0  0  0  0  0  0  0  0  0
    3.8629    1.9301   19.0031 H   0  0  0  0  0  0  0  0  0  0  0  0
    4.8730    0.7764   21.0208 H   0  0  0  0  0  0  0  0  0  0  0  0
    8.4445   -1.1724   20.7769 N   0  0  0  0  0  0  0  0  0  0  0  0
    8.7398   -1.6591   21.9966 N   0  0  0  0  0  0  0  0  0  0  0  0
   10.0498   -2.2546   22.1501 C   0  0  0  0  0  0  0  0  0  0  0  0
   11.1971   -1.2569   22.2583 C   0  0  0  0  0  0  0  0  0  0  0  0
   12.3522   -1.9501   22.2533 F   0  0  0  0  0  0  0  0  0  0  0  0
   11.2455   -0.3954   21.2388 F   0  0  0  0  0  0  0  0  0  0  0  0
   11.1464   -0.5515   23.4012 F   0  0  0  0  0  0  0  0  0  0  0  0
   10.2133   -2.8087   21.2301 H   0  0  0  0  0  0  0  0  0  0  0  0
   10.0708   -2.9181   23.0152 H   0  0  0  0  0  0  0  0  0  0  0  0
    7.8832   -1.1014   25.4590 C   0  0  0  0  0  0  0  0  0  0  0  0
    7.9567   -1.9799   26.5012 N   0  0  0  0  0  0  0  0  0  0  0  0
    7.8781   -3.1787   25.9691 C   0  0  0  0  0  0  0  0  0  0  0  0
    7.8863   -0.0308   25.6362 H   0  0  0  0  0  0  0  0  0  0  0  0
    8.3110   -4.8245   23.4785 H   0  0  0  0  0  0  0  0  0  0  0  0
    6.9504   -3.8860   22.8877 H   0  0  0  0  0  0  0  0  0  0  0  0
    6.1914   -6.0326   23.9755 H   0  0  0  0  0  0  0  0  0  0  0  0
    5.5584   -4.6142   24.8256 H   0  0  0  0  0  0  0  0  0  0  0  0
    7.9235   -6.3585   25.6763 H   0  0  0  0  0  0  0  0  0  0  0  0
    6.3955   -6.1666   26.5184 H   0  0  0  0  0  0  0  0  0  0  0  0
    7.0191   -4.1919   27.5233 H   0  0  0  0  0  0  0  0  0  0  0  0
    8.8644   -5.7502   28.1322 H   0  0  0  0  0  0  0  0  0  0  0  0
    9.5238   -4.1330   27.9923 H   0  0  0  0  0  0  0  0  0  0  0  0
    9.7751   -5.2642   26.6790 H   0  0  0  0  0  0  0  0  0  0  0  0
  1  2  1  0
  2  3  1  0
  3  4  1  0
  4  5  1  0
  5  6  1  0
  6  7  1  0
  7  8  1  0
  8  9  2  0
  9 10  1  0
 10 11  1  0
 11 12  2  0
 12 13  1  0
 13 14  2  0
 14 15  1  0
 15 16  2  0
 16 17  1  0
 14 18  1  0
 13 19  1  0
 12 20  1  0
 10 21  2  0
 21 22  1  0
 22 23  1  0
 23 24  1  0
 24 25  1  0
 24 26  1  0
 24 27  1  0
 23 28  1  0
 23 29  1  0
  7 30  2  0
 30 31  1  0
 31 32  2  0
 30 33  1  0
  5 34  1  0
  5 35  1  0
  4 36  1  0
  4 37  1  0
  3 38  1  0
  3 39  1  0
  2 40  1  0
  1 41  1  0
  1 42  1  0
  1 43  1  0
 32  2  1  0
 32  6  1  0
 22  8  1  0
 16 11  1  0
M  END
>  <cnnaffinity>  (1) 
-6.27852

>  <filename>  (1) 
CC1CCCn2c(-c3nc(-c4cccnc4)nn3CC(F)(F)F)cnc21

$$$$
