
     RDKit          3D

 34 36  0  0  0  0  0  0  0  0999 V2000
    7.4355   -4.5873   24.5491 C   0  0  0  0  0  0  0  0  0  0  0  0
    6.1395   -4.8078   23.7996 C   0  0  0  0  0  0  0  0  0  0  0  0
    5.3465   -5.9154   24.0806 C   0  0  0  0  0  0  0  0  0  0  0  0
    4.1060   -6.1098   23.4060 C   0  0  0  0  0  0  0  0  0  0  0  0
    3.6933   -5.1421   22.4733 C   0  0  0  0  0  0  0  0  0  0  0  0
    4.5008   -4.0550   22.1163 C   0  0  0  0  0  0  0  0  0  0  0  0
    5.7035   -3.8903   22.7760 C   0  0  0  0  0  0  0  0  0  0  0  0
    6.5135   -2.7701   22.4280 N   0  0  0  0  0  0  0  0  0  0  0  0
    6.6093   -2.2687   21.1543 C   0  0  0  0  0  0  0  0  0  0  0  0
    6.2330   -2.8823   20.1740 O   0  0  0  0  0  0  0  0  0  0  0  0
    7.3028   -0.8366   20.9770 C   0  0  0  0  0  0  0  0  0  0  0  0
    8.6116   -1.0618   20.6602 F   0  0  0  0  0  0  0  0  0  0  0  0
    7.3254   -0.1646   22.1801 F   0  0  0  0  0  0  0  0  0  0  0  0
    6.6595    0.0415   19.9245 C   0  0  0  0  0  0  0  0  0  0  0  0
    5.4490    0.7049   20.1646 C   0  0  0  0  0  0  0  0  0  0  0  0
    4.8259    1.3322   19.0853 C   0  0  0  0  0  0  0  0  0  0  0  0
    5.4443    1.3076   17.8302 C   0  0  0  0  0  0  0  0  0  0  0  0
    6.6216    0.7091   17.6022 N   0  0  0  0  0  0  0  0  0  0  0  0
    7.2090    0.0975   18.6344 C   0  0  0  0  0  0  0  0  0  0  0  0
    8.1604   -0.3864   18.4296 H   0  0  0  0  0  0  0  0  0  0  0  0
    4.9751    1.7932   16.9743 H   0  0  0  0  0  0  0  0  0  0  0  0
    3.8784    1.8420   19.2004 H   0  0  0  0  0  0  0  0  0  0  0  0
    5.0115    0.7462   21.1645 H   0  0  0  0  0  0  0  0  0  0  0  0
    6.8196   -2.1752   23.1783 H   0  0  0  0  0  0  0  0  0  0  0  0
    4.2126   -3.3731   21.3398 H   0  0  0  0  0  0  0  0  0  0  0  0
    2.4794   -5.5329   22.0089 N   0  0  0  0  0  0  0  0  0  0  0  0
    2.0940   -6.7224   22.5244 N   0  0  0  0  0  0  0  0  0  0  0  0
    3.0509   -7.0831   23.3608 C   0  0  0  0  0  0  0  0  0  0  0  0
    2.9678   -8.0406   23.8573 H   0  0  0  0  0  0  0  0  0  0  0  0
    1.9787   -5.1130   21.2402 H   0  0  0  0  0  0  0  0  0  0  0  0
    5.7018   -6.6327   24.8170 H   0  0  0  0  0  0  0  0  0  0  0  0
    7.7224   -5.4584   25.1473 H   0  0  0  0  0  0  0  0  0  0  0  0
    8.2633   -4.3733   23.8648 H   0  0  0  0  0  0  0  0  0  0  0  0
    7.3669   -3.7437   25.2459 H   0  0  0  0  0  0  0  0  0  0  0  0
  1  2  1  0
  2  3  2  0
  3  4  1  0
  4  5  2  0
  5  6  1  0
  6  7  2  0
  7  8  1  0
  8  9  1  0
  9 10  2  0
  9 11  1  0
 11 12  1  0
 11 13  1  0
 11 14  1  0
 14 15  2  0
 15 16  1  0
 16 17  2  0
 17 18  1  0
 18 19  2  0
 19 20  1  0
 17 21  1  0
 16 22  1  0
 15 23  1  0
  8 24  1  0
  6 25  1  0
  5 26  1  0
 26 27  1  0
 27 28  2  0
 28 29  1  0
 26 30  1  0
  3 31  1  0
  1 32  1  0
  1 33  1  0
  1 34  1  0
  7  2  1  0
 19 14  1  0
 28  4  1  0
M  END
>  <cnnaffinity>  (1) 
-5.31134

>  <filename>  (1) 
Cc1cc2cn[nH]c2cc1NC(=O)C(F)(F)c1cccnc1

$$$$
