
     RDKit          3D

 39 41  0  0  0  0  0  0  0  0999 V2000
    4.8439   -4.5967   29.1670 C   0  0  0  0  0  0  0  0  0  0  0  0
    5.5729   -4.9300   27.8853 C   0  0  0  0  0  0  0  0  0  0  0  0
    6.8349   -5.5458   27.9338 C   0  0  0  0  0  0  0  0  0  0  0  0
    7.5194   -5.8707   26.7603 C   0  0  0  0  0  0  0  0  0  0  0  0
    6.9510   -5.5988   25.5174 C   0  0  0  0  0  0  0  0  0  0  0  0
    5.6893   -4.9955   25.4612 C   0  0  0  0  0  0  0  0  0  0  0  0
    5.0711   -4.7395   24.2185 N   0  0  0  0  0  0  0  0  0  0  0  0
    5.2170   -5.5208   23.1122 C   0  0  0  0  0  0  0  0  0  0  0  0
    5.8137   -6.5766   23.0863 O   0  0  0  0  0  0  0  0  0  0  0  0
    4.6630   -4.9183   21.8597 C   0  0  0  0  0  0  0  0  0  0  0  0
    5.7087   -3.9477   21.4784 C   0  0  0  0  0  0  0  0  0  0  0  0
    6.8536   -4.3177   20.9884 N   0  0  0  0  0  0  0  0  0  0  0  0
    7.5427   -3.1368   20.8482 O   0  0  0  0  0  0  0  0  0  0  0  0
    6.7461   -2.1563   21.2659 C   0  0  0  0  0  0  0  0  0  0  0  0
    7.3082   -0.7281   21.0435 C   0  0  0  0  0  0  0  0  0  0  0  0
    8.6460   -0.8133   20.7984 F   0  0  0  0  0  0  0  0  0  0  0  0
    7.1820   -0.0199   22.2033 F   0  0  0  0  0  0  0  0  0  0  0  0
    6.6244    0.0389   19.9284 C   0  0  0  0  0  0  0  0  0  0  0  0
    5.3979    0.6787   20.1583 C   0  0  0  0  0  0  0  0  0  0  0  0
    4.7828    1.3216   19.0866 C   0  0  0  0  0  0  0  0  0  0  0  0
    5.4129    1.2978   17.8391 C   0  0  0  0  0  0  0  0  0  0  0  0
    6.5819    0.6826   17.6114 N   0  0  0  0  0  0  0  0  0  0  0  0
    7.1773    0.0766   18.6418 C   0  0  0  0  0  0  0  0  0  0  0  0
    8.1335   -0.4019   18.4327 H   0  0  0  0  0  0  0  0  0  0  0  0
    4.9545    1.7801   16.9796 H   0  0  0  0  0  0  0  0  0  0  0  0
    3.8449    1.8526   19.2057 H   0  0  0  0  0  0  0  0  0  0  0  0
    4.9523    0.6971   21.1541 H   0  0  0  0  0  0  0  0  0  0  0  0
    5.5932   -2.6011   21.7023 N   0  0  0  0  0  0  0  0  0  0  0  0
    4.5672   -5.7211   21.1334 H   0  0  0  0  0  0  0  0  0  0  0  0
    3.7082   -4.4258   22.0261 H   0  0  0  0  0  0  0  0  0  0  0  0
    4.6256   -3.8455   24.0873 H   0  0  0  0  0  0  0  0  0  0  0  0
    5.0135   -4.6437   26.6313 C   0  0  0  0  0  0  0  0  0  0  0  0
    4.0375   -4.1714   26.5505 H   0  0  0  0  0  0  0  0  0  0  0  0
    7.4555   -5.8573   24.5939 H   0  0  0  0  0  0  0  0  0  0  0  0
    8.4946   -6.3504   26.8069 H   0  0  0  0  0  0  0  0  0  0  0  0
    7.2817   -5.7700   28.8985 H   0  0  0  0  0  0  0  0  0  0  0  0
    4.2034   -5.4252   29.4964 H   0  0  0  0  0  0  0  0  0  0  0  0
    4.2060   -3.7136   29.0572 H   0  0  0  0  0  0  0  0  0  0  0  0
    5.5509   -4.3921   29.9785 H   0  0  0  0  0  0  0  0  0  0  0  0
  1  2  1  0
  2  3  2  0
  3  4  1  0
  4  5  2  0
  5  6  1  0
  6  7  1  0
  7  8  1  0
  8  9  2  0
  8 10  1  0
 10 11  1  0
 11 12  2  0
 12 13  1  0
 13 14  1  0
 14 15  1  0
 15 16  1  0
 15 17  1  0
 15 18  1  0
 18 19  2  0
 19 20  1  0
 20 21  2  0
 21 22  1  0
 22 23  2  0
 23 24  1  0
 21 25  1  0
 20 26  1  0
 19 27  1  0
 14 28  2  0
 10 29  1  0
 10 30  1  0
  7 31  1  0
  6 32  2  0
 32 33  1  0
  5 34  1  0
  4 35  1  0
  3 36  1  0
  1 37  1  0
  1 38  1  0
  1 39  1  0
 32  2  1  0
 28 11  1  0
 23 18  1  0
M  END
>  <cnnaffinity>  (1) 
-5.21134

>  <filename>  (1) 
Cc1cccc(NC(=O)Cc2noc(C(F)(F)c3cccnc3)n2)c1

$$$$
