
     RDKit          3D

 29 31  0  0  0  0  0  0  0  0999 V2000
    4.9342    1.8279   16.9608 H   0  0  0  0  0  0  0  0  0  0  0  0
    5.3824    1.3157   17.8048 C   0  0  0  0  0  0  0  0  0  0  0  0
    6.5489    0.6990   17.5565 N   0  0  0  0  0  0  0  0  0  0  0  0
    7.1493    0.0993   18.5919 C   0  0  0  0  0  0  0  0  0  0  0  0
    8.1008   -0.3855   18.3674 H   0  0  0  0  0  0  0  0  0  0  0  0
    6.6375    0.0697   19.9119 C   0  0  0  0  0  0  0  0  0  0  0  0
    7.3339   -0.6398   21.0267 C   0  0  0  0  0  0  0  0  0  0  0  0
    7.6684   -2.0369   20.9981 C   0  0  0  0  0  0  0  0  0  0  0  0
    7.3660   -2.7071   20.2067 H   0  0  0  0  0  0  0  0  0  0  0  0
    8.2722   -2.5455   22.0330 N   0  0  0  0  0  0  0  0  0  0  0  0
    8.4533   -1.3588   23.1814 S   0  0  0  0  0  0  0  0  0  0  0  0
    7.6698   -0.1274   22.2694 C   0  0  0  0  0  0  0  0  0  0  0  0
    7.3850    1.1932   22.8681 C   0  0  0  0  0  0  0  0  0  0  0  0
    6.9423    1.3407   24.1955 C   0  0  0  0  0  0  0  0  0  0  0  0
    6.7767    0.4792   24.8271 H   0  0  0  0  0  0  0  0  0  0  0  0
    6.6640    2.6180   24.6707 C   0  0  0  0  0  0  0  0  0  0  0  0
    6.3051    2.7748   25.6859 H   0  0  0  0  0  0  0  0  0  0  0  0
    6.7948    3.7279   23.9315 N   0  0  0  0  0  0  0  0  0  0  0  0
    7.2160    3.5946   22.6683 C   0  0  0  0  0  0  0  0  0  0  0  0
    7.3312    4.8521   21.8622 C   0  0  0  0  0  0  0  0  0  0  0  0
    8.3414    4.9898   21.4682 H   0  0  0  0  0  0  0  0  0  0  0  0
    7.0880    5.7018   22.4978 H   0  0  0  0  0  0  0  0  0  0  0  0
    6.6493    4.8474   21.0043 H   0  0  0  0  0  0  0  0  0  0  0  0
    7.5261    2.3503   22.1041 C   0  0  0  0  0  0  0  0  0  0  0  0
    7.8178    2.2673   21.0639 H   0  0  0  0  0  0  0  0  0  0  0  0
    5.3988    0.7019   20.1268 C   0  0  0  0  0  0  0  0  0  0  0  0
    4.9695    0.6946   21.1312 H   0  0  0  0  0  0  0  0  0  0  0  0
    4.7624    1.3333   19.0567 C   0  0  0  0  0  0  0  0  0  0  0  0
    3.8133    1.8456   19.1789 H   0  0  0  0  0  0  0  0  0  0  0  0
  1  2  1  0
  2  3  2  0
  3  4  1  0
  4  5  1  0
  4  6  2  0
  6  7  1  0
  7  8  1  0
  8  9  1  0
  8 10  2  0
 10 11  1  0
 11 12  1  0
 12 13  1  0
 13 14  2  0
 14 15  1  0
 14 16  1  0
 16 17  1  0
 16 18  2  0
 18 19  1  0
 19 20  1  0
 20 21  1  0
 20 22  1  0
 20 23  1  0
 19 24  2  0
 24 25  1  0
  6 26  1  0
 26 27  1  0
 26 28  2  0
 28 29  1  0
 28  2  1  0
 12  7  2  0
 24 13  1  0
M  END
>  <cnnaffinity>  (1) 
-5.00052

>  <filename>  (1) 
Cc1cc(-c2sncc2-c2cccnc2)ccn1

$$$$
