
     RDKit          3D

 33 34  0  0  0  0  0  0  0  0999 V2000
    8.2914   -2.7235   24.7884 C   0  0  0  0  0  0  0  0  0  0  0  0
    9.3862   -2.1637   23.9121 C   0  0  0  0  0  0  0  0  0  0  0  0
   10.5582   -2.8947   23.6645 C   0  0  0  0  0  0  0  0  0  0  0  0
   10.9079   -4.5170   24.6243 Br  0  0  0  0  0  0  0  0  0  0  0  0
   11.4864   -2.4147   22.7342 C   0  0  0  0  0  0  0  0  0  0  0  0
   11.2949   -1.1798   22.1095 C   0  0  0  0  0  0  0  0  0  0  0  0
   10.1615   -0.4238   22.3972 C   0  0  0  0  0  0  0  0  0  0  0  0
    9.2001   -0.9180   23.2773 C   0  0  0  0  0  0  0  0  0  0  0  0
    7.9414   -0.1352   23.4632 C   0  0  0  0  0  0  0  0  0  0  0  0
    6.8337   -1.0285   23.0959 N   0  0  0  0  0  0  0  0  0  0  0  0
    6.5922   -1.4011   21.7890 C   0  0  0  0  0  0  0  0  0  0  0  0
    5.6686   -2.7591   21.5342 S   0  0  0  0  0  0  0  0  0  0  0  0
    7.3269   -0.8146   20.7662 N   0  0  0  0  0  0  0  0  0  0  0  0
    6.7015   -0.0967   19.7223 C   0  0  0  0  0  0  0  0  0  0  0  0
    5.4397    0.4743   19.9215 C   0  0  0  0  0  0  0  0  0  0  0  0
    4.8572    1.2017   18.8760 C   0  0  0  0  0  0  0  0  0  0  0  0
    5.5404    1.3341   17.6581 C   0  0  0  0  0  0  0  0  0  0  0  0
    6.7595    0.8071   17.4504 N   0  0  0  0  0  0  0  0  0  0  0  0
    7.3268    0.1199   18.4678 C   0  0  0  0  0  0  0  0  0  0  0  0
    8.3183   -0.2933   18.3115 H   0  0  0  0  0  0  0  0  0  0  0  0
    5.0648    1.8866   16.8525 H   0  0  0  0  0  0  0  0  0  0  0  0
    3.8915    1.6825   18.9927 H   0  0  0  0  0  0  0  0  0  0  0  0
    4.9418    0.3731   20.8847 H   0  0  0  0  0  0  0  0  0  0  0  0
    8.1850   -0.4020   21.1181 H   0  0  0  0  0  0  0  0  0  0  0  0
    6.5501   -1.7283   23.7728 H   0  0  0  0  0  0  0  0  0  0  0  0
    7.8627    0.2066   24.5011 H   0  0  0  0  0  0  0  0  0  0  0  0
    7.9368    0.7522   22.8177 H   0  0  0  0  0  0  0  0  0  0  0  0
   10.0198    0.5497   21.9316 H   0  0  0  0  0  0  0  0  0  0  0  0
   12.0374   -0.7946   21.4231 H   0  0  0  0  0  0  0  0  0  0  0  0
   12.3898   -2.9872   22.5458 H   0  0  0  0  0  0  0  0  0  0  0  0
    7.8040   -1.9213   25.3553 H   0  0  0  0  0  0  0  0  0  0  0  0
    8.6810   -3.4761   25.4815 H   0  0  0  0  0  0  0  0  0  0  0  0
    7.5426   -3.2107   24.1580 H   0  0  0  0  0  0  0  0  0  0  0  0
  1  2  1  0
  2  3  2  0
  3  4  1  0
  3  5  1  0
  5  6  2  0
  6  7  1  0
  7  8  2  0
  8  9  1  0
  9 10  1  0
 10 11  1  0
 11 12  2  0
 11 13  1  0
 13 14  1  0
 14 15  2  0
 15 16  1  0
 16 17  2  0
 17 18  1  0
 18 19  2  0
 19 20  1  0
 17 21  1  0
 16 22  1  0
 15 23  1  0
 13 24  1  0
 10 25  1  0
  9 26  1  0
  9 27  1  0
  7 28  1  0
  6 29  1  0
  5 30  1  0
  1 31  1  0
  1 32  1  0
  1 33  1  0
  8  2  1  0
 19 14  1  0
M  END
>  <cnnaffinity>  (1) 
-5.40553

>  <filename>  (1) 
Cc1c(Br)cccc1CNC(=S)Nc1cccnc1

$$$$
