
     RDKit          3D

 45 48  0  0  0  0  0  0  0  0999 V2000
    9.1193    4.8332   22.5215 C   0  0  0  0  0  0  0  0  0  0  0  0
    9.1599    4.1429   23.8390 C   0  0  0  0  0  0  0  0  0  0  0  0
    9.0406    2.7884   24.1079 C   0  0  0  0  0  0  0  0  0  0  0  0
    9.0298    1.7911   23.0032 C   0  0  0  0  0  0  0  0  0  0  0  0
    8.0330    0.9372   22.8074 N   0  0  0  0  0  0  0  0  0  0  0  0
    8.3401    0.3581   21.6221 C   0  0  0  0  0  0  0  0  0  0  0  0
    7.4599   -0.6480   20.9322 C   0  0  0  0  0  0  0  0  0  0  0  0
    6.6599   -0.0411   19.7848 C   0  0  0  0  0  0  0  0  0  0  0  0
    5.4592    0.6259   20.0566 C   0  0  0  0  0  0  0  0  0  0  0  0
    4.8087    1.3091   19.0280 C   0  0  0  0  0  0  0  0  0  0  0  0
    5.3908    1.3007   17.7568 C   0  0  0  0  0  0  0  0  0  0  0  0
    6.5241    0.6444   17.4623 N   0  0  0  0  0  0  0  0  0  0  0  0
    7.1292   -0.0124   18.4605 C   0  0  0  0  0  0  0  0  0  0  0  0
    8.0475   -0.5431   18.2009 H   0  0  0  0  0  0  0  0  0  0  0  0
    4.9315    1.8473   16.9366 H   0  0  0  0  0  0  0  0  0  0  0  0
    3.8839    1.8520   19.2010 H   0  0  0  0  0  0  0  0  0  0  0  0
    5.0476    0.6066   21.0668 H   0  0  0  0  0  0  0  0  0  0  0  0
    8.0868   -1.4735   20.5735 H   0  0  0  0  0  0  0  0  0  0  0  0
    6.7750   -1.0471   21.6877 H   0  0  0  0  0  0  0  0  0  0  0  0
    9.4748    0.7694   21.0900 N   0  0  0  0  0  0  0  0  0  0  0  0
    9.9248    1.6939   21.9799 N   0  0  0  0  0  0  0  0  0  0  0  0
   11.3224    2.1137   21.8497 C   0  0  0  0  0  0  0  0  0  0  0  0
   12.3215    1.1161   22.4533 C   0  0  0  0  0  0  0  0  0  0  0  0
   12.2303    0.9388   23.9591 C   0  0  0  0  0  0  0  0  0  0  0  0
   11.2578    0.0789   24.3136 F   0  0  0  0  0  0  0  0  0  0  0  0
   13.3879    0.4525   24.4509 F   0  0  0  0  0  0  0  0  0  0  0  0
   11.9876    2.0968   24.6008 F   0  0  0  0  0  0  0  0  0  0  0  0
   13.3445    1.4345   22.2320 H   0  0  0  0  0  0  0  0  0  0  0  0
   12.1783    0.1327   21.9991 H   0  0  0  0  0  0  0  0  0  0  0  0
   11.5047    2.1904   20.7749 H   0  0  0  0  0  0  0  0  0  0  0  0
   11.4468    3.1033   22.2945 H   0  0  0  0  0  0  0  0  0  0  0  0
    8.7877    2.3558   25.4540 C   0  0  0  0  0  0  0  0  0  0  0  0
    8.7629    3.2412   26.5107 C   0  0  0  0  0  0  0  0  0  0  0  0
    9.0776    4.6178   26.2671 C   0  0  0  0  0  0  0  0  0  0  0  0
    9.3377    5.7691   26.9848 C   0  0  0  0  0  0  0  0  0  0  0  0
    9.6737    6.8061   26.1639 N   0  0  0  0  0  0  0  0  0  0  0  0
    9.6249    6.3256   24.9475 C   0  0  0  0  0  0  0  0  0  0  0  0
    9.2733    5.0056   24.9262 N   0  0  0  0  0  0  0  0  0  0  0  0
    9.8288    6.8654   24.0324 H   0  0  0  0  0  0  0  0  0  0  0  0
    9.3285    5.8743   28.0596 H   0  0  0  0  0  0  0  0  0  0  0  0
    8.5165    2.9006   27.5097 H   0  0  0  0  0  0  0  0  0  0  0  0
    8.6088    1.3007   25.6534 H   0  0  0  0  0  0  0  0  0  0  0  0
    8.4108    5.6725   22.5347 H   0  0  0  0  0  0  0  0  0  0  0  0
    8.8319    4.1434   21.7321 H   0  0  0  0  0  0  0  0  0  0  0  0
   10.1056    5.2606   22.2954 H   0  0  0  0  0  0  0  0  0  0  0  0
  1  2  1  0
  2  3  2  0
  3  4  1  0
  4  5  2  0
  5  6  1  0
  6  7  1  0
  7  8  1  0
  8  9  2  0
  9 10  1  0
 10 11  2  0
 11 12  1  0
 12 13  2  0
 13 14  1  0
 11 15  1  0
 10 16  1  0
  9 17  1  0
  7 18  1  0
  7 19  1  0
  6 20  2  0
 20 21  1  0
 21 22  1  0
 22 23  1  0
 23 24  1  0
 24 25  1  0
 24 26  1  0
 24 27  1  0
 23 28  1  0
 23 29  1  0
 22 30  1  0
 22 31  1  0
  3 32  1  0
 32 33  2  0
 33 34  1  0
 34 35  2  0
 35 36  1  0
 36 37  2  0
 37 38  1  0
 37 39  1  0
 35 40  1  0
 33 41  1  0
 32 42  1  0
  1 43  1  0
  1 44  1  0
  1 45  1  0
 38  2  1  0
 21  4  1  0
 38 34  1  0
 13  8  1  0
M  END
>  <cnnaffinity>  (1) 
-5.87619

>  <filename>  (1) 
Cc1c(-c2nc(Cc3cccnc3)nn2CCC(F)(F)F)ccc2cncn12

$$$$
