
     RDKit          3D

 35 38  0  0  0  0  0  0  0  0999 V2000
   12.8615    6.0941   22.9264 C   0  0  0  0  0  0  0  0  0  0  0  0
   12.7526    4.6160   23.0986 C   0  0  0  0  0  0  0  0  0  0  0  0
   13.4757    3.6794   22.4389 C   0  0  0  0  0  0  0  0  0  0  0  0
   13.0121    2.1017   22.9507 S   0  0  0  0  0  0  0  0  0  0  0  0
   11.8209    2.8343   23.9779 C   0  0  0  0  0  0  0  0  0  0  0  0
   10.6314    1.8800   24.8484 S   0  0  0  0  0  0  0  0  0  0  0  0
    9.3359    1.7819   23.5578 C   0  0  0  0  0  0  0  0  0  0  0  0
    8.1533    0.9528   24.0760 C   0  0  0  0  0  0  0  0  0  0  0  0
    7.0603    0.8210   22.9901 C   0  0  0  0  0  0  0  0  0  0  0  0
    7.5137   -0.2918   22.1775 N   0  0  0  0  0  0  0  0  0  0  0  0
    8.3383   -1.1963   22.7711 C   0  0  0  0  0  0  0  0  0  0  0  0
    8.7452   -2.0999   21.9240 N   0  0  0  0  0  0  0  0  0  0  0  0
    8.1731   -1.7680   20.7102 N   0  0  0  0  0  0  0  0  0  0  0  0
    7.4352   -0.6983   20.8827 C   0  0  0  0  0  0  0  0  0  0  0  0
    6.6452   -0.0013   19.8673 C   0  0  0  0  0  0  0  0  0  0  0  0
    5.4292    0.6465   20.1255 C   0  0  0  0  0  0  0  0  0  0  0  0
    4.8046    1.3087   19.0728 C   0  0  0  0  0  0  0  0  0  0  0  0
    5.4127    1.3046   17.8111 C   0  0  0  0  0  0  0  0  0  0  0  0
    6.5653    0.6670   17.5488 N   0  0  0  0  0  0  0  0  0  0  0  0
    7.1534    0.0243   18.5609 C   0  0  0  0  0  0  0  0  0  0  0  0
    8.0861   -0.4915   18.3400 H   0  0  0  0  0  0  0  0  0  0  0  0
    4.9524    1.8268   16.9757 H   0  0  0  0  0  0  0  0  0  0  0  0
    3.8707    1.8371   19.2177 H   0  0  0  0  0  0  0  0  0  0  0  0
    4.9793    0.6337   21.1225 H   0  0  0  0  0  0  0  0  0  0  0  0
    8.6621   -0.7851   24.4401 S   0  0  0  0  0  0  0  0  0  0  0  0
    6.9683    1.7308   22.3879 H   0  0  0  0  0  0  0  0  0  0  0  0
    6.0830    0.5977   23.4316 H   0  0  0  0  0  0  0  0  0  0  0  0
    7.7463    1.3810   24.9929 H   0  0  0  0  0  0  0  0  0  0  0  0
    8.9846    2.7888   23.2978 H   0  0  0  0  0  0  0  0  0  0  0  0
    9.7444    1.3035   22.6564 H   0  0  0  0  0  0  0  0  0  0  0  0
   11.8350    4.1302   23.9939 N   0  0  0  0  0  0  0  0  0  0  0  0
   14.2486    3.8560   21.7059 H   0  0  0  0  0  0  0  0  0  0  0  0
   13.6599    6.5096   23.5385 H   0  0  0  0  0  0  0  0  0  0  0  0
   11.9258    6.5650   23.2493 H   0  0  0  0  0  0  0  0  0  0  0  0
   13.0931    6.3411   21.8857 H   0  0  0  0  0  0  0  0  0  0  0  0
  1  2  1  0
  2  3  2  0
  3  4  1  0
  4  5  1  0
  5  6  1  0
  6  7  1  0
  7  8  1  0
  8  9  1  0
  9 10  1  0
 10 11  1  0
 11 12  2  0
 12 13  1  0
 13 14  2  0
 14 15  1  0
 15 16  2  0
 16 17  1  0
 17 18  2  0
 18 19  1  0
 19 20  2  0
 20 21  1  0
 18 22  1  0
 17 23  1  0
 16 24  1  0
 11 25  1  0
  9 26  1  0
  9 27  1  0
  8 28  1  0
  7 29  1  0
  7 30  1  0
  5 31  2  0
  3 32  1  0
  1 33  1  0
  1 34  1  0
  1 35  1  0
 31  2  1  0
 25  8  1  0
 14 10  1  0
 20 15  1  0
M  END
>  <cnnaffinity>  (1) 
-5.77499

>  <filename>  (1) 
Cc1csc(SCC2Cn3c(nnc3-c3cccnc3)S2)n1

$$$$
