
     RDKit          3D

 52 56  0  0  0  0  0  0  0  0999 V2000
   13.2871    0.7345   24.4445 C   0  0  0  0  0  0  0  0  0  0  0  0
   11.9266    1.0104   23.8064 C   0  0  0  0  0  0  0  0  0  0  0  0
   11.0886   -0.2762   23.7350 C   0  0  0  0  0  0  0  0  0  0  0  0
   11.5341   -0.9038   22.3965 C   0  0  0  0  0  0  0  0  0  0  0  0
   12.0953    0.1502   21.6303 O   0  0  0  0  0  0  0  0  0  0  0  0
   12.1122    1.3796   22.3285 C   0  0  0  0  0  0  0  0  0  0  0  0
   11.0592    2.3464   21.7592 C   0  0  0  0  0  0  0  0  0  0  0  0
    9.6892    1.7633   21.8333 C   0  0  0  0  0  0  0  0  0  0  0  0
    9.2452    0.8699   20.9751 N   0  0  0  0  0  0  0  0  0  0  0  0
    8.1479    0.3604   21.5896 C   0  0  0  0  0  0  0  0  0  0  0  0
    7.3312   -0.7113   20.9376 C   0  0  0  0  0  0  0  0  0  0  0  0
    6.5584   -0.1122   19.7789 C   0  0  0  0  0  0  0  0  0  0  0  0
    5.3874    0.6096   20.0309 C   0  0  0  0  0  0  0  0  0  0  0  0
    4.7923    1.3156   18.9837 C   0  0  0  0  0  0  0  0  0  0  0  0
    5.4023    1.2854   17.7239 C   0  0  0  0  0  0  0  0  0  0  0  0
    6.5268    0.6023   17.4599 N   0  0  0  0  0  0  0  0  0  0  0  0
    7.0862   -0.0649   18.4767 C   0  0  0  0  0  0  0  0  0  0  0  0
    8.0320   -0.5653   18.2649 H   0  0  0  0  0  0  0  0  0  0  0  0
    4.9765    1.8409   16.8908 H   0  0  0  0  0  0  0  0  0  0  0  0
    3.9007    1.9148   19.1348 H   0  0  0  0  0  0  0  0  0  0  0  0
    4.9783    0.6383   21.0442 H   0  0  0  0  0  0  0  0  0  0  0  0
    6.6761   -1.1310   21.7039 H   0  0  0  0  0  0  0  0  0  0  0  0
    8.0113   -1.4991   20.5989 H   0  0  0  0  0  0  0  0  0  0  0  0
    7.8593    0.8935   22.7548 N   0  0  0  0  0  0  0  0  0  0  0  0
    8.8287    1.8504   22.8963 N   0  0  0  0  0  0  0  0  0  0  0  0
    8.7809    2.7723   23.9901 C   0  0  0  0  0  0  0  0  0  0  0  0
    8.6107    2.2970   25.2740 C   0  0  0  0  0  0  0  0  0  0  0  0
    8.7041    3.1705   26.3877 C   0  0  0  0  0  0  0  0  0  0  0  0
    8.9583    4.5146   26.2042 C   0  0  0  0  0  0  0  0  0  0  0  0
    9.0850    5.0458   24.8890 C   0  0  0  0  0  0  0  0  0  0  0  0
    9.3633    6.3875   24.7689 N   0  0  0  0  0  0  0  0  0  0  0  0
    9.3599    6.8973   23.5602 C   0  0  0  0  0  0  0  0  0  0  0  0
    9.0529    6.1690   22.3812 C   0  0  0  0  0  0  0  0  0  0  0  0
    8.8109    4.8181   22.4782 C   0  0  0  0  0  0  0  0  0  0  0  0
    8.9045    4.1881   23.7573 C   0  0  0  0  0  0  0  0  0  0  0  0
    8.5676    4.2116   21.6080 H   0  0  0  0  0  0  0  0  0  0  0  0
    9.0039    6.6764   21.4257 H   0  0  0  0  0  0  0  0  0  0  0  0
    9.5916    7.9583   23.4783 H   0  0  0  0  0  0  0  0  0  0  0  0
    9.0387    5.2359   27.0099 H   0  0  0  0  0  0  0  0  0  0  0  0
    8.5707    2.7526   27.3855 H   0  0  0  0  0  0  0  0  0  0  0  0
    8.3922    1.2429   25.4203 H   0  0  0  0  0  0  0  0  0  0  0  0
   11.1199    3.3008   22.2880 H   0  0  0  0  0  0  0  0  0  0  0  0
   11.2930    2.5038   20.7041 H   0  0  0  0  0  0  0  0  0  0  0  0
   13.0989    1.8244   22.1491 H   0  0  0  0  0  0  0  0  0  0  0  0
   12.2995   -1.6857   22.5048 H   0  0  0  0  0  0  0  0  0  0  0  0
   10.7054   -1.3300   21.8208 H   0  0  0  0  0  0  0  0  0  0  0  0
   10.0181   -0.0577   23.7103 H   0  0  0  0  0  0  0  0  0  0  0  0
   11.2395   -0.9125   24.6132 H   0  0  0  0  0  0  0  0  0  0  0  0
   11.4213    1.8251   24.3473 H   0  0  0  0  0  0  0  0  0  0  0  0
   13.8540   -0.0327   23.8983 H   0  0  0  0  0  0  0  0  0  0  0  0
   13.1716    0.4151   25.4835 H   0  0  0  0  0  0  0  0  0  0  0  0
   13.8854    1.6407   24.4099 H   0  0  0  0  0  0  0  0  0  0  0  0
  1  2  1  0
  2  3  1  0
  3  4  1  0
  4  5  1  0
  5  6  1  0
  6  7  1  0
  7  8  1  0
  8  9  2  0
  9 10  1  0
 10 11  1  0
 11 12  1  0
 12 13  2  0
 13 14  1  0
 14 15  2  0
 15 16  1  0
 16 17  2  0
 17 18  1  0
 15 19  1  0
 14 20  1  0
 13 21  1  0
 11 22  1  0
 11 23  1  0
 10 24  2  0
 24 25  1  0
 25 26  1  0
 26 27  2  0
 27 28  1  0
 28 29  2  0
 29 30  1  0
 30 31  2  0
 31 32  1  0
 32 33  2  0
 33 34  1  0
 34 35  2  0
 34 36  1  0
 33 37  1  0
 32 38  1  0
 29 39  1  0
 28 40  1  0
 27 41  1  0
  7 42  1  0
  7 43  1  0
  6 44  1  0
  4 45  1  0
  4 46  1  0
  3 47  1  0
  3 48  1  0
  2 49  1  0
  1 50  1  0
  1 51  1  0
  1 52  1  0
  6  2  1  0
 25  8  1  0
 35 26  1  0
 17 12  1  0
 35 30  1  0
M  END
>  <cnnaffinity>  (1) 
-5.86074

>  <filename>  (1) 
CC1CCOC1Cc1nc(Cc2cccnc2)nn1-c1cccc2ncccc12

$$$$
