
     RDKit          3D

 31 33  0  0  0  0  0  0  0  0999 V2000
    5.1571    1.7580   16.9109 H   0  0  0  0  0  0  0  0  0  0  0  0
    5.5564    1.2399   17.7807 C   0  0  0  0  0  0  0  0  0  0  0  0
    6.7023    0.5662   17.5944 N   0  0  0  0  0  0  0  0  0  0  0  0
    7.2317   -0.0625   18.6479 C   0  0  0  0  0  0  0  0  0  0  0  0
    8.1562   -0.6146   18.4745 H   0  0  0  0  0  0  0  0  0  0  0  0
    6.6590   -0.0302   19.9273 C   0  0  0  0  0  0  0  0  0  0  0  0
    7.3848   -0.6710   21.0171 C   0  0  0  0  0  0  0  0  0  0  0  0
    8.3957   -1.5122   20.9143 N   0  0  0  0  0  0  0  0  0  0  0  0
    8.6591   -1.8176   22.2019 C   0  0  0  0  0  0  0  0  0  0  0  0
    9.6387   -2.6881   22.4659 O   0  0  0  0  0  0  0  0  0  0  0  0
    9.6930   -3.4063   23.6564 C   0  0  0  0  0  0  0  0  0  0  0  0
   10.9713   -3.8605   23.9883 C   0  0  0  0  0  0  0  0  0  0  0  0
   11.8062   -3.5491   23.3728 H   0  0  0  0  0  0  0  0  0  0  0  0
   11.1360   -4.7460   25.0497 C   0  0  0  0  0  0  0  0  0  0  0  0
   12.1237   -5.1206   25.3025 H   0  0  0  0  0  0  0  0  0  0  0  0
   10.0292   -5.1365   25.8021 C   0  0  0  0  0  0  0  0  0  0  0  0
   10.1475   -5.8671   26.5982 H   0  0  0  0  0  0  0  0  0  0  0  0
    8.7590   -4.6020   25.5372 C   0  0  0  0  0  0  0  0  0  0  0  0
    7.6242   -4.9341   26.4805 C   0  0  0  0  0  0  0  0  0  0  0  0
    7.2175   -5.9395   26.3249 H   0  0  0  0  0  0  0  0  0  0  0  0
    6.7931   -4.2280   26.4076 H   0  0  0  0  0  0  0  0  0  0  0  0
    7.9709   -4.9073   27.5183 H   0  0  0  0  0  0  0  0  0  0  0  0
    8.5782   -3.7532   24.4301 C   0  0  0  0  0  0  0  0  0  0  0  0
    7.5985   -3.3424   24.1859 H   0  0  0  0  0  0  0  0  0  0  0  0
    7.9197   -1.1998   23.1093 N   0  0  0  0  0  0  0  0  0  0  0  0
    7.0953   -0.4684   22.3158 N   0  0  0  0  0  0  0  0  0  0  0  0
    6.3609    0.0984   22.7125 H   0  0  0  0  0  0  0  0  0  0  0  0
    5.4302    0.6303   20.0981 C   0  0  0  0  0  0  0  0  0  0  0  0
    4.9103    0.6301   21.0603 H   0  0  0  0  0  0  0  0  0  0  0  0
    4.8770    1.2863   19.0038 C   0  0  0  0  0  0  0  0  0  0  0  0
    3.9482    1.8408   19.0907 H   0  0  0  0  0  0  0  0  0  0  0  0
  1  2  1  0
  2  3  2  0
  3  4  1  0
  4  5  1  0
  4  6  2  0
  6  7  1  0
  7  8  2  0
  8  9  1  0
  9 10  1  0
 10 11  1  0
 11 12  2  0
 12 13  1  0
 12 14  1  0
 14 15  1  0
 14 16  2  0
 16 17  1  0
 16 18  1  0
 18 19  1  0
 19 20  1  0
 19 21  1  0
 19 22  1  0
 18 23  2  0
 23 24  1  0
  9 25  2  0
 25 26  1  0
 26 27  1  0
  6 28  1  0
 28 29  1  0
 28 30  2  0
 30 31  1  0
 30  2  1  0
 26  7  1  0
 23 11  1  0
M  END
>  <cnnaffinity>  (1) 
-5.20672

>  <filename>  (1) 
Cc1cccc(Oc2n[nH]c(-c3cccnc3)n2)c1

$$$$
