
     RDKit          3D

 39 41  0  0  0  0  0  0  0  0999 V2000
    9.3761    0.7180   20.8464 C   0  0  0  0  0  0  0  0  0  0  0  0
    8.5530   -0.3903   21.4246 C   0  0  0  0  0  0  0  0  0  0  0  0
    8.8734   -1.1910   22.4888 C   0  0  0  0  0  0  0  0  0  0  0  0
    7.8174   -2.1840   22.6178 C   0  0  0  0  0  0  0  0  0  0  0  0
    7.7514   -3.2428   23.6230 C   0  0  0  0  0  0  0  0  0  0  0  0
    8.7821   -3.7745   24.0170 O   0  0  0  0  0  0  0  0  0  0  0  0
    6.5245   -3.6228   24.1296 N   0  0  0  0  0  0  0  0  0  0  0  0
    6.3547   -4.5638   25.1328 C   0  0  0  0  0  0  0  0  0  0  0  0
    5.1355   -5.2254   25.2168 C   0  0  0  0  0  0  0  0  0  0  0  0
    4.9330   -6.2203   26.1800 C   0  0  0  0  0  0  0  0  0  0  0  0
    5.9446   -6.5248   27.0982 C   0  0  0  0  0  0  0  0  0  0  0  0
    5.6346   -7.8574   28.4414 Br  0  0  0  0  0  0  0  0  0  0  0  0
    7.1701   -5.8467   27.0260 C   0  0  0  0  0  0  0  0  0  0  0  0
    7.3754   -4.8740   26.0372 C   0  0  0  0  0  0  0  0  0  0  0  0
    8.3247   -4.3530   25.9767 H   0  0  0  0  0  0  0  0  0  0  0  0
    7.9594   -6.0841   27.7346 H   0  0  0  0  0  0  0  0  0  0  0  0
    3.9923   -6.7622   26.2184 H   0  0  0  0  0  0  0  0  0  0  0  0
    4.3558   -4.9735   24.5096 H   0  0  0  0  0  0  0  0  0  0  0  0
    5.6971   -3.2075   23.7156 H   0  0  0  0  0  0  0  0  0  0  0  0
    6.9226   -1.9453   21.5985 C   0  0  0  0  0  0  0  0  0  0  0  0
    5.7944   -2.8462   21.1998 C   0  0  0  0  0  0  0  0  0  0  0  0
    5.7521   -2.9203   20.1065 H   0  0  0  0  0  0  0  0  0  0  0  0
    4.8518   -2.4545   21.5823 H   0  0  0  0  0  0  0  0  0  0  0  0
    5.9557   -3.8521   21.5987 H   0  0  0  0  0  0  0  0  0  0  0  0
    7.3224   -0.7947   20.9203 N   0  0  0  0  0  0  0  0  0  0  0  0
    6.6243   -0.1047   19.9254 C   0  0  0  0  0  0  0  0  0  0  0  0
    5.3968    0.5328   20.1596 C   0  0  0  0  0  0  0  0  0  0  0  0
    4.8330    1.2346   19.0885 C   0  0  0  0  0  0  0  0  0  0  0  0
    5.4808    1.2791   17.8449 C   0  0  0  0  0  0  0  0  0  0  0  0
    6.6631    0.6756   17.6313 N   0  0  0  0  0  0  0  0  0  0  0  0
    7.2180    0.0169   18.6628 C   0  0  0  0  0  0  0  0  0  0  0  0
    8.1792   -0.4647   18.5229 H   0  0  0  0  0  0  0  0  0  0  0  0
    5.0324    1.8347   17.0269 H   0  0  0  0  0  0  0  0  0  0  0  0
    3.8978    1.7696   19.2005 H   0  0  0  0  0  0  0  0  0  0  0  0
    4.9088    0.5173   21.1382 H   0  0  0  0  0  0  0  0  0  0  0  0
    9.7656   -1.1273   23.1046 H   0  0  0  0  0  0  0  0  0  0  0  0
    8.8606    1.6764   20.9417 H   0  0  0  0  0  0  0  0  0  0  0  0
    9.5357    0.5144   19.7851 H   0  0  0  0  0  0  0  0  0  0  0  0
   10.3404    0.7858   21.3547 H   0  0  0  0  0  0  0  0  0  0  0  0
  1  2  1  0
  2  3  2  0
  3  4  1  0
  4  5  1  0
  5  6  2  0
  5  7  1  0
  7  8  1  0
  8  9  2  0
  9 10  1  0
 10 11  2  0
 11 12  1  0
 11 13  1  0
 13 14  2  0
 14 15  1  0
 13 16  1  0
 10 17  1  0
  9 18  1  0
  7 19  1  0
  4 20  2  0
 20 21  1  0
 21 22  1  0
 21 23  1  0
 21 24  1  0
 20 25  1  0
 25 26  1  0
 26 27  2  0
 27 28  1  0
 28 29  2  0
 29 30  1  0
 30 31  2  0
 31 32  1  0
 29 33  1  0
 28 34  1  0
 27 35  1  0
  3 36  1  0
  1 37  1  0
  1 38  1  0
  1 39  1  0
 25  2  1  0
 31 26  1  0
 14  8  1  0
M  END
>  <cnnaffinity>  (1) 
-5.43462

>  <filename>  (1) 
Cc1cc(C(=O)Nc2ccc(Br)cc2)c(C)n1-c1cccnc1

$$$$
