
     RDKit          3D

 32 33  0  0  0  0  0  0  0  0999 V2000
    4.9963    1.7499   16.8591 H   0  0  0  0  0  0  0  0  0  0  0  0
    5.4056    1.3068   17.7632 C   0  0  0  0  0  0  0  0  0  0  0  0
    6.5768    0.6687   17.6197 N   0  0  0  0  0  0  0  0  0  0  0  0
    7.1173    0.1284   18.7208 C   0  0  0  0  0  0  0  0  0  0  0  0
    8.0558   -0.4033   18.5541 H   0  0  0  0  0  0  0  0  0  0  0  0
    6.5595    0.1983   20.0131 C   0  0  0  0  0  0  0  0  0  0  0  0
    7.2850   -0.4151   21.2105 C   0  0  2  0  0  0  0  0  0  0  0  0
    6.6853   -0.2306   22.1181 H   0  0  0  0  0  0  0  0  0  0  0  0
    8.6775    0.2111   21.4242 C   0  0  0  0  0  0  0  0  0  0  0  0
    8.6102    1.2949   21.5489 H   0  0  0  0  0  0  0  0  0  0  0  0
    9.3491    0.0075   20.5775 H   0  0  0  0  0  0  0  0  0  0  0  0
    9.1606   -0.1813   22.3255 H   0  0  0  0  0  0  0  0  0  0  0  0
    7.4194   -1.9475   21.0107 C   0  0  0  0  0  0  0  0  0  0  0  0
    8.1119   -2.0886   20.1780 H   0  0  0  0  0  0  0  0  0  0  0  0
    6.4519   -2.3757   20.7266 H   0  0  0  0  0  0  0  0  0  0  0  0
    7.9169   -2.7050   22.2182 C   0  0  0  0  0  0  0  0  0  0  0  0
    6.9720   -3.1769   23.0453 N   0  0  0  0  0  0  0  0  0  0  0  0
    7.3400   -3.8622   24.1357 C   0  0  0  0  0  0  0  0  0  0  0  0
    6.2300   -4.3288   25.0428 C   0  0  0  0  0  0  0  0  0  0  0  0
    5.2549   -4.0706   24.6252 H   0  0  0  0  0  0  0  0  0  0  0  0
    6.2690   -5.4144   25.1888 H   0  0  0  0  0  0  0  0  0  0  0  0
    6.3105   -3.8618   26.0317 H   0  0  0  0  0  0  0  0  0  0  0  0
    8.6839   -4.1387   24.4326 C   0  0  0  0  0  0  0  0  0  0  0  0
    8.9244   -4.6949   25.3376 H   0  0  0  0  0  0  0  0  0  0  0  0
    9.6751   -3.6687   23.5781 C   0  0  0  0  0  0  0  0  0  0  0  0
   10.7210   -3.8940   23.7868 H   0  0  0  0  0  0  0  0  0  0  0  0
    9.2833   -2.9075   22.4657 C   0  0  0  0  0  0  0  0  0  0  0  0
   10.0084   -2.4464   21.8071 H   0  0  0  0  0  0  0  0  0  0  0  0
    5.3114    0.8381   20.1218 C   0  0  0  0  0  0  0  0  0  0  0  0
    4.8125    0.8963   21.0933 H   0  0  0  0  0  0  0  0  0  0  0  0
    4.7273    1.4002   18.9831 C   0  0  0  0  0  0  0  0  0  0  0  0
    3.7742    1.9201   19.0250 H   0  0  0  0  0  0  0  0  0  0  0  0
  1  2  1  0
  2  3  2  0
  3  4  1  0
  4  5  1  0
  4  6  2  0
  6  7  1  0
  7  8  1  1
  7  9  1  0
  9 10  1  0
  9 11  1  0
  9 12  1  0
  7 13  1  0
 13 14  1  0
 13 15  1  0
 13 16  1  0
 16 17  2  0
 17 18  1  0
 18 19  1  0
 19 20  1  0
 19 21  1  0
 19 22  1  0
 18 23  2  0
 23 24  1  0
 23 25  1  0
 25 26  1  0
 25 27  2  0
 27 28  1  0
  6 29  1  0
 29 30  1  0
 29 31  2  0
 31 32  1  0
 31  2  1  0
 27 16  1  0
M  END
>  <cnnaffinity>  (1) 
-4.46637

>  <filename>  (1) 
Cc1cccc(C[C@@H](C)c2cccnc2)n1

$$$$
