
     RDKit          3D

 49 52  0  0  0  0  0  0  0  0999 V2000
   11.7400    6.3707   24.4039 C   0  0  0  0  0  0  0  0  0  0  0  0
   10.8458    5.4244   23.6313 C   0  0  0  0  0  0  0  0  0  0  0  0
   11.2465    4.1056   23.3751 C   0  0  0  0  0  0  0  0  0  0  0  0
   10.4147    3.2138   22.6919 C   0  0  0  0  0  0  0  0  0  0  0  0
    9.1580    3.6141   22.2205 C   0  0  0  0  0  0  0  0  0  0  0  0
    8.2578    2.6410   21.4645 C   0  0  0  0  0  0  0  0  0  0  0  0
    8.0207    1.3828   22.1791 N   0  0  0  0  0  0  0  0  0  0  0  0
    8.4972    0.1213   21.6024 C   0  0  0  0  0  0  0  0  0  0  0  0
    7.3720   -0.7334   20.9901 C   0  0  0  0  0  0  0  0  0  0  0  0
    6.6350   -0.0417   19.8668 C   0  0  0  0  0  0  0  0  0  0  0  0
    5.4205    0.6169   20.0995 C   0  0  0  0  0  0  0  0  0  0  0  0
    4.8081    1.3093   19.0539 C   0  0  0  0  0  0  0  0  0  0  0  0
    5.4344    1.3224   17.8058 C   0  0  0  0  0  0  0  0  0  0  0  0
    6.5907    0.6924   17.5513 N   0  0  0  0  0  0  0  0  0  0  0  0
    7.1664    0.0332   18.5664 C   0  0  0  0  0  0  0  0  0  0  0  0
    8.1066   -0.4711   18.3321 H   0  0  0  0  0  0  0  0  0  0  0  0
    4.9840    1.8542   16.9705 H   0  0  0  0  0  0  0  0  0  0  0  0
    3.8709    1.8347   19.1936 H   0  0  0  0  0  0  0  0  0  0  0  0
    4.9766    0.5801   21.0959 H   0  0  0  0  0  0  0  0  0  0  0  0
    6.6767   -1.0052   21.7912 H   0  0  0  0  0  0  0  0  0  0  0  0
    7.8180   -1.6681   20.6278 H   0  0  0  0  0  0  0  0  0  0  0  0
    9.0109   -0.4464   22.3885 H   0  0  0  0  0  0  0  0  0  0  0  0
    9.2378    0.3595   20.8234 H   0  0  0  0  0  0  0  0  0  0  0  0
    7.3237    1.3365   23.3758 C   0  0  0  0  0  0  0  0  0  0  0  0
    7.2201    0.3012   24.0168 O   0  0  0  0  0  0  0  0  0  0  0  0
    6.6883    2.6670   23.8390 C   0  0  0  0  0  0  0  0  0  0  0  0
    5.6406    3.2862   23.1245 C   0  0  0  0  0  0  0  0  0  0  0  0
    5.1473    4.5555   23.5069 C   0  0  0  0  0  0  0  0  0  0  0  0
    5.6039    5.2685   24.5429 N   0  0  0  0  0  0  0  0  0  0  0  0
    6.6372    4.6928   25.1723 C   0  0  0  0  0  0  0  0  0  0  0  0
    7.2282    3.4341   24.9075 C   0  0  0  0  0  0  0  0  0  0  0  0
    8.3391    3.4022   25.8122 C   0  0  0  0  0  0  0  0  0  0  0  0
    8.4077    4.4804   26.5786 N   0  0  0  0  0  0  0  0  0  0  0  0
    7.3688    5.2469   26.1628 N   0  0  0  0  0  0  0  0  0  0  0  0
    7.0773    6.0814   26.6332 H   0  0  0  0  0  0  0  0  0  0  0  0
    9.0909    2.6270   25.9124 H   0  0  0  0  0  0  0  0  0  0  0  0
    4.3585    5.0203   22.9233 H   0  0  0  0  0  0  0  0  0  0  0  0
    5.2248    2.8286   22.2316 H   0  0  0  0  0  0  0  0  0  0  0  0
    7.2897    3.1171   21.2689 H   0  0  0  0  0  0  0  0  0  0  0  0
    8.6632    2.3942   20.4767 H   0  0  0  0  0  0  0  0  0  0  0  0
    8.7711    4.9482   22.4321 C   0  0  0  0  0  0  0  0  0  0  0  0
    9.5975    5.8325   23.1331 C   0  0  0  0  0  0  0  0  0  0  0  0
    9.2656    6.8553   23.2963 H   0  0  0  0  0  0  0  0  0  0  0  0
    7.8082    5.3007   22.0620 H   0  0  0  0  0  0  0  0  0  0  0  0
   10.7496    2.1874   22.5502 H   0  0  0  0  0  0  0  0  0  0  0  0
   12.2251    3.7734   23.7136 H   0  0  0  0  0  0  0  0  0  0  0  0
   11.1586    7.1160   24.9576 H   0  0  0  0  0  0  0  0  0  0  0  0
   12.4243    6.9144   23.7409 H   0  0  0  0  0  0  0  0  0  0  0  0
   12.3538    5.8320   25.1339 H   0  0  0  0  0  0  0  0  0  0  0  0
  1  2  1  0
  2  3  2  0
  3  4  1  0
  4  5  2  0
  5  6  1  0
  6  7  1  0
  7  8  1  0
  8  9  1  0
  9 10  1  0
 10 11  2  0
 11 12  1  0
 12 13  2  0
 13 14  1  0
 14 15  2  0
 15 16  1  0
 13 17  1  0
 12 18  1  0
 11 19  1  0
  9 20  1  0
  9 21  1  0
  8 22  1  0
  8 23  1  0
  7 24  1  0
 24 25  2  0
 24 26  1  0
 26 27  2  0
 27 28  1  0
 28 29  2  0
 29 30  1  0
 30 31  2  0
 31 32  1  0
 32 33  2  0
 33 34  1  0
 34 35  1  0
 32 36  1  0
 28 37  1  0
 27 38  1  0
  6 39  1  0
  6 40  1  0
  5 41  1  0
 41 42  2  0
 42 43  1  0
 41 44  1  0
  4 45  1  0
  3 46  1  0
  1 47  1  0
  1 48  1  0
  1 49  1  0
 42  2  1  0
 15 10  1  0
 31 26  1  0
 34 30  1  0
M  END
>  <cnnaffinity>  (1) 
-5.69028

>  <filename>  (1) 
Cc1ccc(CN(CCc2cccnc2)C(=O)c2ccnc3[nH]ncc23)cc1

$$$$
