
     RDKit          3D

 50 54  0  0  0  0  0  0  0  0999 V2000
    9.7011    7.9707   26.8226 C   0  0  0  0  0  0  0  0  0  0  0  0
    9.4767    6.6120   26.2595 C   0  0  0  0  0  0  0  0  0  0  0  0
    9.6409    6.2870   25.0082 N   0  0  0  0  0  0  0  0  0  0  0  0
    9.3290    4.9407   24.9373 C   0  0  0  0  0  0  0  0  0  0  0  0
    9.3038    4.0893   23.8258 C   0  0  0  0  0  0  0  0  0  0  0  0
    8.9781    2.7417   24.0195 C   0  0  0  0  0  0  0  0  0  0  0  0
    8.9785    1.8237   22.9207 N   0  0  0  0  0  0  0  0  0  0  0  0
    7.9552    0.9466   22.7575 N   0  0  0  0  0  0  0  0  0  0  0  0
    8.2633    0.3255   21.6410 C   0  0  0  0  0  0  0  0  0  0  0  0
    7.3545   -0.6788   20.9958 C   0  0  0  0  0  0  0  0  0  0  0  0
    6.5804   -0.0624   19.8416 C   0  0  0  0  0  0  0  0  0  0  0  0
    5.3894    0.6385   20.0743 C   0  0  0  0  0  0  0  0  0  0  0  0
    4.7919    1.3245   19.0145 C   0  0  0  0  0  0  0  0  0  0  0  0
    5.4092    1.2925   17.7598 C   0  0  0  0  0  0  0  0  0  0  0  0
    6.5435    0.6185   17.5102 N   0  0  0  0  0  0  0  0  0  0  0  0
    7.1027   -0.0320   18.5366 C   0  0  0  0  0  0  0  0  0  0  0  0
    8.0298   -0.5649   18.3200 H   0  0  0  0  0  0  0  0  0  0  0  0
    4.9816    1.8294   16.9136 H   0  0  0  0  0  0  0  0  0  0  0  0
    3.8806    1.9009   19.1476 H   0  0  0  0  0  0  0  0  0  0  0  0
    4.9479    0.6454   21.0749 H   0  0  0  0  0  0  0  0  0  0  0  0
    7.9542   -1.5267   20.6488 H   0  0  0  0  0  0  0  0  0  0  0  0
    6.6754   -1.0499   21.7696 H   0  0  0  0  0  0  0  0  0  0  0  0
    9.4435    0.6999   21.0874 N   0  0  0  0  0  0  0  0  0  0  0  0
    9.8864    1.6492   21.9065 C   0  0  0  0  0  0  0  0  0  0  0  0
   11.2558    2.3118   21.9622 C   0  0  0  0  0  0  0  0  0  0  0  0
   11.9134    2.2057   20.7154 O   0  0  0  0  0  0  0  0  0  0  0  0
   12.8580    2.3704   20.8664 H   0  0  0  0  0  0  0  0  0  0  0  0
   12.0617    1.7044   23.1376 C   0  0  0  0  0  0  0  0  0  0  0  0
   12.3139    0.1729   23.0538 C   0  0  0  0  0  0  0  0  0  0  0  0
   13.8445    0.4328   23.0805 C   0  0  0  0  0  0  0  0  0  0  0  0
   13.5828    1.9493   23.2458 C   0  0  0  0  0  0  0  0  0  0  0  0
   14.0468    2.6331   22.5266 H   0  0  0  0  0  0  0  0  0  0  0  0
   13.8585    2.3259   24.2265 H   0  0  0  0  0  0  0  0  0  0  0  0
   14.3748   -0.0232   23.9204 H   0  0  0  0  0  0  0  0  0  0  0  0
   14.3824    0.1449   22.1697 H   0  0  0  0  0  0  0  0  0  0  0  0
   11.8959   -0.2895   22.1462 H   0  0  0  0  0  0  0  0  0  0  0  0
   11.9178   -0.3715   23.9175 H   0  0  0  0  0  0  0  0  0  0  0  0
   11.5518    1.9949   24.0637 H   0  0  0  0  0  0  0  0  0  0  0  0
   11.1029    3.3763   22.1797 H   0  0  0  0  0  0  0  0  0  0  0  0
    8.6234    2.2640   25.3117 C   0  0  0  0  0  0  0  0  0  0  0  0
    8.6248    3.1138   26.4199 C   0  0  0  0  0  0  0  0  0  0  0  0
    8.9868    4.4506   26.2113 C   0  0  0  0  0  0  0  0  0  0  0  0
    9.0994    5.5483   27.0452 N   0  0  0  0  0  0  0  0  0  0  0  0
    8.7434    5.6042   27.9818 H   0  0  0  0  0  0  0  0  0  0  0  0
    8.3529    2.7536   27.4102 H   0  0  0  0  0  0  0  0  0  0  0  0
    8.3419    1.2182   25.4229 H   0  0  0  0  0  0  0  0  0  0  0  0
    9.5036    4.5050   22.8445 H   0  0  0  0  0  0  0  0  0  0  0  0
   10.6885    8.0286   27.2906 H   0  0  0  0  0  0  0  0  0  0  0  0
    9.6581    8.6961   26.0088 H   0  0  0  0  0  0  0  0  0  0  0  0
    8.9469    8.2246   27.5727 H   0  0  0  0  0  0  0  0  0  0  0  0
  1  2  1  0
  2  3  2  0
  3  4  1  0
  4  5  2  0
  5  6  1  0
  6  7  1  0
  7  8  1  0
  8  9  2  0
  9 10  1  0
 10 11  1  0
 11 12  2  0
 12 13  1  0
 13 14  2  0
 14 15  1  0
 15 16  2  0
 16 17  1  0
 14 18  1  0
 13 19  1  0
 12 20  1  0
 10 21  1  0
 10 22  1  0
  9 23  1  0
 23 24  2  0
 24 25  1  0
 25 26  1  0
 26 27  1  0
 25 28  1  0
 28 29  1  0
 29 30  1  0
 30 31  1  0
 31 32  1  0
 31 33  1  0
 30 34  1  0
 30 35  1  0
 29 36  1  0
 29 37  1  0
 28 38  1  0
 25 39  1  0
  6 40  2  0
 40 41  1  0
 41 42  2  0
 42 43  1  0
 43 44  1  0
 41 45  1  0
 40 46  1  0
  5 47  1  0
  1 48  1  0
  1 49  1  0
  1 50  1  0
 43  2  1  0
 42  4  1  0
 24  7  1  0
 31 28  1  0
 16 11  1  0
M  END
>  <cnnaffinity>  (1) 
-6.46184

>  <filename>  (1) 
Cc1nc2cc(-n3nc(Cc4cccnc4)nc3C(O)C3CCC3)ccc2[nH]1

$$$$
