
     RDKit          3D

 44 47  0  0  0  0  0  0  0  0999 V2000
    7.3322    2.8089   28.2645 C   0  0  0  0  0  0  0  0  0  0  0  0
    7.9088    3.8581   27.3778 C   0  0  0  0  0  0  0  0  0  0  0  0
    8.0763    5.1053   27.7775 N   0  0  0  0  0  0  0  0  0  0  0  0
    8.7145    5.7562   26.7764 N   0  0  0  0  0  0  0  0  0  0  0  0
    8.9923    4.9371   25.7256 C   0  0  0  0  0  0  0  0  0  0  0  0
    9.6813    5.1000   24.4958 C   0  0  0  0  0  0  0  0  0  0  0  0
    9.8009    4.0868   23.6438 N   0  0  0  0  0  0  0  0  0  0  0  0
    9.1960    2.8859   23.9232 C   0  0  0  0  0  0  0  0  0  0  0  0
    9.1796    1.7988   22.8933 C   0  0  0  0  0  0  0  0  0  0  0  0
    8.1056    1.0390   22.6781 N   0  0  0  0  0  0  0  0  0  0  0  0
    8.4509    0.2887   21.6130 C   0  0  0  0  0  0  0  0  0  0  0  0
    7.4864   -0.6558   20.9394 C   0  0  0  0  0  0  0  0  0  0  0  0
    6.6760   -0.0216   19.8113 C   0  0  0  0  0  0  0  0  0  0  0  0
    5.4618    0.6265   20.0748 C   0  0  0  0  0  0  0  0  0  0  0  0
    4.8171    1.3057   19.0415 C   0  0  0  0  0  0  0  0  0  0  0  0
    5.4010    1.2996   17.7717 C   0  0  0  0  0  0  0  0  0  0  0  0
    6.5406    0.6517   17.4855 N   0  0  0  0  0  0  0  0  0  0  0  0
    7.1462    0.0030   18.4860 C   0  0  0  0  0  0  0  0  0  0  0  0
    8.0678   -0.5267   18.2322 H   0  0  0  0  0  0  0  0  0  0  0  0
    4.9397    1.8301   16.9438 H   0  0  0  0  0  0  0  0  0  0  0  0
    3.8901    1.8410   19.2057 H   0  0  0  0  0  0  0  0  0  0  0  0
    5.0407    0.6007   21.0821 H   0  0  0  0  0  0  0  0  0  0  0  0
    8.0626   -1.5139   20.5740 H   0  0  0  0  0  0  0  0  0  0  0  0
    6.8051   -1.0174   21.7183 H   0  0  0  0  0  0  0  0  0  0  0  0
    9.6873    0.4815   21.1996 N   0  0  0  0  0  0  0  0  0  0  0  0
   10.1731    1.4272   22.0443 N   0  0  0  0  0  0  0  0  0  0  0  0
   11.6190    1.7582   21.9756 C   0  0  0  0  0  0  0  0  0  0  0  0
   11.8607    3.0333   21.1732 C   0  0  0  0  0  0  0  0  0  0  0  0
   12.9263    3.2214   21.0499 H   0  0  0  0  0  0  0  0  0  0  0  0
   11.4468    3.8920   21.7037 H   0  0  0  0  0  0  0  0  0  0  0  0
   11.4169    2.9502   20.1788 H   0  0  0  0  0  0  0  0  0  0  0  0
   12.2743    1.8293   23.3567 C   0  0  0  0  0  0  0  0  0  0  0  0
   13.3580    1.9332   23.2354 H   0  0  0  0  0  0  0  0  0  0  0  0
   12.0723    0.9235   23.9332 H   0  0  0  0  0  0  0  0  0  0  0  0
   11.9217    2.6969   23.9224 H   0  0  0  0  0  0  0  0  0  0  0  0
   12.0411    0.9101   21.4271 H   0  0  0  0  0  0  0  0  0  0  0  0
    8.5430    2.6343   25.1306 C   0  0  0  0  0  0  0  0  0  0  0  0
    8.4499    3.6822   26.0665 C   0  0  0  0  0  0  0  0  0  0  0  0
    8.1491    1.6451   25.3239 H   0  0  0  0  0  0  0  0  0  0  0  0
   10.1329    6.0534   24.2332 H   0  0  0  0  0  0  0  0  0  0  0  0
    9.0075    6.7068   26.9318 H   0  0  0  0  0  0  0  0  0  0  0  0
    7.0673    3.2469   29.2266 H   0  0  0  0  0  0  0  0  0  0  0  0
    6.4521    2.3445   27.8095 H   0  0  0  0  0  0  0  0  0  0  0  0
    8.0631    2.0130   28.4442 H   0  0  0  0  0  0  0  0  0  0  0  0
  1  2  1  0
  2  3  2  0
  3  4  1  0
  4  5  1  0
  5  6  2  0
  6  7  1  0
  7  8  2  0
  8  9  1  0
  9 10  2  0
 10 11  1  0
 11 12  1  0
 12 13  1  0
 13 14  2  0
 14 15  1  0
 15 16  2  0
 16 17  1  0
 17 18  2  0
 18 19  1  0
 16 20  1  0
 15 21  1  0
 14 22  1  0
 12 23  1  0
 12 24  1  0
 11 25  2  0
 25 26  1  0
 26 27  1  0
 27 28  1  0
 28 29  1  0
 28 30  1  0
 28 31  1  0
 27 32  1  0
 32 33  1  0
 32 34  1  0
 32 35  1  0
 27 36  1  0
  8 37  1  0
 37 38  2  0
 37 39  1  0
  6 40  1  0
  4 41  1  0
  1 42  1  0
  1 43  1  0
  1 44  1  0
 38  2  1  0
 38  5  1  0
 26  9  1  0
 18 13  1  0
M  END
>  <cnnaffinity>  (1) 
-5.86937

>  <filename>  (1) 
Cc1n[nH]c2cnc(-c3nc(Cc4cccnc4)nn3C(C)C)cc12

$$$$
