
     RDKit          3D

 52 56  0  0  0  0  0  0  0  0999 V2000
    8.1301    7.9748   26.4953 C   0  0  0  0  0  0  0  0  0  0  0  0
    8.3681    6.5752   26.0511 C   0  0  0  0  0  0  0  0  0  0  0  0
    8.6950    6.2345   24.8368 N   0  0  0  0  0  0  0  0  0  0  0  0
    8.7703    4.8510   24.8581 C   0  0  0  0  0  0  0  0  0  0  0  0
    9.0054    3.9627   23.7994 C   0  0  0  0  0  0  0  0  0  0  0  0
    8.9977    2.5849   24.0584 C   0  0  0  0  0  0  0  0  0  0  0  0
    9.1163    1.5947   23.0086 N   0  0  0  0  0  0  0  0  0  0  0  0
    7.9910    0.9377   22.6188 N   0  0  0  0  0  0  0  0  0  0  0  0
    8.4092    0.1455   21.6579 C   0  0  0  0  0  0  0  0  0  0  0  0
    7.4725   -0.7330   20.8732 C   0  0  0  0  0  0  0  0  0  0  0  0
    6.7191   -0.0394   19.7379 C   0  0  0  0  0  0  0  0  0  0  0  0
    5.5521    0.6901   19.9988 C   0  0  0  0  0  0  0  0  0  0  0  0
    4.9133    1.3498   18.9454 C   0  0  0  0  0  0  0  0  0  0  0  0
    5.4656    1.2598   17.6658 C   0  0  0  0  0  0  0  0  0  0  0  0
    6.5701    0.5517   17.3866 N   0  0  0  0  0  0  0  0  0  0  0  0
    7.1685   -0.0764   18.4050 C   0  0  0  0  0  0  0  0  0  0  0  0
    8.0684   -0.6390   18.1548 H   0  0  0  0  0  0  0  0  0  0  0  0
    4.9983    1.7649   16.8216 H   0  0  0  0  0  0  0  0  0  0  0  0
    4.0143    1.9356   19.1030 H   0  0  0  0  0  0  0  0  0  0  0  0
    5.1568    0.7354   21.0153 H   0  0  0  0  0  0  0  0  0  0  0  0
    6.7528   -1.1439   21.5903 H   0  0  0  0  0  0  0  0  0  0  0  0
    8.0662   -1.5676   20.4893 H   0  0  0  0  0  0  0  0  0  0  0  0
    9.7463    0.2041   21.4186 N   0  0  0  0  0  0  0  0  0  0  0  0
   10.1678    1.1180   22.2784 C   0  0  0  0  0  0  0  0  0  0  0  0
   11.5536    1.7120   22.2167 C   0  0  1  0  0  0  0  0  0  0  0  0
   11.5434    3.0799   21.5212 C   0  0  0  0  0  0  0  0  0  0  0  0
   12.6931    3.8907   22.0906 C   0  0  0  0  0  0  0  0  0  0  0  0
   12.7366    3.4527   23.5470 C   0  0  0  0  0  0  0  0  0  0  0  0
   12.3036    1.9818   23.5591 N   0  0  0  0  0  4  0  0  0  0  0  0
   13.4919    1.0742   23.7428 C   0  0  0  0  0  0  0  0  0  0  0  0
   13.8502    1.0841   24.7749 H   0  0  0  0  0  0  0  0  0  0  0  0
   13.2372    0.0468   23.4699 H   0  0  0  0  0  0  0  0  0  0  0  0
   14.3195    1.3947   23.0939 H   0  0  0  0  0  0  0  0  0  0  0  0
   11.6289    1.8236   24.3381 H   0  0  0  0  0  0  0  0  0  0  0  0
   13.7296    3.5523   23.9869 H   0  0  0  0  0  0  0  0  0  0  0  0
   12.0197    4.0134   24.1509 H   0  0  0  0  0  0  0  0  0  0  0  0
   13.6404    3.6714   21.5966 H   0  0  0  0  0  0  0  0  0  0  0  0
   12.5189    4.9676   22.0001 H   0  0  0  0  0  0  0  0  0  0  0  0
   10.6180    3.5674   21.8196 H   0  0  0  0  0  0  0  0  0  0  0  0
   11.5603    2.9821   20.4340 H   0  0  0  0  0  0  0  0  0  0  0  0
   12.1447    0.9787   21.6662 H   0  0  0  0  0  0  0  0  0  0  0  0
    8.7312    2.1114   25.3692 C   0  0  0  0  0  0  0  0  0  0  0  0
    8.4870    2.9897   26.4283 C   0  0  0  0  0  0  0  0  0  0  0  0
    8.4879    4.3626   26.1464 C   0  0  0  0  0  0  0  0  0  0  0  0
    8.2504    5.5028   26.8995 N   0  0  0  0  0  0  0  0  0  0  0  0
    7.8115    5.5491   27.8000 H   0  0  0  0  0  0  0  0  0  0  0  0
    8.2924    2.6044   27.4264 H   0  0  0  0  0  0  0  0  0  0  0  0
    8.6635    1.0374   25.5362 H   0  0  0  0  0  0  0  0  0  0  0  0
    9.0799    4.4122   22.8129 H   0  0  0  0  0  0  0  0  0  0  0  0
    9.0670    8.4755   26.7557 H   0  0  0  0  0  0  0  0  0  0  0  0
    7.4661    8.0088   27.3612 H   0  0  0  0  0  0  0  0  0  0  0  0
    7.6718    8.5234   25.6713 H   0  0  0  0  0  0  0  0  0  0  0  0
  1  2  1  0
  2  3  2  0
  3  4  1  0
  4  5  2  0
  5  6  1  0
  6  7  1  0
  7  8  1  0
  8  9  2  0
  9 10  1  0
 10 11  1  0
 11 12  2  0
 12 13  1  0
 13 14  2  0
 14 15  1  0
 15 16  2  0
 16 17  1  0
 14 18  1  0
 13 19  1  0
 12 20  1  0
 10 21  1  0
 10 22  1  0
  9 23  1  0
 23 24  2  0
 24 25  1  0
 25 26  1  0
 26 27  1  0
 27 28  1  0
 28 29  1  0
 29 30  1  0
 30 31  1  0
 30 32  1  0
 30 33  1  0
 29 34  1  0
 28 35  1  0
 28 36  1  0
 27 37  1  0
 27 38  1  0
 26 39  1  0
 26 40  1  0
 25 41  1  6
  6 42  2  0
 42 43  1  0
 43 44  2  0
 44 45  1  0
 45 46  1  0
 43 47  1  0
 42 48  1  0
  5 49  1  0
  1 50  1  0
  1 51  1  0
  1 52  1  0
 45  2  1  0
 44  4  1  0
 24  7  1  0
 29 25  1  0
 16 11  1  0
M  CHG  1  29   1
M  END
>  <cnnaffinity>  (1) 
-5.54646

>  <filename>  (1) 
Cc1nc2cc(-n3nc(Cc4cccnc4)nc3[C@H]3CCC[NH+]3C)ccc2[nH]1

$$$$
