
     RDKit          3D

 50 54  0  0  0  0  0  0  0  0999 V2000
   14.3306    5.3678   21.5142 C   0  0  0  0  0  0  0  0  0  0  0  0
   13.4730    4.2139   21.9213 C   0  0  0  0  0  0  0  0  0  0  0  0
   12.2943    3.9726   21.4308 N   0  0  0  0  0  0  0  0  0  0  0  0
   11.8460    2.8542   22.1083 C   0  0  0  0  0  0  0  0  0  0  0  0
   10.6258    2.2015   22.0073 C   0  0  0  0  0  0  0  0  0  0  0  0
   10.3202    1.1582   22.8949 C   0  0  0  0  0  0  0  0  0  0  0  0
    8.9502    0.6055   22.8527 C   0  0  0  0  0  0  0  0  0  0  0  0
    8.5378   -0.3766   22.0742 N   0  0  0  0  0  0  0  0  0  0  0  0
    7.1933   -0.1866   22.0292 C   0  0  0  0  0  0  0  0  0  0  0  0
    6.3627   -0.9791   21.0486 C   0  0  0  0  0  0  0  0  0  0  0  0
    6.0582   -0.2285   19.7512 C   0  0  0  0  0  0  0  0  0  0  0  0
    5.0933    0.7843   19.7372 C   0  0  0  0  0  0  0  0  0  0  0  0
    4.8679    1.4904   18.5529 C   0  0  0  0  0  0  0  0  0  0  0  0
    5.6292    1.1694   17.4271 C   0  0  0  0  0  0  0  0  0  0  0  0
    6.5623    0.2083   17.4147 N   0  0  0  0  0  0  0  0  0  0  0  0
    6.7579   -0.4672   18.5549 C   0  0  0  0  0  0  0  0  0  0  0  0
    7.5172   -1.2462   18.5210 H   0  0  0  0  0  0  0  0  0  0  0  0
    5.4910    1.7076   16.4920 H   0  0  0  0  0  0  0  0  0  0  0  0
    4.1312    2.2832   18.4928 H   0  0  0  0  0  0  0  0  0  0  0  0
    4.5485    1.0211   20.6515 H   0  0  0  0  0  0  0  0  0  0  0  0
    6.9241   -1.8926   20.8297 H   0  0  0  0  0  0  0  0  0  0  0  0
    5.4283   -1.2836   21.5244 H   0  0  0  0  0  0  0  0  0  0  0  0
    6.7522    0.8176   22.7653 N   0  0  0  0  0  0  0  0  0  0  0  0
    7.8925    1.3295   23.3056 N   0  0  0  0  0  0  0  0  0  0  0  0
    7.9306    2.5318   24.1665 C   0  0  0  0  0  0  0  0  0  0  0  0
    7.6014    2.2757   25.6491 C   0  0  0  0  0  0  0  0  0  0  0  0
    7.7270    3.5951   26.4225 C   0  0  0  0  0  0  0  0  0  0  0  0
    6.9112    4.6174   25.8744 O   0  0  0  0  0  0  0  0  0  0  0  0
    7.1853    4.9059   24.5135 C   0  0  0  0  0  0  0  0  0  0  0  0
    7.0509    3.6683   23.6261 C   0  0  0  0  0  0  0  0  0  0  0  0
    6.0070    3.3381   23.6146 H   0  0  0  0  0  0  0  0  0  0  0  0
    7.3379    3.9058   22.5972 H   0  0  0  0  0  0  0  0  0  0  0  0
    8.1963    5.3397   24.4077 H   0  0  0  0  0  0  0  0  0  0  0  0
    6.4680    5.6772   24.2194 H   0  0  0  0  0  0  0  0  0  0  0  0
    7.4043    3.4818   27.4615 H   0  0  0  0  0  0  0  0  0  0  0  0
    8.7847    3.9168   26.4377 H   0  0  0  0  0  0  0  0  0  0  0  0
    6.5809    1.8922   25.7483 H   0  0  0  0  0  0  0  0  0  0  0  0
    8.2856    1.5376   26.0800 H   0  0  0  0  0  0  0  0  0  0  0  0
    8.9677    2.8821   24.1438 H   0  0  0  0  0  0  0  0  0  0  0  0
   11.3101    0.7311   23.8114 C   0  0  0  0  0  0  0  0  0  0  0  0
   11.0374   -0.2806   24.6461 F   0  0  0  0  0  0  0  0  0  0  0  0
   12.5612    1.3301   23.9051 C   0  0  0  0  0  0  0  0  0  0  0  0
   12.8049    2.4085   23.0409 C   0  0  0  0  0  0  0  0  0  0  0  0
   13.8445    3.2967   22.8771 N   0  0  0  0  0  0  0  0  0  0  0  0
   14.7280    3.2743   23.3510 H   0  0  0  0  0  0  0  0  0  0  0  0
   13.2618    0.9452   24.6387 H   0  0  0  0  0  0  0  0  0  0  0  0
    9.9234    2.5523   21.2572 H   0  0  0  0  0  0  0  0  0  0  0  0
   14.8953    5.7589   22.3658 H   0  0  0  0  0  0  0  0  0  0  0  0
   15.0341    5.0721   20.7257 H   0  0  0  0  0  0  0  0  0  0  0  0
   13.6853    6.1582   21.1211 H   0  0  0  0  0  0  0  0  0  0  0  0
  1  2  1  0
  2  3  2  0
  3  4  1  0
  4  5  2  0
  5  6  1  0
  6  7  1  0
  7  8  2  0
  8  9  1  0
  9 10  1  0
 10 11  1  0
 11 12  2  0
 12 13  1  0
 13 14  2  0
 14 15  1  0
 15 16  2  0
 16 17  1  0
 14 18  1  0
 13 19  1  0
 12 20  1  0
 10 21  1  0
 10 22  1  0
  9 23  2  0
 23 24  1  0
 24 25  1  0
 25 26  1  0
 26 27  1  0
 27 28  1  0
 28 29  1  0
 29 30  1  0
 30 31  1  0
 30 32  1  0
 29 33  1  0
 29 34  1  0
 27 35  1  0
 27 36  1  0
 26 37  1  0
 26 38  1  0
 25 39  1  0
  6 40  2  0
 40 41  1  0
 40 42  1  0
 42 43  2  0
 43 44  1  0
 44 45  1  0
 42 46  1  0
  5 47  1  0
  1 48  1  0
  1 49  1  0
  1 50  1  0
 44  2  1  0
 43  4  1  0
 24  7  1  0
 30 25  1  0
 16 11  1  0
M  END
>  <cnnaffinity>  (1) 
-6.67857

>  <filename>  (1) 
Cc1nc2cc(-c3nc(Cc4cccnc4)nn3C3CCOCC3)c(F)cc2[nH]1

$$$$
