
     RDKit          3D

 37 40  0  0  0  0  0  0  0  0999 V2000
    4.9733    1.7776   16.9933 H   0  0  0  0  0  0  0  0  0  0  0  0
    5.4214    1.3336   17.8761 C   0  0  0  0  0  0  0  0  0  0  0  0
    6.6058    0.7415   17.6763 N   0  0  0  0  0  0  0  0  0  0  0  0
    7.1810    0.1792   18.7397 C   0  0  0  0  0  0  0  0  0  0  0  0
    8.1351   -0.3118   18.5413 H   0  0  0  0  0  0  0  0  0  0  0  0
    6.6427    0.1687   20.0481 C   0  0  0  0  0  0  0  0  0  0  0  0
    7.4861   -0.4528   21.1881 C   0  0  2  0  0  0  0  0  0  0  0  0
    8.3801    0.6439   21.7692 C   0  0  0  0  0  0  0  0  0  0  0  0
    9.7054    0.7371   21.3820 N   0  0  0  0  0  0  0  0  0  0  0  0
   10.2776    1.8053   21.8368 C   0  0  0  0  0  0  0  0  0  0  0  0
   11.6880    2.1508   21.4910 C   0  0  0  0  0  0  0  0  0  0  0  0
   12.3856    1.6291   22.1541 H   0  0  0  0  0  0  0  0  0  0  0  0
   11.8610    3.2247   21.5512 H   0  0  0  0  0  0  0  0  0  0  0  0
   11.8767    1.8002   20.4757 H   0  0  0  0  0  0  0  0  0  0  0  0
    9.2437    2.8005   22.8165 S   0  0  0  0  0  0  0  0  0  0  0  0
    7.9618    1.6814   22.5465 C   0  0  0  0  0  0  0  0  0  0  0  0
    6.9642    1.8585   22.9187 H   0  0  0  0  0  0  0  0  0  0  0  0
    8.3300   -1.6708   20.6534 C   0  0  0  0  0  0  0  0  0  0  0  0
    7.8438   -1.9133   19.7164 H   0  0  0  0  0  0  0  0  0  0  0  0
    9.3713   -1.3995   20.4718 H   0  0  0  0  0  0  0  0  0  0  0  0
    8.1407   -2.8259   21.6516 C   0  0  2  0  0  0  0  0  0  0  0  0
    8.9977   -3.4978   21.7213 H   0  0  0  0  0  0  0  0  0  0  0  0
    6.8004   -3.5244   21.3361 C   0  0  0  0  0  0  0  0  0  0  0  0
    6.6420   -4.3853   22.0030 H   0  0  0  0  0  0  0  0  0  0  0  0
    6.7196   -3.9056   20.3093 H   0  0  0  0  0  0  0  0  0  0  0  0
    5.7974   -2.3645   21.6201 C   0  0  0  0  0  0  0  0  0  0  0  0
    5.3602   -1.9924   20.6889 H   0  0  0  0  0  0  0  0  0  0  0  0
    4.9856   -2.7063   22.2671 H   0  0  0  0  0  0  0  0  0  0  0  0
    6.6711   -1.2476   22.2805 C   0  0  1  0  0  0  0  0  0  0  0  0
    6.1216   -0.5938   22.9628 H   0  0  0  0  0  0  0  0  0  0  0  0
    7.7768   -2.0836   22.9459 C   0  0  0  0  0  0  0  0  0  0  0  0
    8.5855   -1.4778   23.3750 H   0  0  0  0  0  0  0  0  0  0  0  0
    7.4061   -2.7539   23.7338 H   0  0  0  0  0  0  0  0  0  0  0  0
    5.4097    0.8085   20.2325 C   0  0  0  0  0  0  0  0  0  0  0  0
    4.9270    0.8481   21.2135 H   0  0  0  0  0  0  0  0  0  0  0  0
    4.7855    1.3922   19.1207 C   0  0  0  0  0  0  0  0  0  0  0  0
    3.8322    1.9001   19.2011 H   0  0  0  0  0  0  0  0  0  0  0  0
  1  2  1  0
  2  3  2  0
  3  4  1  0
  4  5  1  0
  4  6  2  0
  7  6  1  6
  7  8  1  0
  8  9  1  0
  9 10  2  0
 10 11  1  0
 11 12  1  0
 11 13  1  0
 11 14  1  0
 10 15  1  0
 15 16  1  0
 16 17  1  0
  7 18  1  0
 18 19  1  0
 18 20  1  0
 18 21  1  0
 21 22  1  1
 21 23  1  0
 23 24  1  0
 23 25  1  0
 23 26  1  0
 26 27  1  0
 26 28  1  0
 26 29  1  0
 29 30  1  1
 29 31  1  0
 31 32  1  0
 31 33  1  0
  6 34  1  0
 34 35  1  0
 34 36  2  0
 36 37  1  0
 36  2  1  0
 29  7  1  0
 16  8  2  0
 31 21  1  0
M  END
>  <cnnaffinity>  (1) 
-4.95369

>  <filename>  (1) 
Cc1nc([C@@]2(c3cccnc3)C[C@@H]3CC[C@H]2C3)cs1

$$$$
