
     RDKit          3D

 36 39  0  0  0  0  0  0  0  0999 V2000
    5.0460    1.7928   16.7872 H   0  0  0  0  0  0  0  0  0  0  0  0
    5.4350    1.3192   17.6877 C   0  0  0  0  0  0  0  0  0  0  0  0
    6.5591    0.6049   17.5356 N   0  0  0  0  0  0  0  0  0  0  0  0
    7.0629    0.0281   18.6294 C   0  0  0  0  0  0  0  0  0  0  0  0
    7.9770   -0.5443   18.4804 H   0  0  0  0  0  0  0  0  0  0  0  0
    6.5213    0.1375   19.9283 C   0  0  0  0  0  0  0  0  0  0  0  0
    7.2331   -0.4815   21.0686 C   0  0  0  0  0  0  0  0  0  0  0  0
    7.3499   -0.0266   22.3414 C   0  0  0  0  0  0  0  0  0  0  0  0
    7.1702    1.3189   22.7497 N   0  0  0  0  0  0  0  0  0  0  0  0
    6.5933    1.7932   23.9089 C   0  0  0  0  0  0  0  0  0  0  0  0
    6.0481    0.9167   24.9807 C   0  0  0  0  0  0  0  0  0  0  0  0
    5.4026    1.5137   25.6228 H   0  0  0  0  0  0  0  0  0  0  0  0
    5.4750    0.0875   24.5580 H   0  0  0  0  0  0  0  0  0  0  0  0
    6.8568    0.5076   25.5953 H   0  0  0  0  0  0  0  0  0  0  0  0
    6.5860    3.0996   23.9447 N   0  0  0  0  0  0  0  0  0  0  0  0
    7.1774    3.5158   22.7729 C   0  0  0  0  0  0  0  0  0  0  0  0
    7.2941    4.5697   22.5521 H   0  0  0  0  0  0  0  0  0  0  0  0
    7.5443    2.4442   22.0233 C   0  0  0  0  0  0  0  0  0  0  0  0
    8.0097    2.3628   21.0551 H   0  0  0  0  0  0  0  0  0  0  0  0
    7.8597   -1.0780   23.2827 C   0  0  0  0  0  0  0  0  0  0  0  0
    7.0400   -1.5143   23.8746 H   0  0  0  0  0  0  0  0  0  0  0  0
    8.5935   -0.6742   23.9922 H   0  0  0  0  0  0  0  0  0  0  0  0
    8.4638   -2.1343   22.3340 C   0  0  0  0  0  0  0  0  0  0  0  0
    7.9666   -1.7924   20.9245 C   0  0  0  0  0  0  0  0  0  0  0  0
    7.2947   -2.5700   20.5334 H   0  0  0  0  0  0  0  0  0  0  0  0
    8.8005   -1.6976   20.2115 H   0  0  0  0  0  0  0  0  0  0  0  0
    9.8453   -2.6648   22.5612 C   0  0  0  0  0  0  0  0  0  0  0  0
   10.5249   -2.7687   21.7197 H   0  0  0  0  0  0  0  0  0  0  0  0
   10.3382   -2.4107   23.4959 H   0  0  0  0  0  0  0  0  0  0  0  0
    8.6552   -3.5745   22.7106 C   0  0  0  0  0  0  0  0  0  0  0  0
    8.3794   -3.8960   23.7157 H   0  0  0  0  0  0  0  0  0  0  0  0
    8.4622   -4.3212   21.9443 H   0  0  0  0  0  0  0  0  0  0  0  0
    5.3117    0.8546   20.0511 C   0  0  0  0  0  0  0  0  0  0  0  0
    4.8207    0.9598   21.0205 H   0  0  0  0  0  0  0  0  0  0  0  0
    4.7658    1.4506   18.9097 C   0  0  0  0  0  0  0  0  0  0  0  0
    3.8516    2.0326   18.9564 H   0  0  0  0  0  0  0  0  0  0  0  0
  1  2  1  0
  2  3  2  0
  3  4  1  0
  4  5  1  0
  4  6  2  0
  6  7  1  0
  7  8  2  0
  8  9  1  0
  9 10  1  0
 10 11  1  0
 11 12  1  0
 11 13  1  0
 11 14  1  0
 10 15  2  0
 15 16  1  0
 16 17  1  0
 16 18  2  0
 18 19  1  0
  8 20  1  0
 20 21  1  0
 20 22  1  0
 20 23  1  0
 23 24  1  0
 24 25  1  0
 24 26  1  0
 23 27  1  0
 27 28  1  0
 27 29  1  0
 27 30  1  0
 30 31  1  0
 30 32  1  0
  6 33  1  0
 33 34  1  0
 33 35  2  0
 35 36  1  0
 35  2  1  0
 24  7  1  0
 18  9  1  0
 30 23  1  0
M  END
>  <cnnaffinity>  (1) 
-5.27844

>  <filename>  (1) 
Cc1nccn1C1=C(c2cccnc2)CC2(CC2)C1

$$$$
