
     RDKit          3D

 41 44  0  0  0  0  0  0  0  0999 V2000
    7.3713    1.2492   28.6268 C   0  0  0  0  0  0  0  0  0  0  0  0
    7.8438    1.9863   27.4190 C   0  0  0  0  0  0  0  0  0  0  0  0
    8.1290    3.2422   27.4357 N   0  0  0  0  0  0  0  0  0  0  0  0
    8.6679    3.6345   26.2194 C   0  0  0  0  0  0  0  0  0  0  0  0
    9.2197    4.8935   25.9528 C   0  0  0  0  0  0  0  0  0  0  0  0
    9.7255    5.1556   24.6827 C   0  0  0  0  0  0  0  0  0  0  0  0
    9.6404    4.1866   23.6685 C   0  0  0  0  0  0  0  0  0  0  0  0
    9.1490    2.8997   23.9233 C   0  0  0  0  0  0  0  0  0  0  0  0
    9.0854    1.8370   22.8982 C   0  0  0  0  0  0  0  0  0  0  0  0
    8.0025    1.1788   22.5366 N   0  0  0  0  0  0  0  0  0  0  0  0
    8.4679    0.2805   21.6350 C   0  0  0  0  0  0  0  0  0  0  0  0
    7.5308   -0.6572   20.9283 C   0  0  0  0  0  0  0  0  0  0  0  0
    6.7217   -0.0109   19.8104 C   0  0  0  0  0  0  0  0  0  0  0  0
    5.5104    0.6357   20.0899 C   0  0  0  0  0  0  0  0  0  0  0  0
    4.8401    1.3036   19.0623 C   0  0  0  0  0  0  0  0  0  0  0  0
    5.4092    1.2992   17.7861 C   0  0  0  0  0  0  0  0  0  0  0  0
    6.5544    0.6639   17.4876 N   0  0  0  0  0  0  0  0  0  0  0  0
    7.1782    0.0235   18.4828 C   0  0  0  0  0  0  0  0  0  0  0  0
    8.1019   -0.4945   18.2186 H   0  0  0  0  0  0  0  0  0  0  0  0
    4.9233    1.8154   16.9605 H   0  0  0  0  0  0  0  0  0  0  0  0
    3.9024    1.8236   19.2354 H   0  0  0  0  0  0  0  0  0  0  0  0
    5.1102    0.6151   21.1046 H   0  0  0  0  0  0  0  0  0  0  0  0
    8.1062   -1.5078   20.5509 H   0  0  0  0  0  0  0  0  0  0  0  0
    6.8430   -1.0252   21.6961 H   0  0  0  0  0  0  0  0  0  0  0  0
    9.7704    0.3244   21.4393 N   0  0  0  0  0  0  0  0  0  0  0  0
   10.1678    1.3469   22.2389 N   0  0  0  0  0  0  0  0  0  0  0  0
   11.5711    1.7218   22.3269 C   0  0  0  0  0  0  0  0  0  0  0  0
   12.0246    2.9492   21.5490 C   0  0  0  0  0  0  0  0  0  0  0  0
   11.7686    2.8242   20.2060 F   0  0  0  0  0  0  0  0  0  0  0  0
   13.1058    3.0150   21.6984 H   0  0  0  0  0  0  0  0  0  0  0  0
   11.5958    3.8826   21.9243 H   0  0  0  0  0  0  0  0  0  0  0  0
   12.1521    0.8644   21.9809 H   0  0  0  0  0  0  0  0  0  0  0  0
   11.8134    1.9091   23.3801 H   0  0  0  0  0  0  0  0  0  0  0  0
    8.6752    2.6372   25.2224 C   0  0  0  0  0  0  0  0  0  0  0  0
    8.0664    1.1598   25.8871 S   0  0  0  0  0  0  0  0  0  0  0  0
    9.9275    4.4562   22.6571 H   0  0  0  0  0  0  0  0  0  0  0  0
   10.1894    6.1115   24.4586 H   0  0  0  0  0  0  0  0  0  0  0  0
    9.2236    5.6331   26.7456 H   0  0  0  0  0  0  0  0  0  0  0  0
    7.6808    0.2040   28.6011 H   0  0  0  0  0  0  0  0  0  0  0  0
    6.2807    1.2959   28.6937 H   0  0  0  0  0  0  0  0  0  0  0  0
    7.7851    1.7271   29.5159 H   0  0  0  0  0  0  0  0  0  0  0  0
  1  2  1  0
  2  3  2  0
  3  4  1  0
  4  5  2  0
  5  6  1  0
  6  7  2  0
  7  8  1  0
  8  9  1  0
  9 10  2  0
 10 11  1  0
 11 12  1  0
 12 13  1  0
 13 14  2  0
 14 15  1  0
 15 16  2  0
 16 17  1  0
 17 18  2  0
 18 19  1  0
 16 20  1  0
 15 21  1  0
 14 22  1  0
 12 23  1  0
 12 24  1  0
 11 25  2  0
 25 26  1  0
 26 27  1  0
 27 28  1  0
 28 29  1  0
 28 30  1  0
 28 31  1  0
 27 32  1  0
 27 33  1  0
  8 34  2  0
 34 35  1  0
  7 36  1  0
  6 37  1  0
  5 38  1  0
  1 39  1  0
  1 40  1  0
  1 41  1  0
 35  2  1  0
 34  4  1  0
 26  9  1  0
 18 13  1  0
M  END
>  <cnnaffinity>  (1) 
-5.74938

>  <filename>  (1) 
Cc1nc2cccc(-c3nc(Cc4cccnc4)nn3CCF)c2s1

$$$$
