
     RDKit          3D

 49 53  0  0  0  0  0  0  0  0999 V2000
    8.4026    8.1343   26.5235 C   0  0  0  0  0  0  0  0  0  0  0  0
    8.5232    6.7481   25.9875 C   0  0  0  0  0  0  0  0  0  0  0  0
    8.5435    6.4215   24.7235 N   0  0  0  0  0  0  0  0  0  0  0  0
    8.7453    5.0466   24.7013 C   0  0  0  0  0  0  0  0  0  0  0  0
    8.8443    4.1497   23.6197 C   0  0  0  0  0  0  0  0  0  0  0  0
    9.0054    2.7869   23.8864 C   0  0  0  0  0  0  0  0  0  0  0  0
    9.0255    1.8159   22.8220 N   0  0  0  0  0  0  0  0  0  0  0  0
    7.9089    1.0791   22.5770 N   0  0  0  0  0  0  0  0  0  0  0  0
    8.2975    0.2553   21.6289 C   0  0  0  0  0  0  0  0  0  0  0  0
    7.3582   -0.7095   20.9644 C   0  0  0  0  0  0  0  0  0  0  0  0
    6.5927   -0.0563   19.8226 C   0  0  0  0  0  0  0  0  0  0  0  0
    5.4018    0.6343   20.0736 C   0  0  0  0  0  0  0  0  0  0  0  0
    4.7842    1.3229   19.0267 C   0  0  0  0  0  0  0  0  0  0  0  0
    5.3910    1.3067   17.7678 C   0  0  0  0  0  0  0  0  0  0  0  0
    6.5331    0.6530   17.5042 N   0  0  0  0  0  0  0  0  0  0  0  0
    7.1106   -0.0036   18.5171 C   0  0  0  0  0  0  0  0  0  0  0  0
    8.0432   -0.5184   18.2816 H   0  0  0  0  0  0  0  0  0  0  0  0
    4.9433    1.8380   16.9297 H   0  0  0  0  0  0  0  0  0  0  0  0
    3.8669    1.8818   19.1760 H   0  0  0  0  0  0  0  0  0  0  0  0
    4.9852    0.6396   21.0832 H   0  0  0  0  0  0  0  0  0  0  0  0
    6.6660   -1.0806   21.7281 H   0  0  0  0  0  0  0  0  0  0  0  0
    7.9468   -1.5619   20.6113 H   0  0  0  0  0  0  0  0  0  0  0  0
    9.5985    0.3780   21.2655 N   0  0  0  0  0  0  0  0  0  0  0  0
   10.0414    1.3564   22.0401 C   0  0  0  0  0  0  0  0  0  0  0  0
   11.4645    1.8396   22.0496 C   0  0  0  0  0  0  0  0  0  0  0  0
   11.7374    3.1667   21.3110 C   0  0  0  0  0  0  0  0  0  0  0  0
   11.2331    3.9879   21.8383 H   0  0  0  0  0  0  0  0  0  0  0  0
   11.4204    3.1263   20.2628 H   0  0  0  0  0  0  0  0  0  0  0  0
   12.8077    3.3984   21.3272 H   0  0  0  0  0  0  0  0  0  0  0  0
   12.0439    1.9601   23.4462 C   0  0  0  0  0  0  0  0  0  0  0  0
   12.5897    0.7759   24.1844 C   0  0  0  0  0  0  0  0  0  0  0  0
   13.5181    1.7868   23.5727 C   0  0  0  0  0  0  0  0  0  0  0  0
   14.0031    2.5046   24.2013 H   0  0  0  0  0  0  0  0  0  0  0  0
   14.0843    1.5004   22.6900 H   0  0  0  0  0  0  0  0  0  0  0  0
   12.5209   -0.1964   23.7024 H   0  0  0  0  0  0  0  0  0  0  0  0
   12.4879    0.7527   25.2663 H   0  0  0  0  0  0  0  0  0  0  0  0
   11.6062    2.7627   24.0403 H   0  0  0  0  0  0  0  0  0  0  0  0
   11.9820    1.0221   21.5298 H   0  0  0  0  0  0  0  0  0  0  0  0
    9.0471    2.3053   25.2181 C   0  0  0  0  0  0  0  0  0  0  0  0
    8.9262    3.1807   26.2929 C   0  0  0  0  0  0  0  0  0  0  0  0
    8.8262    4.5497   26.0175 C   0  0  0  0  0  0  0  0  0  0  0  0
    8.6955    5.6696   26.8161 N   0  0  0  0  0  0  0  0  0  0  0  0
    8.8111    5.7231   27.8094 H   0  0  0  0  0  0  0  0  0  0  0  0
    8.8297    2.7938   27.3004 H   0  0  0  0  0  0  0  0  0  0  0  0
    9.1303    1.2348   25.4045 H   0  0  0  0  0  0  0  0  0  0  0  0
    8.7348    4.5312   22.6101 H   0  0  0  0  0  0  0  0  0  0  0  0
    7.7784    8.7427   25.8652 H   0  0  0  0  0  0  0  0  0  0  0  0
    7.9751    8.1457   27.5287 H   0  0  0  0  0  0  0  0  0  0  0  0
    9.3942    8.5939   26.5823 H   0  0  0  0  0  0  0  0  0  0  0  0
  1  2  1  0
  2  3  2  0
  3  4  1  0
  4  5  2  0
  5  6  1  0
  6  7  1  0
  7  8  1  0
  8  9  2  0
  9 10  1  0
 10 11  1  0
 11 12  2  0
 12 13  1  0
 13 14  2  0
 14 15  1  0
 15 16  2  0
 16 17  1  0
 14 18  1  0
 13 19  1  0
 12 20  1  0
 10 21  1  0
 10 22  1  0
  9 23  1  0
 23 24  2  0
 24 25  1  0
 25 26  1  0
 26 27  1  0
 26 28  1  0
 26 29  1  0
 25 30  1  0
 30 31  1  0
 31 32  1  0
 32 33  1  0
 32 34  1  0
 31 35  1  0
 31 36  1  0
 30 37  1  0
 25 38  1  0
  6 39  2  0
 39 40  1  0
 40 41  2  0
 41 42  1  0
 42 43  1  0
 40 44  1  0
 39 45  1  0
  5 46  1  0
  1 47  1  0
  1 48  1  0
  1 49  1  0
 42  2  1  0
 41  4  1  0
 24  7  1  0
 32 30  1  0
 16 11  1  0
M  END
>  <cnnaffinity>  (1) 
-6.03666

>  <filename>  (1) 
Cc1nc2cc(-n3nc(Cc4cccnc4)nc3C(C)C3CC3)ccc2[nH]1

$$$$
