
     RDKit          3D

 29 31  0  0  0  0  0  0  0  0999 V2000
    8.9489   -3.5583   22.2039 C   0  0  0  0  0  0  0  0  0  0  0  0
    8.2702   -2.2829   21.9165 C   0  0  0  0  0  0  0  0  0  0  0  0
    7.8443   -1.9391   20.7189 N   0  0  0  0  0  0  0  0  0  0  0  0
    7.3531   -0.6929   20.9274 N   0  0  0  0  0  0  0  0  0  0  0  0
    6.6513   -0.0042   19.9032 C   0  0  0  0  0  0  0  0  0  0  0  0
    5.4331    0.6384   20.1630 C   0  0  0  0  0  0  0  0  0  0  0  0
    4.8090    1.3049   19.1079 C   0  0  0  0  0  0  0  0  0  0  0  0
    5.4050    1.2926   17.8430 C   0  0  0  0  0  0  0  0  0  0  0  0
    6.5728    0.6740   17.5919 N   0  0  0  0  0  0  0  0  0  0  0  0
    7.1765    0.0407   18.5998 C   0  0  0  0  0  0  0  0  0  0  0  0
    8.1247   -0.4420   18.3792 H   0  0  0  0  0  0  0  0  0  0  0  0
    4.9223    1.7811   16.9986 H   0  0  0  0  0  0  0  0  0  0  0  0
    3.8791    1.8394   19.2599 H   0  0  0  0  0  0  0  0  0  0  0  0
    5.0121    0.6346   21.1709 H   0  0  0  0  0  0  0  0  0  0  0  0
    7.5701   -0.3546   22.2356 C   0  0  0  0  0  0  0  0  0  0  0  0
    7.2637    0.9701   22.8078 C   0  0  0  0  0  0  0  0  0  0  0  0
    7.4820    2.1746   22.1114 C   0  0  0  0  0  0  0  0  0  0  0  0
    7.1902    3.3783   22.7452 C   0  0  0  0  0  0  0  0  0  0  0  0
    6.7170    3.4736   23.9973 N   0  0  0  0  0  0  0  0  0  0  0  0
    6.5280    2.3318   24.6388 C   0  0  0  0  0  0  0  0  0  0  0  0
    5.9346    2.4328   26.2635 Cl  0  0  0  0  0  0  0  0  0  0  0  0
    6.7770    1.0613   24.1149 C   0  0  0  0  0  0  0  0  0  0  0  0
    6.6083    0.1711   24.7114 H   0  0  0  0  0  0  0  0  0  0  0  0
    7.3460    4.3176   22.2229 H   0  0  0  0  0  0  0  0  0  0  0  0
    7.8645    2.1746   21.0988 H   0  0  0  0  0  0  0  0  0  0  0  0
    8.1389   -1.3481   22.8813 N   0  0  0  0  0  0  0  0  0  0  0  0
    8.5914   -4.3370   21.5316 H   0  0  0  0  0  0  0  0  0  0  0  0
   10.0115   -3.3415   22.0881 H   0  0  0  0  0  0  0  0  0  0  0  0
    8.8173   -3.8659   23.2379 H   0  0  0  0  0  0  0  0  0  0  0  0
  1  2  1  0
  2  3  2  0
  3  4  1  0
  4  5  1  0
  5  6  2  0
  6  7  1  0
  7  8  2  0
  8  9  1  0
  9 10  2  0
 10 11  1  0
  8 12  1  0
  7 13  1  0
  6 14  1  0
  4 15  1  0
 15 16  1  0
 16 17  2  0
 17 18  1  0
 18 19  2  0
 19 20  1  0
 20 21  1  0
 20 22  2  0
 22 23  1  0
 18 24  1  0
 17 25  1  0
 15 26  2  0
  1 27  1  0
  1 28  1  0
  1 29  1  0
 26  2  1  0
 10  5  1  0
 22 16  1  0
M  END
>  <cnnaffinity>  (1) 
-5.0277

>  <filename>  (1) 
Cc1nc(-c2ccnc(Cl)c2)n(-c2cccnc2)n1

$$$$
