
     RDKit          3D

 52 56  0  0  0  0  0  0  0  0999 V2000
    9.7333    8.1074   26.5182 C   0  0  0  0  0  0  0  0  0  0  0  0
    9.3451    6.7269   26.1141 C   0  0  0  0  0  0  0  0  0  0  0  0
    9.2495    6.3144   24.8789 N   0  0  0  0  0  0  0  0  0  0  0  0
    8.8230    5.0018   24.9660 C   0  0  0  0  0  0  0  0  0  0  0  0
    8.5452    4.0781   23.9500 C   0  0  0  0  0  0  0  0  0  0  0  0
    8.2527    2.7552   24.3081 C   0  0  0  0  0  0  0  0  0  0  0  0
    8.3634    1.7125   23.3303 N   0  0  0  0  0  0  0  0  0  0  0  0
    7.3317    1.0272   22.7856 N   0  0  0  0  0  0  0  0  0  0  0  0
    7.9359    0.1815   21.9694 C   0  0  0  0  0  0  0  0  0  0  0  0
    7.1788   -0.7290   21.0379 C   0  0  0  0  0  0  0  0  0  0  0  0
    6.4946   -0.0463   19.8432 C   0  0  0  0  0  0  0  0  0  0  0  0
    5.3051    0.6767   20.0287 C   0  0  0  0  0  0  0  0  0  0  0  0
    4.7511    1.3663   18.9466 C   0  0  0  0  0  0  0  0  0  0  0  0
    5.3973    1.3089   17.7109 C   0  0  0  0  0  0  0  0  0  0  0  0
    6.5099    0.5891   17.4952 N   0  0  0  0  0  0  0  0  0  0  0  0
    7.0274   -0.0691   18.5389 C   0  0  0  0  0  0  0  0  0  0  0  0
    7.9324   -0.6414   18.3262 H   0  0  0  0  0  0  0  0  0  0  0  0
    5.0098    1.8601   16.8551 H   0  0  0  0  0  0  0  0  0  0  0  0
    3.8460    1.9573   19.0449 H   0  0  0  0  0  0  0  0  0  0  0  0
    4.8298    0.7033   21.0111 H   0  0  0  0  0  0  0  0  0  0  0  0
    7.8860   -1.4938   20.7011 H   0  0  0  0  0  0  0  0  0  0  0  0
    6.4243   -1.2359   21.6510 H   0  0  0  0  0  0  0  0  0  0  0  0
    9.2992    0.2213   22.0146 N   0  0  0  0  0  0  0  0  0  0  0  0
    9.5295    1.2056   22.8666 C   0  0  0  0  0  0  0  0  0  0  0  0
   10.8331    1.9018   23.1426 C   0  0  2  0  0  0  0  0  0  0  0  0
   11.0824    3.1066   22.2123 C   0  0  0  0  0  0  0  0  0  0  0  0
   12.5038    2.9493   21.6654 C   0  0  0  0  0  0  0  0  0  0  0  0
   13.1642    1.9278   22.5833 C   0  0  0  0  0  0  0  0  0  0  0  0
   12.0358    1.0143   22.9179 N   0  0  0  0  0  4  0  0  0  0  0  0
   12.2727    0.0893   24.0308 C   0  0  0  0  0  0  0  0  0  0  0  0
   13.1054   -0.5864   23.8175 H   0  0  0  0  0  0  0  0  0  0  0  0
   11.3640   -0.4875   24.2272 H   0  0  0  0  0  0  0  0  0  0  0  0
   12.5202    0.6528   24.9409 H   0  0  0  0  0  0  0  0  0  0  0  0
   11.7813    0.4756   22.0539 H   0  0  0  0  0  0  0  0  0  0  0  0
   13.9902    1.3795   22.1243 H   0  0  0  0  0  0  0  0  0  0  0  0
   13.5437    2.3866   23.5014 H   0  0  0  0  0  0  0  0  0  0  0  0
   12.4358    2.5180   20.6626 H   0  0  0  0  0  0  0  0  0  0  0  0
   13.0686    3.8843   21.5875 H   0  0  0  0  0  0  0  0  0  0  0  0
   10.3527    3.0800   21.4028 H   0  0  0  0  0  0  0  0  0  0  0  0
   10.9370    4.0319   22.7663 H   0  0  0  0  0  0  0  0  0  0  0  0
   10.8414    2.2263   24.1844 H   0  0  0  0  0  0  0  0  0  0  0  0
    8.0385    2.4093   25.6614 C   0  0  0  0  0  0  0  0  0  0  0  0
    8.2565    3.3347   26.6808 C   0  0  0  0  0  0  0  0  0  0  0  0
    8.6803    4.6198   26.3129 C   0  0  0  0  0  0  0  0  0  0  0  0
    9.0394    5.7495   27.0314 N   0  0  0  0  0  0  0  0  0  0  0  0
    8.8657    5.9053   28.0074 H   0  0  0  0  0  0  0  0  0  0  0  0
    8.1165    3.0504   27.7211 H   0  0  0  0  0  0  0  0  0  0  0  0
    7.6999    1.4021   25.8984 H   0  0  0  0  0  0  0  0  0  0  0  0
    8.5367    4.4223   22.9227 H   0  0  0  0  0  0  0  0  0  0  0  0
   10.2344    8.1115   27.4887 H   0  0  0  0  0  0  0  0  0  0  0  0
   10.3998    8.5396   25.7686 H   0  0  0  0  0  0  0  0  0  0  0  0
    8.8510    8.7512   26.5819 H   0  0  0  0  0  0  0  0  0  0  0  0
  1  2  1  0
  2  3  2  0
  3  4  1  0
  4  5  2  0
  5  6  1  0
  6  7  1  0
  7  8  1  0
  8  9  2  0
  9 10  1  0
 10 11  1  0
 11 12  2  0
 12 13  1  0
 13 14  2  0
 14 15  1  0
 15 16  2  0
 16 17  1  0
 14 18  1  0
 13 19  1  0
 12 20  1  0
 10 21  1  0
 10 22  1  0
  9 23  1  0
 23 24  2  0
 24 25  1  0
 25 26  1  0
 26 27  1  0
 27 28  1  0
 28 29  1  0
 29 30  1  0
 30 31  1  0
 30 32  1  0
 30 33  1  0
 29 34  1  0
 28 35  1  0
 28 36  1  0
 27 37  1  0
 27 38  1  0
 26 39  1  0
 26 40  1  0
 25 41  1  1
  6 42  2  0
 42 43  1  0
 43 44  2  0
 44 45  1  0
 45 46  1  0
 43 47  1  0
 42 48  1  0
  5 49  1  0
  1 50  1  0
  1 51  1  0
  1 52  1  0
 45  2  1  0
 44  4  1  0
 24  7  1  0
 29 25  1  0
 16 11  1  0
M  CHG  1  29   1
M  END
>  <cnnaffinity>  (1) 
-5.79671

>  <filename>  (1) 
Cc1nc2cc(-n3nc(Cc4cccnc4)nc3[C@@H]3CCC[NH+]3C)ccc2[nH]1

$$$$
