
     RDKit          3D

 26 27  0  0  0  0  0  0  0  0999 V2000
    4.9136    1.7846   16.9939 H   0  0  0  0  0  0  0  0  0  0  0  0
    5.3994    1.2974   17.8347 C   0  0  0  0  0  0  0  0  0  0  0  0
    6.5647    0.6857   17.5703 N   0  0  0  0  0  0  0  0  0  0  0  0
    7.1614    0.0614   18.5895 C   0  0  0  0  0  0  0  0  0  0  0  0
    8.1125   -0.4213   18.3682 H   0  0  0  0  0  0  0  0  0  0  0  0
    6.6464   -0.0081   19.8937 C   0  0  0  0  0  0  0  0  0  0  0  0
    7.3990   -0.7083   20.9958 C   0  0  0  0  0  0  0  0  0  0  0  0
    6.6879   -1.0880   21.7425 H   0  0  0  0  0  0  0  0  0  0  0  0
    7.9399   -1.5767   20.5964 H   0  0  0  0  0  0  0  0  0  0  0  0
    8.3979    0.2001   21.7600 C   0  0  1  0  0  0  0  0  0  0  0  0
    8.8567   -0.3763   22.5632 H   0  0  0  0  0  0  0  0  0  0  0  0
    9.7568    0.6563   20.6759 Cl  0  0  0  0  0  0  0  0  0  0  0  0
    7.7587    1.4201   22.3700 C   0  0  0  0  0  0  0  0  0  0  0  0
    7.2286    1.3402   23.6386 N   0  0  0  0  0  0  0  0  0  0  0  0
    6.6459    2.4572   23.9618 C   0  0  0  0  0  0  0  0  0  0  0  0
    5.9519    2.6845   25.2602 C   0  0  0  0  0  0  0  0  0  0  0  0
    4.8937    2.4239   25.1614 H   0  0  0  0  0  0  0  0  0  0  0  0
    6.3788    2.0458   26.0348 H   0  0  0  0  0  0  0  0  0  0  0  0
    6.0069    3.7274   25.5759 H   0  0  0  0  0  0  0  0  0  0  0  0
    6.6903    3.6872   22.7321 S   0  0  0  0  0  0  0  0  0  0  0  0
    7.5660    2.5996   21.7427 C   0  0  0  0  0  0  0  0  0  0  0  0
    7.8846    2.7785   20.7356 H   0  0  0  0  0  0  0  0  0  0  0  0
    5.4298    0.6402   20.1481 C   0  0  0  0  0  0  0  0  0  0  0  0
    5.0143    0.6364   21.1632 H   0  0  0  0  0  0  0  0  0  0  0  0
    4.8007    1.3123   19.0997 C   0  0  0  0  0  0  0  0  0  0  0  0
    3.8691    1.8474   19.2545 H   0  0  0  0  0  0  0  0  0  0  0  0
  1  2  1  0
  2  3  2  0
  3  4  1  0
  4  5  1  0
  4  6  2  0
  6  7  1  0
  7  8  1  0
  7  9  1  0
  7 10  1  0
 10 11  1  1
 10 12  1  0
 10 13  1  0
 13 14  1  0
 14 15  2  0
 15 16  1  0
 16 17  1  0
 16 18  1  0
 16 19  1  0
 15 20  1  0
 20 21  1  0
 21 22  1  0
  6 23  1  0
 23 24  1  0
 23 25  2  0
 25 26  1  0
 25  2  1  0
 21 13  2  0
M  END
>  <cnnaffinity>  (1) 
-4.24922

>  <filename>  (1) 
Cc1nc([C@H](Cl)Cc2cccnc2)cs1

$$$$
