
     RDKit          3D

 30 32  0  0  0  0  0  0  0  0999 V2000
    4.9231    1.8174   16.9630 H   0  0  0  0  0  0  0  0  0  0  0  0
    5.3849    1.3058   17.8055 C   0  0  0  0  0  0  0  0  0  0  0  0
    6.5462    0.6828   17.5478 N   0  0  0  0  0  0  0  0  0  0  0  0
    7.1529    0.0732   18.5732 C   0  0  0  0  0  0  0  0  0  0  0  0
    8.1052   -0.4055   18.3395 H   0  0  0  0  0  0  0  0  0  0  0  0
    6.6509    0.0401   19.8922 C   0  0  0  0  0  0  0  0  0  0  0  0
    7.3778   -0.6522   21.0144 C   0  0  0  0  0  0  0  0  0  0  0  0
    7.6564   -2.0195   20.9102 C   0  0  0  0  0  0  0  0  0  0  0  0
    7.2703   -2.5396   20.0374 H   0  0  0  0  0  0  0  0  0  0  0  0
    8.2952   -2.7555   21.8255 N   0  0  0  0  0  0  0  0  0  0  0  0
    8.6387   -2.1402   22.9663 C   0  0  0  0  0  0  0  0  0  0  0  0
    9.1395   -2.7615   23.7083 H   0  0  0  0  0  0  0  0  0  0  0  0
    8.3596   -0.8003   23.2308 C   0  0  0  0  0  0  0  0  0  0  0  0
    8.6223   -0.3542   24.1858 H   0  0  0  0  0  0  0  0  0  0  0  0
    7.7474   -0.0385   22.2293 C   0  0  0  0  0  0  0  0  0  0  0  0
    7.5116    1.3477   22.4381 N   0  0  0  0  0  0  0  0  0  0  0  0
    6.7482    1.9228   23.4261 C   0  0  0  0  0  0  0  0  0  0  0  0
    6.0446    1.1606   24.5018 C   0  0  0  0  0  0  0  0  0  0  0  0
    5.2716    1.7946   24.9349 H   0  0  0  0  0  0  0  0  0  0  0  0
    5.5954    0.2409   24.1226 H   0  0  0  0  0  0  0  0  0  0  0  0
    6.7381    0.8777   25.2984 H   0  0  0  0  0  0  0  0  0  0  0  0
    6.7132    3.2215   23.2986 N   0  0  0  0  0  0  0  0  0  0  0  0
    7.4628    3.5265   22.1822 C   0  0  0  0  0  0  0  0  0  0  0  0
    7.6088    4.5595   21.8822 H   0  0  0  0  0  0  0  0  0  0  0  0
    7.9515    2.3816   21.6237 C   0  0  0  0  0  0  0  0  0  0  0  0
    8.5071    2.1615   20.7233 H   0  0  0  0  0  0  0  0  0  0  0  0
    5.4228    0.6740   20.1237 C   0  0  0  0  0  0  0  0  0  0  0  0
    5.0015    0.6620   21.1298 H   0  0  0  0  0  0  0  0  0  0  0  0
    4.7809    1.3190   19.0673 C   0  0  0  0  0  0  0  0  0  0  0  0
    3.8485    1.8534   19.2164 H   0  0  0  0  0  0  0  0  0  0  0  0
  1  2  1  0
  2  3  2  0
  3  4  1  0
  4  5  1  0
  4  6  2  0
  6  7  1  0
  7  8  2  0
  8  9  1  0
  8 10  1  0
 10 11  2  0
 11 12  1  0
 11 13  1  0
 13 14  1  0
 13 15  2  0
 15 16  1  0
 16 17  1  0
 17 18  1  0
 18 19  1  0
 18 20  1  0
 18 21  1  0
 17 22  2  0
 22 23  1  0
 23 24  1  0
 23 25  2  0
 25 26  1  0
  6 27  1  0
 27 28  1  0
 27 29  2  0
 29 30  1  0
 29  2  1  0
 15  7  1  0
 25 16  1  0
M  END
>  <cnnaffinity>  (1) 
-4.94224

>  <filename>  (1) 
Cc1nccn1-c1ccncc1-c1cccnc1

$$$$
