
     RDKit          3D

 47 51  0  0  0  0  0  0  0  0999 V2000
   14.6856    6.2032   21.7001 C   0  0  0  0  0  0  0  0  0  0  0  0
   13.9195    5.0337   22.1914 C   0  0  0  0  0  0  0  0  0  0  0  0
   12.6210    4.9949   22.0967 N   0  0  0  0  0  0  0  0  0  0  0  0
   12.2934    3.6898   22.3856 C   0  0  0  0  0  0  0  0  0  0  0  0
   11.0604    3.0612   22.3379 C   0  0  0  0  0  0  0  0  0  0  0  0
   10.9434    1.6842   22.5585 C   0  0  0  0  0  0  0  0  0  0  0  0
    9.6227    1.0460   22.4658 C   0  0  0  0  0  0  0  0  0  0  0  0
    9.2527    0.0773   21.6498 N   0  0  0  0  0  0  0  0  0  0  0  0
    7.9039    0.0504   21.8071 C   0  0  0  0  0  0  0  0  0  0  0  0
    7.0078   -0.8317   20.9813 C   0  0  0  0  0  0  0  0  0  0  0  0
    6.3646   -0.1139   19.7939 C   0  0  0  0  0  0  0  0  0  0  0  0
    5.1955    0.6412   19.9572 C   0  0  0  0  0  0  0  0  0  0  0  0
    4.7069    1.3791   18.8761 C   0  0  0  0  0  0  0  0  0  0  0  0
    5.3945    1.3271   17.6623 C   0  0  0  0  0  0  0  0  0  0  0  0
    6.4979    0.5881   17.4706 N   0  0  0  0  0  0  0  0  0  0  0  0
    6.9604   -0.1065   18.5182 C   0  0  0  0  0  0  0  0  0  0  0  0
    7.8610   -0.6949   18.3336 H   0  0  0  0  0  0  0  0  0  0  0  0
    5.0416    1.8973   16.8042 H   0  0  0  0  0  0  0  0  0  0  0  0
    3.8269    2.0051   18.9663 H   0  0  0  0  0  0  0  0  0  0  0  0
    4.6792    0.6526   20.9190 H   0  0  0  0  0  0  0  0  0  0  0  0
    7.6152   -1.6767   20.6397 H   0  0  0  0  0  0  0  0  0  0  0  0
    6.2365   -1.2300   21.6499 H   0  0  0  0  0  0  0  0  0  0  0  0
    7.4315    0.9134   22.6901 N   0  0  0  0  0  0  0  0  0  0  0  0
    8.5434    1.5531   23.1236 N   0  0  0  0  0  0  0  0  0  0  0  0
    8.4959    2.6727   24.0855 C   0  0  0  0  0  0  0  0  0  0  0  0
    7.8777    3.9562   23.4930 C   0  0  0  0  0  0  0  0  0  0  0  0
    6.3643    3.8505   23.6445 C   0  0  0  0  0  0  0  0  0  0  0  0
    6.0875    3.1760   25.3127 S   0  0  0  0  0  0  0  0  0  0  0  0
    7.7180    2.3553   25.3791 C   0  0  0  0  0  0  0  0  0  0  0  0
    8.2762    2.7656   26.2259 H   0  0  0  0  0  0  0  0  0  0  0  0
    7.6012    1.2806   25.5229 H   0  0  0  0  0  0  0  0  0  0  0  0
    5.9582    3.1568   22.9008 H   0  0  0  0  0  0  0  0  0  0  0  0
    5.8591    4.8158   23.5528 H   0  0  0  0  0  0  0  0  0  0  0  0
    8.1456    4.1105   22.4416 H   0  0  0  0  0  0  0  0  0  0  0  0
    8.2593    4.8104   24.0662 H   0  0  0  0  0  0  0  0  0  0  0  0
    9.5354    2.8539   24.3614 H   0  0  0  0  0  0  0  0  0  0  0  0
   12.1225    0.9523   22.8090 C   0  0  0  0  0  0  0  0  0  0  0  0
   12.0359   -0.3702   22.9672 F   0  0  0  0  0  0  0  0  0  0  0  0
   13.3770    1.5484   22.9046 C   0  0  0  0  0  0  0  0  0  0  0  0
   13.4339    2.9324   22.6941 C   0  0  0  0  0  0  0  0  0  0  0  0
   14.4689    3.8359   22.5947 N   0  0  0  0  0  0  0  0  0  0  0  0
   15.4350    3.6266   22.7812 H   0  0  0  0  0  0  0  0  0  0  0  0
   14.2457    0.9305   23.0932 H   0  0  0  0  0  0  0  0  0  0  0  0
   10.2120    3.6704   22.0860 H   0  0  0  0  0  0  0  0  0  0  0  0
   15.0197    5.9887   20.6787 H   0  0  0  0  0  0  0  0  0  0  0  0
   14.0118    7.0617   21.6862 H   0  0  0  0  0  0  0  0  0  0  0  0
   15.5634    6.4378   22.2906 H   0  0  0  0  0  0  0  0  0  0  0  0
  1  2  1  0
  2  3  2  0
  3  4  1  0
  4  5  2  0
  5  6  1  0
  6  7  1  0
  7  8  2  0
  8  9  1  0
  9 10  1  0
 10 11  1  0
 11 12  2  0
 12 13  1  0
 13 14  2  0
 14 15  1  0
 15 16  2  0
 16 17  1  0
 14 18  1  0
 13 19  1  0
 12 20  1  0
 10 21  1  0
 10 22  1  0
  9 23  2  0
 23 24  1  0
 24 25  1  0
 25 26  1  0
 26 27  1  0
 27 28  1  0
 28 29  1  0
 29 30  1  0
 29 31  1  0
 27 32  1  0
 27 33  1  0
 26 34  1  0
 26 35  1  0
 25 36  1  0
  6 37  2  0
 37 38  1  0
 37 39  1  0
 39 40  2  0
 40 41  1  0
 41 42  1  0
 39 43  1  0
  5 44  1  0
  1 45  1  0
  1 46  1  0
  1 47  1  0
 41  2  1  0
 40  4  1  0
 24  7  1  0
 29 25  1  0
 16 11  1  0
M  END
>  <cnnaffinity>  (1) 
-6.87032

>  <filename>  (1) 
Cc1nc2cc(-c3nc(Cc4cccnc4)nn3C3CCSC3)c(F)cc2[nH]1

$$$$
