
     RDKit          3D

 42 46  0  0  0  0  0  0  0  0999 V2000
   14.1422   -1.4938   21.4770 C   0  0  0  0  0  0  0  0  0  0  0  0
   13.5179   -0.2420   21.9800 C   0  0  0  0  0  0  0  0  0  0  0  0
   12.2488   -0.0216   21.9426 N   0  0  0  0  0  0  0  0  0  0  0  0
   12.1164    1.3112   22.2979 C   0  0  0  0  0  0  0  0  0  0  0  0
   10.9771    2.1306   22.3947 C   0  0  0  0  0  0  0  0  0  0  0  0
    9.6710    1.4851   22.2794 C   0  0  0  0  0  0  0  0  0  0  0  0
    9.3578    0.5693   21.3797 N   0  0  0  0  0  0  0  0  0  0  0  0
    8.0705    0.2810   21.6568 C   0  0  0  0  0  0  0  0  0  0  0  0
    7.3307   -0.7278   20.8310 C   0  0  0  0  0  0  0  0  0  0  0  0
    6.5735   -0.0878   19.6781 C   0  0  0  0  0  0  0  0  0  0  0  0
    5.3935    0.6183   19.9423 C   0  0  0  0  0  0  0  0  0  0  0  0
    4.7838    1.3281   18.9055 C   0  0  0  0  0  0  0  0  0  0  0  0
    5.3806    1.3113   17.6409 C   0  0  0  0  0  0  0  0  0  0  0  0
    6.4921    0.6151   17.3571 N   0  0  0  0  0  0  0  0  0  0  0  0
    7.0649   -0.0607   18.3617 C   0  0  0  0  0  0  0  0  0  0  0  0
    7.9762   -0.6037   18.1079 H   0  0  0  0  0  0  0  0  0  0  0  0
    4.9487    1.8803   16.8185 H   0  0  0  0  0  0  0  0  0  0  0  0
    3.8837    1.9117   19.0686 H   0  0  0  0  0  0  0  0  0  0  0  0
    4.9806    0.6205   20.9535 H   0  0  0  0  0  0  0  0  0  0  0  0
    8.0769   -1.4403   20.4661 H   0  0  0  0  0  0  0  0  0  0  0  0
    6.6439   -1.2688   21.4892 H   0  0  0  0  0  0  0  0  0  0  0  0
    7.5531    0.9611   22.6571 N   0  0  0  0  0  0  0  0  0  0  0  0
    8.5907    1.7370   23.0706 N   0  0  0  0  0  0  0  0  0  0  0  0
    8.3834    2.6209   24.1968 C   0  0  0  0  0  0  0  0  0  0  0  0
    9.4650    2.8643   25.2157 C   0  0  0  0  0  0  0  0  0  0  0  0
    8.2733    2.0312   25.5760 C   0  0  0  0  0  0  0  0  0  0  0  0
    7.5203    2.4445   26.2395 H   0  0  0  0  0  0  0  0  0  0  0  0
    8.4181    0.9592   25.6700 H   0  0  0  0  0  0  0  0  0  0  0  0
    9.5506    3.8672   25.6274 H   0  0  0  0  0  0  0  0  0  0  0  0
   10.4144    2.3459   25.0803 H   0  0  0  0  0  0  0  0  0  0  0  0
    7.7144    3.4456   23.9518 H   0  0  0  0  0  0  0  0  0  0  0  0
   11.1837    3.5183   22.5528 C   0  0  0  0  0  0  0  0  0  0  0  0
   12.4737    4.0370   22.7336 C   0  0  0  0  0  0  0  0  0  0  0  0
   13.6039    3.2016   22.7367 C   0  0  0  0  0  0  0  0  0  0  0  0
   13.3838    1.8433   22.5361 C   0  0  0  0  0  0  0  0  0  0  0  0
   14.2920    0.8178   22.3696 O   0  0  0  0  0  0  0  0  0  0  0  0
   14.6021    3.6122   22.7948 H   0  0  0  0  0  0  0  0  0  0  0  0
   12.6031    5.1127   22.8261 H   0  0  0  0  0  0  0  0  0  0  0  0
   10.3349    4.1942   22.4893 H   0  0  0  0  0  0  0  0  0  0  0  0
   14.8134   -1.2980   20.6368 H   0  0  0  0  0  0  0  0  0  0  0  0
   13.3349   -2.1315   21.1129 H   0  0  0  0  0  0  0  0  0  0  0  0
   14.6846   -2.0093   22.2668 H   0  0  0  0  0  0  0  0  0  0  0  0
  1  2  1  0
  2  3  2  0
  3  4  1  0
  4  5  2  0
  5  6  1  0
  6  7  2  0
  7  8  1  0
  8  9  1  0
  9 10  1  0
 10 11  2  0
 11 12  1  0
 12 13  2  0
 13 14  1  0
 14 15  2  0
 15 16  1  0
 13 17  1  0
 12 18  1  0
 11 19  1  0
  9 20  1  0
  9 21  1  0
  8 22  2  0
 22 23  1  0
 23 24  1  0
 24 25  1  0
 25 26  1  0
 26 27  1  0
 26 28  1  0
 25 29  1  0
 25 30  1  0
 24 31  1  0
  5 32  1  0
 32 33  2  0
 33 34  1  0
 34 35  2  0
 35 36  1  0
 34 37  1  0
 33 38  1  0
 32 39  1  0
  1 40  1  0
  1 41  1  0
  1 42  1  0
 36  2  1  0
 35  4  1  0
 23  6  1  0
 26 24  1  0
 15 10  1  0
M  END
>  <cnnaffinity>  (1) 
-6.50114

>  <filename>  (1) 
Cc1nc2c(-c3nc(Cc4cccnc4)nn3C3CC3)cccc2o1

$$$$
