
     RDKit          3D

 27 29  0  0  0  0  0  0  0  0999 V2000
    8.6212   -3.6151   22.2722 C   0  0  0  0  0  0  0  0  0  0  0  0
    8.1373   -2.2393   22.0230 C   0  0  0  0  0  0  0  0  0  0  0  0
    7.7451   -1.9031   20.8075 N   0  0  0  0  0  0  0  0  0  0  0  0
    7.3582   -0.6246   20.9618 N   0  0  0  0  0  0  0  0  0  0  0  0
    6.6522    0.0296   19.9210 C   0  0  0  0  0  0  0  0  0  0  0  0
    5.4245    0.6546   20.1627 C   0  0  0  0  0  0  0  0  0  0  0  0
    4.7980    1.3029   19.0966 C   0  0  0  0  0  0  0  0  0  0  0  0
    5.4136    1.2839   17.8425 C   0  0  0  0  0  0  0  0  0  0  0  0
    6.5750    0.6500   17.5996 N   0  0  0  0  0  0  0  0  0  0  0  0
    7.1722    0.0248   18.6159 C   0  0  0  0  0  0  0  0  0  0  0  0
    8.1119   -0.4813   18.3997 H   0  0  0  0  0  0  0  0  0  0  0  0
    4.9640    1.8001   16.9982 H   0  0  0  0  0  0  0  0  0  0  0  0
    3.8657    1.8400   19.2345 H   0  0  0  0  0  0  0  0  0  0  0  0
    4.9985    0.6534   21.1650 H   0  0  0  0  0  0  0  0  0  0  0  0
    7.5700   -0.2582   22.2593 C   0  0  0  0  0  0  0  0  0  0  0  0
    7.3926    1.0861   22.7312 C   0  0  0  0  0  0  0  0  0  0  0  0
    7.4249    2.2703   22.0464 C   0  0  0  0  0  0  0  0  0  0  0  0
    7.2285    3.3585   22.9293 C   0  0  0  0  0  0  0  0  0  0  0  0
    7.2123    5.0016   22.3934 Cl  0  0  0  0  0  0  0  0  0  0  0  0
    7.0631    2.9831   24.2287 C   0  0  0  0  0  0  0  0  0  0  0  0
    7.1698    1.2872   24.4152 S   0  0  0  0  0  0  0  0  0  0  0  0
    6.9011    3.6257   25.0808 H   0  0  0  0  0  0  0  0  0  0  0  0
    7.5742    2.3521   20.9753 H   0  0  0  0  0  0  0  0  0  0  0  0
    8.0350   -1.2736   22.9589 N   0  0  0  0  0  0  0  0  0  0  0  0
    9.4904   -3.5997   22.9279 H   0  0  0  0  0  0  0  0  0  0  0  0
    8.8788   -4.0325   21.3042 H   0  0  0  0  0  0  0  0  0  0  0  0
    7.8366   -4.2203   22.7342 H   0  0  0  0  0  0  0  0  0  0  0  0
  1  2  1  0
  2  3  2  0
  3  4  1  0
  4  5  1  0
  5  6  2  0
  6  7  1  0
  7  8  2  0
  8  9  1  0
  9 10  2  0
 10 11  1  0
  8 12  1  0
  7 13  1  0
  6 14  1  0
  4 15  1  0
 15 16  1  0
 16 17  2  0
 17 18  1  0
 18 19  1  0
 18 20  2  0
 20 21  1  0
 20 22  1  0
 17 23  1  0
 15 24  2  0
  1 25  1  0
  1 26  1  0
  1 27  1  0
 24  2  1  0
 10  5  1  0
 21 16  1  0
M  END
>  <cnnaffinity>  (1) 
-4.97368

>  <filename>  (1) 
Cc1nc(-c2cc(Cl)cs2)n(-c2cccnc2)n1

$$$$
