
     RDKit          3D

 37 39  0  0  0  0  0  0  0  0999 V2000
    4.3175    2.7541   24.2436 C   0  0  0  0  0  0  0  0  0  0  0  0
    5.3519    3.8475   24.2011 C   0  0  0  0  0  0  0  0  0  0  0  0
    4.9366    5.0516   23.7908 N   0  0  0  0  0  0  0  0  0  0  0  0
    5.8367    6.0233   23.7210 C   0  0  0  0  0  0  0  0  0  0  0  0
    5.2690    7.5778   23.2042 Cl  0  0  0  0  0  0  0  0  0  0  0  0
    7.1861    5.8938   24.0441 C   0  0  0  0  0  0  0  0  0  0  0  0
    7.6142    4.6437   24.4748 C   0  0  0  0  0  0  0  0  0  0  0  0
    6.6906    3.6009   24.5852 C   0  0  0  0  0  0  0  0  0  0  0  0
    7.2136    2.2255   24.9767 C   0  0  0  0  0  0  0  0  0  0  0  0
    7.7296    1.4616   23.7923 C   0  0  0  0  0  0  0  0  0  0  0  0
    8.9078    1.6547   23.2724 N   0  0  0  0  0  0  0  0  0  0  0  0
    8.8986    0.8249   22.1515 O   0  0  0  0  0  0  0  0  0  0  0  0
    7.7205    0.2035   22.1363 C   0  0  0  0  0  0  0  0  0  0  0  0
    7.4119   -0.7296   20.9908 C   0  0  0  0  0  0  0  0  0  0  0  0
    6.6087   -1.9482   21.4805 C   0  0  0  0  0  0  0  0  0  0  0  0
    6.3767   -2.6226   20.6508 H   0  0  0  0  0  0  0  0  0  0  0  0
    5.6594   -1.6262   21.9118 H   0  0  0  0  0  0  0  0  0  0  0  0
    7.1613   -2.4924   22.2550 H   0  0  0  0  0  0  0  0  0  0  0  0
    6.6658    0.0088   19.8809 C   0  0  0  0  0  0  0  0  0  0  0  0
    5.4436    0.6461   20.1413 C   0  0  0  0  0  0  0  0  0  0  0  0
    4.8042    1.3072   19.0944 C   0  0  0  0  0  0  0  0  0  0  0  0
    5.3953    1.2956   17.8251 C   0  0  0  0  0  0  0  0  0  0  0  0
    6.5561    0.6805   17.5519 N   0  0  0  0  0  0  0  0  0  0  0  0
    7.1641    0.0629   18.5721 C   0  0  0  0  0  0  0  0  0  0  0  0
    8.1157   -0.4210   18.3557 H   0  0  0  0  0  0  0  0  0  0  0  0
    4.9108    1.7908   16.9883 H   0  0  0  0  0  0  0  0  0  0  0  0
    3.8755    1.8406   19.2546 H   0  0  0  0  0  0  0  0  0  0  0  0
    5.0268    0.6395   21.1544 H   0  0  0  0  0  0  0  0  0  0  0  0
    8.3708   -1.0838   20.5993 H   0  0  0  0  0  0  0  0  0  0  0  0
    6.9500    0.5557   23.1273 N   0  0  0  0  0  0  0  0  0  0  0  0
    6.4503    1.6138   25.4660 H   0  0  0  0  0  0  0  0  0  0  0  0
    8.0417    2.3245   25.6802 H   0  0  0  0  0  0  0  0  0  0  0  0
    8.6643    4.4663   24.7142 H   0  0  0  0  0  0  0  0  0  0  0  0
    7.8557    6.7395   23.9592 H   0  0  0  0  0  0  0  0  0  0  0  0
    3.3614    3.1186   23.8708 H   0  0  0  0  0  0  0  0  0  0  0  0
    4.1745    2.3954   25.2658 H   0  0  0  0  0  0  0  0  0  0  0  0
    4.6420    1.8877   23.6577 H   0  0  0  0  0  0  0  0  0  0  0  0
  1  2  1  0
  2  3  2  0
  3  4  1  0
  4  5  1  0
  4  6  2  0
  6  7  1  0
  7  8  2  0
  8  9  1  0
  9 10  1  0
 10 11  2  0
 11 12  1  0
 12 13  1  0
 13 14  1  0
 14 15  1  0
 15 16  1  0
 15 17  1  0
 15 18  1  0
 14 19  1  0
 19 20  2  0
 20 21  1  0
 21 22  2  0
 22 23  1  0
 23 24  2  0
 24 25  1  0
 22 26  1  0
 21 27  1  0
 20 28  1  0
 14 29  1  0
 13 30  2  0
  9 31  1  0
  9 32  1  0
  7 33  1  0
  6 34  1  0
  1 35  1  0
  1 36  1  0
  1 37  1  0
  8  2  1  0
 30 10  1  0
 24 19  1  0
M  END
>  <cnnaffinity>  (1) 
-5.42014

>  <filename>  (1) 
Cc1nc(Cl)ccc1Cc1noc(C(C)c2cccnc2)n1

$$$$
