
     RDKit          3D

 33 35  0  0  0  0  0  0  0  0999 V2000
   10.9200   -1.3167   21.8384 C   0  0  0  0  0  0  0  0  0  0  0  0
    9.4286   -1.3353   21.8661 C   0  0  0  0  0  0  0  0  0  0  0  0
    8.8634   -1.9634   22.9045 N   0  0  0  0  0  0  0  0  0  0  0  0
    7.5376   -1.9788   22.9331 C   0  0  0  0  0  0  0  0  0  0  0  0
    6.7284   -2.8687   24.2469 S   0  0  0  0  0  0  0  0  0  0  0  0
    6.6187   -4.4322   23.3814 C   0  0  0  0  0  0  0  0  0  0  0  0
    7.6975   -5.3239   23.4573 C   0  0  0  0  0  0  0  0  0  0  0  0
    7.6502   -6.5305   22.7537 C   0  0  0  0  0  0  0  0  0  0  0  0
    6.5213   -6.8600   22.0011 C   0  0  0  0  0  0  0  0  0  0  0  0
    5.4789   -5.9382   21.8614 C   0  0  0  0  0  0  0  0  0  0  0  0
    5.5180   -4.7255   22.5609 C   0  0  0  0  0  0  0  0  0  0  0  0
    4.6966   -4.0137   22.4957 H   0  0  0  0  0  0  0  0  0  0  0  0
    4.6349   -6.1642   21.2159 H   0  0  0  0  0  0  0  0  0  0  0  0
    6.4373   -7.8657   21.6007 H   0  0  0  0  0  0  0  0  0  0  0  0
    8.4864   -7.2229   22.7976 H   0  0  0  0  0  0  0  0  0  0  0  0
    8.5536   -5.0584   24.0755 H   0  0  0  0  0  0  0  0  0  0  0  0
    6.7705   -1.3592   21.9580 C   0  0  0  0  0  0  0  0  0  0  0  0
    7.4543   -0.6932   20.9532 C   0  0  0  0  0  0  0  0  0  0  0  0
    6.6901    0.0221   19.9148 C   0  0  0  0  0  0  0  0  0  0  0  0
    5.4585    0.6502   20.1672 C   0  0  0  0  0  0  0  0  0  0  0  0
    4.8196    1.3007   19.1139 C   0  0  0  0  0  0  0  0  0  0  0  0
    5.4156    1.2758   17.8477 C   0  0  0  0  0  0  0  0  0  0  0  0
    6.5747    0.6571   17.5893 N   0  0  0  0  0  0  0  0  0  0  0  0
    7.1984    0.0578   18.6093 C   0  0  0  0  0  0  0  0  0  0  0  0
    8.1436   -0.4231   18.3703 H   0  0  0  0  0  0  0  0  0  0  0  0
    4.9465    1.7767   17.0051 H   0  0  0  0  0  0  0  0  0  0  0  0
    3.8852    1.8297   19.2559 H   0  0  0  0  0  0  0  0  0  0  0  0
    5.0057    0.6527   21.1623 H   0  0  0  0  0  0  0  0  0  0  0  0
    8.7849   -0.7177   20.8797 N   0  0  0  0  0  0  0  0  0  0  0  0
    5.7017   -1.4211   21.9356 H   0  0  0  0  0  0  0  0  0  0  0  0
   11.2664   -0.4562   22.4238 H   0  0  0  0  0  0  0  0  0  0  0  0
   11.2921   -2.2344   22.3047 H   0  0  0  0  0  0  0  0  0  0  0  0
   11.2586   -1.2147   20.8055 H   0  0  0  0  0  0  0  0  0  0  0  0
  1  2  1  0
  2  3  2  0
  3  4  1  0
  4  5  1  0
  5  6  1  0
  6  7  2  0
  7  8  1  0
  8  9  2  0
  9 10  1  0
 10 11  2  0
 11 12  1  0
 10 13  1  0
  9 14  1  0
  8 15  1  0
  7 16  1  0
  4 17  2  0
 17 18  1  0
 18 19  1  0
 19 20  2  0
 20 21  1  0
 21 22  2  0
 22 23  1  0
 23 24  2  0
 24 25  1  0
 22 26  1  0
 21 27  1  0
 20 28  1  0
 18 29  2  0
 17 30  1  0
  1 31  1  0
  1 32  1  0
  1 33  1  0
 29  2  1  0
 11  6  1  0
 24 19  1  0
M  END
>  <cnnaffinity>  (1) 
-5.42806

>  <filename>  (1) 
Cc1nc(Sc2ccccc2)cc(-c2cccnc2)n1

$$$$
