
     RDKit          3D

 38 40  0  0  0  0  0  0  0  0999 V2000
    7.2067    5.2313   21.5109 H   0  0  0  0  0  0  0  0  0  0  0  0
    8.1199    5.3430   21.8400 O   0  0  0  0  0  0  0  0  0  0  0  0
    8.3801    4.0565   22.1359 C   0  0  0  0  0  0  0  0  0  0  0  0
    7.5024    3.2362   21.9674 O   0  0  0  0  0  0  0  0  0  0  0  0
    9.7442    3.7588   22.6336 C   0  0  0  0  0  0  0  0  0  0  0  0
   10.3079    2.5178   22.9473 C   0  0  0  0  0  0  0  0  0  0  0  0
    9.5982    1.2205   23.2306 C   0  0  0  0  0  0  0  0  0  0  0  0
    9.7935    0.9271   24.2752 H   0  0  0  0  0  0  0  0  0  0  0  0
    8.5137    1.4149   23.1552 H   0  0  0  0  0  0  0  0  0  0  0  0
   10.0365    0.1084   22.3980 N   0  0  0  0  0  0  0  0  0  0  0  0
    9.6455    0.1205   20.9696 C   0  0  0  0  0  0  0  0  0  0  0  0
    9.2829    1.0722   20.5504 H   0  0  0  0  0  0  0  0  0  0  0  0
   10.4741   -0.2668   20.3806 H   0  0  0  0  0  0  0  0  0  0  0  0
    8.6470   -1.0312   21.1962 C   0  0  0  0  0  0  0  0  0  0  0  0
    8.7826   -1.9105   20.5539 H   0  0  0  0  0  0  0  0  0  0  0  0
    7.1681   -0.6935   21.2323 C   0  0  0  0  0  0  0  0  0  0  0  0
    6.4990   -1.0589   22.1762 O   0  0  0  0  0  0  0  0  0  0  0  0
    6.5244   -0.0031   20.0737 C   0  0  0  0  0  0  0  0  0  0  0  0
    7.1239   -0.0340   18.8078 C   0  0  0  0  0  0  0  0  0  0  0  0
    8.0471   -0.5903   18.6367 H   0  0  0  0  0  0  0  0  0  0  0  0
    6.6328    0.5848   17.7307 N   0  0  0  0  0  0  0  0  0  0  0  0
    5.4864    1.2624   17.8720 C   0  0  0  0  0  0  0  0  0  0  0  0
    5.1158    1.7718   16.9833 H   0  0  0  0  0  0  0  0  0  0  0  0
    4.7816    1.3281   19.0797 C   0  0  0  0  0  0  0  0  0  0  0  0
    3.8592    1.8969   19.1222 H   0  0  0  0  0  0  0  0  0  0  0  0
    5.2911    0.6720   20.1982 C   0  0  0  0  0  0  0  0  0  0  0  0
    4.7464    0.6793   21.1456 H   0  0  0  0  0  0  0  0  0  0  0  0
    9.3199   -1.1770   22.5838 C   0  0  0  0  0  0  0  0  0  0  0  0
   10.0328   -2.0107   22.6243 H   0  0  0  0  0  0  0  0  0  0  0  0
    8.6616   -1.2625   23.4560 H   0  0  0  0  0  0  0  0  0  0  0  0
   11.6819    2.7892   23.1566 C   0  0  0  0  0  0  0  0  0  0  0  0
   12.8112    1.8417   23.4480 C   0  0  0  0  0  0  0  0  0  0  0  0
   12.7437    1.4451   24.4701 H   0  0  0  0  0  0  0  0  0  0  0  0
   12.8044    0.9922   22.7540 H   0  0  0  0  0  0  0  0  0  0  0  0
   13.7605    2.3722   23.3285 H   0  0  0  0  0  0  0  0  0  0  0  0
   11.9138    4.0973   23.0668 N   0  0  0  0  0  0  0  0  0  0  0  0
   10.7503    4.6656   22.7452 N   0  0  0  0  0  0  0  0  0  0  0  0
   10.7211    5.6582   22.5279 H   0  0  0  0  0  0  0  0  0  0  0  0
  1  2  1  0
  2  3  1  0
  3  4  2  0
  3  5  1  0
  5  6  2  0
  6  7  1  0
  7  8  1  0
  7  9  1  0
  7 10  1  0
 10 11  1  0
 11 12  1  0
 11 13  1  0
 11 14  1  0
 14 15  1  0
 14 16  1  0
 16 17  2  0
 16 18  1  0
 18 19  2  0
 19 20  1  0
 19 21  1  0
 21 22  2  0
 22 23  1  0
 22 24  1  0
 24 25  1  0
 24 26  2  0
 26 27  1  0
 14 28  1  0
 28 29  1  0
 28 30  1  0
  6 31  1  0
 31 32  1  0
 32 33  1  0
 32 34  1  0
 32 35  1  0
 31 36  2  0
 36 37  1  0
 37 38  1  0
 37  5  1  0
 28 10  1  0
 26 18  1  0
M  END
>  <cnnaffinity>  (1) 
-4.9567

>  <filename>  (1) 
Cc1n[nH]c(C(=O)O)c1CN1CC(C(=O)c2cccnc2)C1

$$$$
