
     RDKit          3D

 35 37  0  0  0  0  0  0  0  0999 V2000
    8.9745   -4.1686   24.3042 C   0  0  0  0  0  0  0  0  0  0  0  0
    7.6947   -3.5846   24.8581 C   0  0  0  0  0  0  0  0  0  0  0  0
    7.2160   -4.1347   25.9464 N   0  0  0  0  0  0  0  0  0  0  0  0
    6.0747   -3.6137   26.5154 C   0  0  0  0  0  0  0  0  0  0  0  0
    5.5733   -4.2450   27.6839 C   0  0  0  0  0  0  0  0  0  0  0  0
    4.4176   -3.7875   28.2728 C   0  0  0  0  0  0  0  0  0  0  0  0
    3.7096   -2.6858   27.7150 C   0  0  0  0  0  0  0  0  0  0  0  0
    4.1858   -2.0407   26.5948 C   0  0  0  0  0  0  0  0  0  0  0  0
    5.3987   -2.4767   25.9786 C   0  0  0  0  0  0  0  0  0  0  0  0
    5.9666   -1.8664   24.8158 C   0  0  0  0  0  0  0  0  0  0  0  0
    7.0482   -2.4486   24.1970 C   0  0  0  0  0  0  0  0  0  0  0  0
    7.5430   -1.9709   22.9289 N   0  0  0  0  0  0  0  0  0  0  0  0
    6.7269   -1.6779   21.8399 C   0  0  0  0  0  0  0  0  0  0  0  0
    5.6490   -2.1836   21.6286 O   0  0  0  0  0  0  0  0  0  0  0  0
    7.3547   -0.7776   20.9936 N   0  0  0  0  0  0  0  0  0  0  0  0
    6.7160   -0.0636   19.9387 C   0  0  0  0  0  0  0  0  0  0  0  0
    5.5035    0.5888   20.1827 C   0  0  0  0  0  0  0  0  0  0  0  0
    4.8874    1.2691   19.1273 C   0  0  0  0  0  0  0  0  0  0  0  0
    5.4906    1.2714   17.8643 C   0  0  0  0  0  0  0  0  0  0  0  0
    6.6668    0.6701   17.6180 N   0  0  0  0  0  0  0  0  0  0  0  0
    7.2613    0.0297   18.6355 C   0  0  0  0  0  0  0  0  0  0  0  0
    8.2145   -0.4503   18.4169 H   0  0  0  0  0  0  0  0  0  0  0  0
    5.0040    1.7540   17.0172 H   0  0  0  0  0  0  0  0  0  0  0  0
    3.9425    1.7764   19.2753 H   0  0  0  0  0  0  0  0  0  0  0  0
    5.0841    0.5660   21.1892 H   0  0  0  0  0  0  0  0  0  0  0  0
    8.3346   -0.6455   21.1489 H   0  0  0  0  0  0  0  0  0  0  0  0
    8.4185   -1.4811   22.9452 H   0  0  0  0  0  0  0  0  0  0  0  0
    5.5510   -0.9303   24.4424 H   0  0  0  0  0  0  0  0  0  0  0  0
    3.6283   -1.2158   26.1538 H   0  0  0  0  0  0  0  0  0  0  0  0
    2.7866   -2.3624   28.1881 H   0  0  0  0  0  0  0  0  0  0  0  0
    4.0459   -4.2649   29.1737 H   0  0  0  0  0  0  0  0  0  0  0  0
    6.1430   -5.0879   28.0624 H   0  0  0  0  0  0  0  0  0  0  0  0
    8.8711   -4.4002   23.2379 H   0  0  0  0  0  0  0  0  0  0  0  0
    9.2132   -5.0742   24.8659 H   0  0  0  0  0  0  0  0  0  0  0  0
    9.8012   -3.4549   24.4139 H   0  0  0  0  0  0  0  0  0  0  0  0
  1  2  1  0
  2  3  2  0
  3  4  1  0
  4  5  2  0
  5  6  1  0
  6  7  2  0
  7  8  1  0
  8  9  2  0
  9 10  1  0
 10 11  2  0
 11 12  1  0
 12 13  1  0
 13 14  2  0
 13 15  1  0
 15 16  1  0
 16 17  2  0
 17 18  1  0
 18 19  2  0
 19 20  1  0
 20 21  2  0
 21 22  1  0
 19 23  1  0
 18 24  1  0
 17 25  1  0
 15 26  1  0
 12 27  1  0
 10 28  1  0
  8 29  1  0
  7 30  1  0
  6 31  1  0
  5 32  1  0
  1 33  1  0
  1 34  1  0
  1 35  1  0
 11  2  1  0
 21 16  1  0
  9  4  1  0
M  END
>  <cnnaffinity>  (1) 
-5.2097

>  <filename>  (1) 
Cc1nc2ccccc2cc1NC(=O)Nc1cccnc1

$$$$
