
     RDKit          3D

 42 45  0  0  0  0  0  0  0  0999 V2000
   14.1937   -1.6684   21.9738 C   0  0  0  0  0  0  0  0  0  0  0  0
   13.6303   -0.3219   22.2779 C   0  0  0  0  0  0  0  0  0  0  0  0
   12.3679   -0.0319   22.2057 N   0  0  0  0  0  0  0  0  0  0  0  0
   12.2925    1.3349   22.3913 C   0  0  0  0  0  0  0  0  0  0  0  0
   11.1751    2.1902   22.3298 C   0  0  0  0  0  0  0  0  0  0  0  0
    9.8325    1.5888   22.2234 C   0  0  0  0  0  0  0  0  0  0  0  0
    9.4106    0.7133   21.3262 N   0  0  0  0  0  0  0  0  0  0  0  0
    8.1592    0.4040   21.7435 C   0  0  0  0  0  0  0  0  0  0  0  0
    7.3332   -0.6128   21.0035 C   0  0  0  0  0  0  0  0  0  0  0  0
    6.5778   -0.0153   19.8266 C   0  0  0  0  0  0  0  0  0  0  0  0
    5.3679    0.6544   20.0462 C   0  0  0  0  0  0  0  0  0  0  0  0
    4.7659    1.3319   18.9847 C   0  0  0  0  0  0  0  0  0  0  0  0
    5.3921    1.3074   17.7349 C   0  0  0  0  0  0  0  0  0  0  0  0
    6.5308    0.6398   17.4913 N   0  0  0  0  0  0  0  0  0  0  0  0
    7.0969   -0.0027   18.5201 C   0  0  0  0  0  0  0  0  0  0  0  0
    8.0184   -0.5426   18.2941 H   0  0  0  0  0  0  0  0  0  0  0  0
    4.9628    1.8393   16.8874 H   0  0  0  0  0  0  0  0  0  0  0  0
    3.8455    1.8916   19.1144 H   0  0  0  0  0  0  0  0  0  0  0  0
    4.9192    0.6441   21.0423 H   0  0  0  0  0  0  0  0  0  0  0  0
    6.6347   -1.0806   21.7060 H   0  0  0  0  0  0  0  0  0  0  0  0
    8.0238   -1.3901   20.6605 H   0  0  0  0  0  0  0  0  0  0  0  0
    7.7631    1.0558   22.8202 N   0  0  0  0  0  0  0  0  0  0  0  0
    8.8351    1.8351   23.1155 N   0  0  0  0  0  0  0  0  0  0  0  0
    8.7716    2.7214   24.2685 C   0  0  0  0  0  0  0  0  0  0  0  0
    7.9298    3.9564   23.9698 C   0  0  0  0  0  0  0  0  0  0  0  0
    8.0325    4.8164   25.0489 F   0  0  0  0  0  0  0  0  0  0  0  0
    8.2985    4.4712   23.0730 H   0  0  0  0  0  0  0  0  0  0  0  0
    6.8793    3.6880   23.8156 H   0  0  0  0  0  0  0  0  0  0  0  0
    8.3391    2.1647   25.1047 H   0  0  0  0  0  0  0  0  0  0  0  0
    9.7815    3.0263   24.5586 H   0  0  0  0  0  0  0  0  0  0  0  0
   11.4084    3.5782   22.4005 C   0  0  0  0  0  0  0  0  0  0  0  0
   12.7122    4.0791   22.5540 C   0  0  0  0  0  0  0  0  0  0  0  0
   12.9925    5.7997   22.5798 Cl  0  0  0  0  0  0  0  0  0  0  0  0
   13.8186    3.2461   22.6781 C   0  0  0  0  0  0  0  0  0  0  0  0
   13.5799    1.8677   22.6262 C   0  0  0  0  0  0  0  0  0  0  0  0
   14.4127    0.7614   22.5910 N   0  0  0  0  0  0  0  0  0  0  0  0
   15.4121    0.7866   22.4818 H   0  0  0  0  0  0  0  0  0  0  0  0
   14.8002    3.6943   22.7759 H   0  0  0  0  0  0  0  0  0  0  0  0
   10.6011    4.2975   22.3106 H   0  0  0  0  0  0  0  0  0  0  0  0
   13.3605   -2.3649   21.8518 H   0  0  0  0  0  0  0  0  0  0  0  0
   14.8532   -2.0254   22.7686 H   0  0  0  0  0  0  0  0  0  0  0  0
   14.7583   -1.6452   21.0348 H   0  0  0  0  0  0  0  0  0  0  0  0
  1  2  1  0
  2  3  2  0
  3  4  1  0
  4  5  2  0
  5  6  1  0
  6  7  2  0
  7  8  1  0
  8  9  1  0
  9 10  1  0
 10 11  2  0
 11 12  1  0
 12 13  2  0
 13 14  1  0
 14 15  2  0
 15 16  1  0
 13 17  1  0
 12 18  1  0
 11 19  1  0
  9 20  1  0
  9 21  1  0
  8 22  2  0
 22 23  1  0
 23 24  1  0
 24 25  1  0
 25 26  1  0
 25 27  1  0
 25 28  1  0
 24 29  1  0
 24 30  1  0
  5 31  1  0
 31 32  2  0
 32 33  1  0
 32 34  1  0
 34 35  2  0
 35 36  1  0
 36 37  1  0
 34 38  1  0
 31 39  1  0
  1 40  1  0
  1 41  1  0
  1 42  1  0
 36  2  1  0
 35  4  1  0
 23  6  1  0
 15 10  1  0
M  END
>  <cnnaffinity>  (1) 
-6.81458

>  <filename>  (1) 
Cc1nc2c(-c3nc(Cc4cccnc4)nn3CCF)cc(Cl)cc2[nH]1

$$$$
