
     RDKit          3D

 22 23  0  0  0  0  0  0  0  0999 V2000
    4.9192    1.8057   16.9889 H   0  0  0  0  0  0  0  0  0  0  0  0
    5.3890    1.2992   17.8319 C   0  0  0  0  0  0  0  0  0  0  0  0
    6.5500    0.6849   17.5568 N   0  0  0  0  0  0  0  0  0  0  0  0
    7.1496    0.0398   18.5636 C   0  0  0  0  0  0  0  0  0  0  0  0
    8.1140   -0.4218   18.3556 H   0  0  0  0  0  0  0  0  0  0  0  0
    6.6266   -0.0482   19.8599 C   0  0  0  0  0  0  0  0  0  0  0  0
    7.6136   -0.8616   21.0888 S   0  0  0  0  0  0  0  0  0  0  0  0
    8.7903    0.7340   21.7428 S   0  0  0  0  0  0  0  0  0  0  0  0
    7.7394    1.4620   22.9660 C   0  0  0  0  0  0  0  0  0  0  0  0
    7.7749    0.9627   24.2445 N   0  0  0  0  0  0  0  0  0  0  0  0
    6.8754    1.5336   24.9768 C   0  0  0  0  0  0  0  0  0  0  0  0
    6.6680    1.1539   26.4061 C   0  0  0  0  0  0  0  0  0  0  0  0
    7.5962    0.7298   26.7986 H   0  0  0  0  0  0  0  0  0  0  0  0
    6.3650    2.0244   26.9890 H   0  0  0  0  0  0  0  0  0  0  0  0
    5.8873    0.3875   26.4732 H   0  0  0  0  0  0  0  0  0  0  0  0
    5.9212    2.7417   24.1686 S   0  0  0  0  0  0  0  0  0  0  0  0
    6.8294    2.4421   22.7339 C   0  0  0  0  0  0  0  0  0  0  0  0
    6.6388    2.9350   21.7926 H   0  0  0  0  0  0  0  0  0  0  0  0
    5.4176    0.6035   20.1456 C   0  0  0  0  0  0  0  0  0  0  0  0
    5.0026    0.5997   21.1554 H   0  0  0  0  0  0  0  0  0  0  0  0
    4.7964    1.2971   19.0960 C   0  0  0  0  0  0  0  0  0  0  0  0
    3.8769    1.8479   19.2488 H   0  0  0  0  0  0  0  0  0  0  0  0
  1  2  1  0
  2  3  2  0
  3  4  1  0
  4  5  1  0
  4  6  2  0
  6  7  1  0
  7  8  1  0
  8  9  1  0
  9 10  1  0
 10 11  2  0
 11 12  1  0
 12 13  1  0
 12 14  1  0
 12 15  1  0
 11 16  1  0
 16 17  1  0
 17 18  1  0
  6 19  1  0
 19 20  1  0
 19 21  2  0
 21 22  1  0
 21  2  1  0
 17  9  2  0
M  END
>  <cnnaffinity>  (1) 
-4.72156

>  <filename>  (1) 
Cc1nc(SSc2cccnc2)cs1

$$$$
