
     RDKit          3D

 33 35  0  0  0  0  0  0  0  0999 V2000
   13.9295    5.8937   22.0882 C   0  0  0  0  0  0  0  0  0  0  0  0
   12.6894    5.1871   22.5389 C   0  0  0  0  0  0  0  0  0  0  0  0
   12.2456    4.1087   22.0002 N   0  0  0  0  0  0  0  0  0  0  0  0
   11.0743    3.6966   22.6196 C   0  0  0  0  0  0  0  0  0  0  0  0
   10.3336    2.5780   22.2281 C   0  0  0  0  0  0  0  0  0  0  0  0
    9.1406    2.2959   22.8849 C   0  0  0  0  0  0  0  0  0  0  0  0
    8.2923    1.2368   22.4852 N   0  0  0  0  0  0  0  0  0  0  0  0
    8.5655    0.2695   21.5481 C   0  0  0  0  0  0  0  0  0  0  0  0
    9.6600    0.0939   21.0575 O   0  0  0  0  0  0  0  0  0  0  0  0
    7.3392   -0.6060   21.0316 C   0  0  0  0  0  0  0  0  0  0  0  0
    7.8033   -1.8264   20.6540 F   0  0  0  0  0  0  0  0  0  0  0  0
    6.4797   -0.8325   22.0786 F   0  0  0  0  0  0  0  0  0  0  0  0
    6.5823    0.0177   19.8781 C   0  0  0  0  0  0  0  0  0  0  0  0
    5.3963    0.7378   20.0731 C   0  0  0  0  0  0  0  0  0  0  0  0
    4.8244    1.3697   18.9713 C   0  0  0  0  0  0  0  0  0  0  0  0
    5.4545    1.2605   17.7278 C   0  0  0  0  0  0  0  0  0  0  0  0
    6.5780    0.5555   17.5261 N   0  0  0  0  0  0  0  0  0  0  0  0
    7.1240   -0.0520   18.5844 C   0  0  0  0  0  0  0  0  0  0  0  0
    8.0489   -0.6014   18.4105 H   0  0  0  0  0  0  0  0  0  0  0  0
    5.0413    1.7634   16.8553 H   0  0  0  0  0  0  0  0  0  0  0  0
    3.9210    1.9614   19.0695 H   0  0  0  0  0  0  0  0  0  0  0  0
    4.9288    0.7973   21.0571 H   0  0  0  0  0  0  0  0  0  0  0  0
    7.4009    1.2144   22.9487 H   0  0  0  0  0  0  0  0  0  0  0  0
    8.6994    3.1071   23.9565 C   0  0  0  0  0  0  0  0  0  0  0  0
    9.4589    4.1960   24.3843 C   0  0  0  0  0  0  0  0  0  0  0  0
   10.6395    4.5040   23.6904 C   0  0  0  0  0  0  0  0  0  0  0  0
   11.7374    5.8358   23.8756 S   0  0  0  0  0  0  0  0  0  0  0  0
    9.1205    4.8050   25.2182 H   0  0  0  0  0  0  0  0  0  0  0  0
    7.7520    2.8775   24.4399 H   0  0  0  0  0  0  0  0  0  0  0  0
   10.6953    1.9791   21.4077 H   0  0  0  0  0  0  0  0  0  0  0  0
   14.7766    5.6286   22.7280 H   0  0  0  0  0  0  0  0  0  0  0  0
   14.1710    5.5762   21.0741 H   0  0  0  0  0  0  0  0  0  0  0  0
   13.7992    6.9770   22.1165 H   0  0  0  0  0  0  0  0  0  0  0  0
  1  2  1  0
  2  3  2  0
  3  4  1  0
  4  5  2  0
  5  6  1  0
  6  7  1  0
  7  8  1  0
  8  9  2  0
  8 10  1  0
 10 11  1  0
 10 12  1  0
 10 13  1  0
 13 14  2  0
 14 15  1  0
 15 16  2  0
 16 17  1  0
 17 18  2  0
 18 19  1  0
 16 20  1  0
 15 21  1  0
 14 22  1  0
  7 23  1  0
  6 24  2  0
 24 25  1  0
 25 26  2  0
 26 27  1  0
 25 28  1  0
 24 29  1  0
  5 30  1  0
  1 31  1  0
  1 32  1  0
  1 33  1  0
 27  2  1  0
 26  4  1  0
 18 13  1  0
M  END
>  <cnnaffinity>  (1) 
-4.87847

>  <filename>  (1) 
Cc1nc2cc(NC(=O)C(F)(F)c3cccnc3)ccc2s1

$$$$
