
     RDKit          3D

 50 54  0  0  0  0  0  0  0  0999 V2000
    8.9324    8.1818   26.4424 C   0  0  0  0  0  0  0  0  0  0  0  0
    8.9406    6.7856   25.9332 C   0  0  0  0  0  0  0  0  0  0  0  0
    9.0457    6.4497   24.6788 N   0  0  0  0  0  0  0  0  0  0  0  0
    8.9931    5.0671   24.6686 C   0  0  0  0  0  0  0  0  0  0  0  0
    9.0770    4.1759   23.5949 C   0  0  0  0  0  0  0  0  0  0  0  0
    8.9964    2.8060   23.8579 C   0  0  0  0  0  0  0  0  0  0  0  0
    9.0224    1.8296   22.8068 N   0  0  0  0  0  0  0  0  0  0  0  0
    7.9659    0.9991   22.6291 N   0  0  0  0  0  0  0  0  0  0  0  0
    8.3010    0.3012   21.5669 C   0  0  0  0  0  0  0  0  0  0  0  0
    7.3688   -0.6940   20.9496 C   0  0  0  0  0  0  0  0  0  0  0  0
    6.5807   -0.0705   19.8120 C   0  0  0  0  0  0  0  0  0  0  0  0
    5.3871    0.6147   20.0586 C   0  0  0  0  0  0  0  0  0  0  0  0
    4.7783    1.3169   19.0169 C   0  0  0  0  0  0  0  0  0  0  0  0
    5.3937    1.3065   17.7616 C   0  0  0  0  0  0  0  0  0  0  0  0
    6.5286    0.6404   17.4968 N   0  0  0  0  0  0  0  0  0  0  0  0
    7.0976   -0.0258   18.5073 C   0  0  0  0  0  0  0  0  0  0  0  0
    8.0336   -0.5415   18.2860 H   0  0  0  0  0  0  0  0  0  0  0  0
    4.9568    1.8510   16.9275 H   0  0  0  0  0  0  0  0  0  0  0  0
    3.8616    1.8780   19.1669 H   0  0  0  0  0  0  0  0  0  0  0  0
    4.9581    0.6062   21.0615 H   0  0  0  0  0  0  0  0  0  0  0  0
    7.9590   -1.5443   20.5955 H   0  0  0  0  0  0  0  0  0  0  0  0
    6.6987   -1.0471   21.7397 H   0  0  0  0  0  0  0  0  0  0  0  0
    9.5218    0.5921   21.0549 N   0  0  0  0  0  0  0  0  0  0  0  0
    9.9683    1.5387   21.8699 C   0  0  0  0  0  0  0  0  0  0  0  0
   11.4021    1.9690   21.9358 C   0  0  0  0  0  0  0  0  0  0  0  0
   12.2364    1.2334   23.0180 C   0  0  0  0  0  0  0  0  0  0  0  0
   13.3242    2.2621   23.2950 C   0  0  0  0  0  0  0  0  0  0  0  0
   12.5374    3.5715   23.2228 C   0  0  0  0  0  0  0  0  0  0  0  0
   13.3008    4.8167   22.8359 C   0  0  0  0  0  0  0  0  0  0  0  0
   13.8279    4.6547   21.8887 H   0  0  0  0  0  0  0  0  0  0  0  0
   12.6011    5.6462   22.6990 H   0  0  0  0  0  0  0  0  0  0  0  0
   14.0197    5.0872   23.6135 H   0  0  0  0  0  0  0  0  0  0  0  0
   11.5480    3.3530   22.2140 O   0  0  0  0  0  0  0  0  0  0  0  0
   12.0103    3.7211   24.1828 H   0  0  0  0  0  0  0  0  0  0  0  0
   14.0991    2.2260   22.5224 H   0  0  0  0  0  0  0  0  0  0  0  0
   13.8080    2.1186   24.2594 H   0  0  0  0  0  0  0  0  0  0  0  0
   11.6363    1.0824   23.9268 H   0  0  0  0  0  0  0  0  0  0  0  0
   12.6023    0.2574   22.6764 H   0  0  0  0  0  0  0  0  0  0  0  0
   11.8212    1.7667   20.9397 H   0  0  0  0  0  0  0  0  0  0  0  0
    8.8372    2.3312   25.1833 C   0  0  0  0  0  0  0  0  0  0  0  0
    8.7784    3.2139   26.2551 C   0  0  0  0  0  0  0  0  0  0  0  0
    8.8577    4.5767   25.9783 C   0  0  0  0  0  0  0  0  0  0  0  0
    8.8094    5.7061   26.7706 N   0  0  0  0  0  0  0  0  0  0  0  0
    8.9384    5.7409   27.7652 H   0  0  0  0  0  0  0  0  0  0  0  0
    8.6638    2.8548   27.2699 H   0  0  0  0  0  0  0  0  0  0  0  0
    8.7314    1.2666   25.3670 H   0  0  0  0  0  0  0  0  0  0  0  0
    9.1930    4.5833   22.5980 H   0  0  0  0  0  0  0  0  0  0  0  0
    9.1657    8.8623   25.6207 H   0  0  0  0  0  0  0  0  0  0  0  0
    7.9534    8.4424   26.8566 H   0  0  0  0  0  0  0  0  0  0  0  0
    9.6716    8.3203   27.2356 H   0  0  0  0  0  0  0  0  0  0  0  0
  1  2  1  0
  2  3  2  0
  3  4  1  0
  4  5  2  0
  5  6  1  0
  6  7  1  0
  7  8  1  0
  8  9  2  0
  9 10  1  0
 10 11  1  0
 11 12  2  0
 12 13  1  0
 13 14  2  0
 14 15  1  0
 15 16  2  0
 16 17  1  0
 14 18  1  0
 13 19  1  0
 12 20  1  0
 10 21  1  0
 10 22  1  0
  9 23  1  0
 23 24  2  0
 24 25  1  0
 25 26  1  0
 26 27  1  0
 27 28  1  0
 28 29  1  0
 29 30  1  0
 29 31  1  0
 29 32  1  0
 28 33  1  0
 28 34  1  0
 27 35  1  0
 27 36  1  0
 26 37  1  0
 26 38  1  0
 25 39  1  0
  6 40  2  0
 40 41  1  0
 41 42  2  0
 42 43  1  0
 43 44  1  0
 41 45  1  0
 40 46  1  0
  5 47  1  0
  1 48  1  0
  1 49  1  0
  1 50  1  0
 43  2  1  0
 42  4  1  0
 24  7  1  0
 33 25  1  0
 16 11  1  0
M  END
>  <cnnaffinity>  (1) 
-5.73647

>  <filename>  (1) 
Cc1nc2cc(-n3nc(Cc4cccnc4)nc3C3CCC(C)O3)ccc2[nH]1

$$$$
