
     RDKit          3D

 37 39  0  0  0  0  0  0  0  0999 V2000
    8.8828    1.4596   26.8158 H   0  0  0  0  0  0  0  0  0  0  0  0
    8.4218    0.6396   27.0629 O   0  0  0  0  0  0  0  0  0  0  0  0
    8.9461   -0.1513   26.1098 C   0  0  0  0  0  0  0  0  0  0  0  0
    9.7022    0.3343   25.3010 O   0  0  0  0  0  0  0  0  0  0  0  0
    8.5067   -1.5599   26.2161 C   0  0  0  0  0  0  0  0  0  0  0  0
    8.7788   -2.6485   25.3958 C   0  0  0  0  0  0  0  0  0  0  0  0
    9.5217   -2.6482   24.0894 C   0  0  0  0  0  0  0  0  0  0  0  0
    9.7351   -3.6820   23.7882 H   0  0  0  0  0  0  0  0  0  0  0  0
   10.4846   -2.1527   24.2295 H   0  0  0  0  0  0  0  0  0  0  0  0
    8.7557   -1.9601   22.9809 C   0  0  0  0  0  0  0  0  0  0  0  0
    9.3451   -0.8833   22.2560 C   0  0  0  0  0  0  0  0  0  0  0  0
   10.3378   -0.5369   22.5149 H   0  0  0  0  0  0  0  0  0  0  0  0
    8.6478   -0.2662   21.2660 C   0  0  0  0  0  0  0  0  0  0  0  0
    9.0392    0.5693   20.6949 H   0  0  0  0  0  0  0  0  0  0  0  0
    7.3657   -0.6624   20.9336 N   0  0  0  0  0  0  0  0  0  0  0  0
    6.6701    0.0356   19.8862 C   0  0  0  0  0  0  0  0  0  0  0  0
    7.1821    0.0830   18.5766 C   0  0  0  0  0  0  0  0  0  0  0  0
    8.1194   -0.4270   18.3521 H   0  0  0  0  0  0  0  0  0  0  0  0
    6.5599    0.6893   17.5590 N   0  0  0  0  0  0  0  0  0  0  0  0
    5.3945    1.3025   17.8253 C   0  0  0  0  0  0  0  0  0  0  0  0
    4.9119    1.7946   16.9840 H   0  0  0  0  0  0  0  0  0  0  0  0
    4.8096    1.3191   19.0960 C   0  0  0  0  0  0  0  0  0  0  0  0
    3.8738    1.8410   19.2508 H   0  0  0  0  0  0  0  0  0  0  0  0
    5.4487    0.6610   20.1492 C   0  0  0  0  0  0  0  0  0  0  0  0
    5.0242    0.6085   21.1498 H   0  0  0  0  0  0  0  0  0  0  0  0
    6.7145   -1.7599   21.6021 C   0  0  0  0  0  0  0  0  0  0  0  0
    5.6025   -2.1500   21.2777 O   0  0  0  0  0  0  0  0  0  0  0  0
    7.4969   -2.3717   22.6464 C   0  0  0  0  0  0  0  0  0  0  0  0
    6.9855   -3.1813   23.1456 H   0  0  0  0  0  0  0  0  0  0  0  0
    8.0921   -3.7277   25.9955 C   0  0  0  0  0  0  0  0  0  0  0  0
    8.0580   -5.1359   25.4887 C   0  0  0  0  0  0  0  0  0  0  0  0
    7.7188   -5.1625   24.4469 H   0  0  0  0  0  0  0  0  0  0  0  0
    7.3953   -5.7605   26.0892 H   0  0  0  0  0  0  0  0  0  0  0  0
    9.0649   -5.5676   25.5057 H   0  0  0  0  0  0  0  0  0  0  0  0
    7.4638   -3.3409   27.0974 N   0  0  0  0  0  0  0  0  0  0  0  0
    7.7155   -2.0366   27.2202 N   0  0  0  0  0  0  0  0  0  0  0  0
    7.3336   -1.5469   28.0241 H   0  0  0  0  0  0  0  0  0  0  0  0
  1  2  1  0
  2  3  1  0
  3  4  2  0
  3  5  1  0
  5  6  2  0
  6  7  1  0
  7  8  1  0
  7  9  1  0
  7 10  1  0
 10 11  1  0
 11 12  1  0
 11 13  2  0
 13 14  1  0
 13 15  1  0
 15 16  1  0
 16 17  2  0
 17 18  1  0
 17 19  1  0
 19 20  2  0
 20 21  1  0
 20 22  1  0
 22 23  1  0
 22 24  2  0
 24 25  1  0
 15 26  1  0
 26 27  2  0
 26 28  1  0
 28 29  1  0
  6 30  1  0
 30 31  1  0
 31 32  1  0
 31 33  1  0
 31 34  1  0
 30 35  2  0
 35 36  1  0
 36 37  1  0
 36  5  1  0
 28 10  2  0
 24 16  1  0
M  END
>  <cnnaffinity>  (1) 
-5.21522

>  <filename>  (1) 
Cc1n[nH]c(C(=O)O)c1Cc1ccn(-c2cccnc2)c(=O)c1

$$$$
