
     RDKit          3D

 50 54  0  0  0  0  0  0  0  0999 V2000
   10.0570    7.9773   26.6834 C   0  0  0  0  0  0  0  0  0  0  0  0
    9.7510    6.6213   26.1475 C   0  0  0  0  0  0  0  0  0  0  0  0
    9.8853    6.2722   24.9017 N   0  0  0  0  0  0  0  0  0  0  0  0
    9.5076    4.9432   24.8595 C   0  0  0  0  0  0  0  0  0  0  0  0
    9.4431    4.0776   23.7682 C   0  0  0  0  0  0  0  0  0  0  0  0
    9.0692    2.7465   23.9810 C   0  0  0  0  0  0  0  0  0  0  0  0
    9.0563    1.7985   22.9104 N   0  0  0  0  0  0  0  0  0  0  0  0
    8.0419    0.9072   22.7629 N   0  0  0  0  0  0  0  0  0  0  0  0
    8.3118    0.3252   21.6150 C   0  0  0  0  0  0  0  0  0  0  0  0
    7.3721   -0.6640   20.9795 C   0  0  0  0  0  0  0  0  0  0  0  0
    6.5878   -0.0443   19.8312 C   0  0  0  0  0  0  0  0  0  0  0  0
    5.3873    0.6375   20.0634 C   0  0  0  0  0  0  0  0  0  0  0  0
    4.7832    1.3263   19.0094 C   0  0  0  0  0  0  0  0  0  0  0  0
    5.4088    1.3048   17.7595 C   0  0  0  0  0  0  0  0  0  0  0  0
    6.5424    0.6342   17.5028 N   0  0  0  0  0  0  0  0  0  0  0  0
    7.1041   -0.0234   18.5240 C   0  0  0  0  0  0  0  0  0  0  0  0
    8.0324   -0.5558   18.3086 H   0  0  0  0  0  0  0  0  0  0  0  0
    4.9777    1.8417   16.9192 H   0  0  0  0  0  0  0  0  0  0  0  0
    3.8613    1.8829   19.1462 H   0  0  0  0  0  0  0  0  0  0  0  0
    4.9463    0.6351   21.0618 H   0  0  0  0  0  0  0  0  0  0  0  0
    7.9474   -1.5290   20.6293 H   0  0  0  0  0  0  0  0  0  0  0  0
    6.6990   -1.0127   21.7700 H   0  0  0  0  0  0  0  0  0  0  0  0
    9.4546    0.7562   21.0153 N   0  0  0  0  0  0  0  0  0  0  0  0
    9.9283    1.6535   21.8707 C   0  0  0  0  0  0  0  0  0  0  0  0
   11.2994    2.3217   21.9133 C   0  0  2  0  0  0  0  0  0  0  0  0
   12.0043    2.2484   20.6918 O   0  0  0  0  0  0  0  0  0  0  0  0
   11.4316    2.5841   19.9889 H   0  0  0  0  0  0  0  0  0  0  0  0
   12.0972    1.6467   23.0429 C   0  0  0  0  0  0  0  0  0  0  0  0
   12.3383    0.1224   22.8923 C   0  0  0  0  0  0  0  0  0  0  0  0
   13.8634    0.3581   22.9368 C   0  0  0  0  0  0  0  0  0  0  0  0
   13.6172    1.8606   23.2121 C   0  0  0  0  0  0  0  0  0  0  0  0
   14.1038    2.5757   22.5449 H   0  0  0  0  0  0  0  0  0  0  0  0
   13.8479    2.1455   24.2400 H   0  0  0  0  0  0  0  0  0  0  0  0
   14.3591    0.1687   21.9794 H   0  0  0  0  0  0  0  0  0  0  0  0
   14.4199   -0.1830   23.7056 H   0  0  0  0  0  0  0  0  0  0  0  0
   11.9559   -0.2937   21.9570 H   0  0  0  0  0  0  0  0  0  0  0  0
   11.9012   -0.4566   23.7070 H   0  0  0  0  0  0  0  0  0  0  0  0
   11.5588    1.8954   23.9646 H   0  0  0  0  0  0  0  0  0  0  0  0
   11.1823    3.3784   22.1872 H   0  0  0  0  0  0  0  0  0  0  0  0
    8.6979    2.3074   25.2783 C   0  0  0  0  0  0  0  0  0  0  0  0
    8.7236    3.1743   26.3706 C   0  0  0  0  0  0  0  0  0  0  0  0
    9.1415    4.4895   26.1397 C   0  0  0  0  0  0  0  0  0  0  0  0
    9.3214    5.5950   26.9538 N   0  0  0  0  0  0  0  0  0  0  0  0
    8.9866    5.7135   27.8906 H   0  0  0  0  0  0  0  0  0  0  0  0
    8.4155    2.8423   27.3585 H   0  0  0  0  0  0  0  0  0  0  0  0
    8.3746    1.2809   25.4098 H   0  0  0  0  0  0  0  0  0  0  0  0
    9.6423    4.4882   22.7875 H   0  0  0  0  0  0  0  0  0  0  0  0
    9.3409    8.2733   27.4537 H   0  0  0  0  0  0  0  0  0  0  0  0
   11.0569    8.0008   27.1286 H   0  0  0  0  0  0  0  0  0  0  0  0
   10.0212    8.7012   25.8663 H   0  0  0  0  0  0  0  0  0  0  0  0
  1  2  1  0
  2  3  2  0
  3  4  1  0
  4  5  2  0
  5  6  1  0
  6  7  1  0
  7  8  1  0
  8  9  2  0
  9 10  1  0
 10 11  1  0
 11 12  2  0
 12 13  1  0
 13 14  2  0
 14 15  1  0
 15 16  2  0
 16 17  1  0
 14 18  1  0
 13 19  1  0
 12 20  1  0
 10 21  1  0
 10 22  1  0
  9 23  1  0
 23 24  2  0
 24 25  1  0
 25 26  1  0
 26 27  1  0
 25 28  1  0
 28 29  1  0
 29 30  1  0
 30 31  1  0
 31 32  1  0
 31 33  1  0
 30 34  1  0
 30 35  1  0
 29 36  1  0
 29 37  1  0
 28 38  1  0
 25 39  1  1
  6 40  2  0
 40 41  1  0
 41 42  2  0
 42 43  1  0
 43 44  1  0
 41 45  1  0
 40 46  1  0
  5 47  1  0
  1 48  1  0
  1 49  1  0
  1 50  1  0
 43  2  1  0
 42  4  1  0
 24  7  1  0
 31 28  1  0
 16 11  1  0
M  END
>  <cnnaffinity>  (1) 
-6.4804

>  <filename>  (1) 
Cc1nc2cc(-n3nc(Cc4cccnc4)nc3[C@H](O)C3CCC3)ccc2[nH]1

$$$$
