
     RDKit          3D

 50 54  0  0  0  0  0  0  0  0999 V2000
    9.1617    8.2021   26.4767 C   0  0  0  0  0  0  0  0  0  0  0  0
    9.1780    6.7950   25.9791 C   0  0  0  0  0  0  0  0  0  0  0  0
    9.2140    6.4321   24.7247 N   0  0  0  0  0  0  0  0  0  0  0  0
    9.1430    5.0487   24.7401 C   0  0  0  0  0  0  0  0  0  0  0  0
    9.1385    4.1520   23.6616 C   0  0  0  0  0  0  0  0  0  0  0  0
    9.0847    2.7868   23.9437 C   0  0  0  0  0  0  0  0  0  0  0  0
    9.0585    1.8200   22.8877 N   0  0  0  0  0  0  0  0  0  0  0  0
    7.9831    1.0104   22.7164 N   0  0  0  0  0  0  0  0  0  0  0  0
    8.3267    0.2796   21.6806 C   0  0  0  0  0  0  0  0  0  0  0  0
    7.4016   -0.6915   21.0169 C   0  0  0  0  0  0  0  0  0  0  0  0
    6.6274   -0.0373   19.8750 C   0  0  0  0  0  0  0  0  0  0  0  0
    5.4270    0.6393   20.1242 C   0  0  0  0  0  0  0  0  0  0  0  0
    4.7874    1.3134   19.0790 C   0  0  0  0  0  0  0  0  0  0  0  0
    5.3848    1.3017   17.8158 C   0  0  0  0  0  0  0  0  0  0  0  0
    6.5430    0.6761   17.5550 N   0  0  0  0  0  0  0  0  0  0  0  0
    7.1441    0.0406   18.5686 C   0  0  0  0  0  0  0  0  0  0  0  0
    8.1046   -0.4205   18.3328 H   0  0  0  0  0  0  0  0  0  0  0  0
    4.9222    1.8200   16.9759 H   0  0  0  0  0  0  0  0  0  0  0  0
    3.8612    1.8595   19.2302 H   0  0  0  0  0  0  0  0  0  0  0  0
    5.0148    0.6493   21.1340 H   0  0  0  0  0  0  0  0  0  0  0  0
    8.0185   -1.5202   20.6570 H   0  0  0  0  0  0  0  0  0  0  0  0
    6.7210   -1.0824   21.7806 H   0  0  0  0  0  0  0  0  0  0  0  0
    9.5748    0.5098   21.2044 N   0  0  0  0  0  0  0  0  0  0  0  0
   10.0137    1.4884   21.9816 C   0  0  0  0  0  0  0  0  0  0  0  0
   11.4405    1.9558   21.9973 C   0  0  1  0  0  0  0  0  0  0  0  0
   11.5529    3.3519   22.2331 O   0  0  0  0  0  0  0  0  0  0  0  0
   12.4926    3.6350   23.2628 C   0  0  0  0  0  0  0  0  0  0  0  0
   12.6375    2.3436   24.0631 C   0  0  0  0  0  0  0  0  0  0  0  0
   12.3430    1.2398   23.0588 C   0  0  1  0  0  0  0  0  0  0  0  0
   11.8182   -0.0112   23.7559 C   0  0  0  0  0  0  0  0  0  0  0  0
   12.5593   -0.3114   24.5024 H   0  0  0  0  0  0  0  0  0  0  0  0
   10.8846    0.1964   24.2945 H   0  0  0  0  0  0  0  0  0  0  0  0
   11.6339   -0.8304   23.0535 H   0  0  0  0  0  0  0  0  0  0  0  0
   13.2820    0.9928   22.5419 H   0  0  0  0  0  0  0  0  0  0  0  0
   13.6360    2.1584   24.4673 H   0  0  0  0  0  0  0  0  0  0  0  0
   11.9276    2.3321   24.9023 H   0  0  0  0  0  0  0  0  0  0  0  0
   12.0877    4.4758   23.8374 H   0  0  0  0  0  0  0  0  0  0  0  0
   13.4476    3.9558   22.8278 H   0  0  0  0  0  0  0  0  0  0  0  0
   11.8058    1.7456   20.9857 H   0  0  0  0  0  0  0  0  0  0  0  0
    8.9848    2.3250   25.2756 C   0  0  0  0  0  0  0  0  0  0  0  0
    8.9196    3.2094   26.3471 C   0  0  0  0  0  0  0  0  0  0  0  0
    9.0579    4.5792   26.0651 C   0  0  0  0  0  0  0  0  0  0  0  0
    9.1035    5.7274   26.8354 N   0  0  0  0  0  0  0  0  0  0  0  0
    9.0633    5.7935   27.8363 H   0  0  0  0  0  0  0  0  0  0  0  0
    8.7107    2.8252   27.3405 H   0  0  0  0  0  0  0  0  0  0  0  0
    8.9360    1.2535   25.4591 H   0  0  0  0  0  0  0  0  0  0  0  0
    9.1560    4.5382   22.6486 H   0  0  0  0  0  0  0  0  0  0  0  0
    8.1378    8.5367   26.6735 H   0  0  0  0  0  0  0  0  0  0  0  0
    9.7272    8.3180   27.4049 H   0  0  0  0  0  0  0  0  0  0  0  0
    9.5863    8.8624   25.7207 H   0  0  0  0  0  0  0  0  0  0  0  0
  1  2  1  0
  2  3  2  0
  3  4  1  0
  4  5  2  0
  5  6  1  0
  6  7  1  0
  7  8  1  0
  8  9  2  0
  9 10  1  0
 10 11  1  0
 11 12  2  0
 12 13  1  0
 13 14  2  0
 14 15  1  0
 15 16  2  0
 16 17  1  0
 14 18  1  0
 13 19  1  0
 12 20  1  0
 10 21  1  0
 10 22  1  0
  9 23  1  0
 23 24  2  0
 24 25  1  0
 25 26  1  0
 26 27  1  0
 27 28  1  0
 28 29  1  0
 29 30  1  0
 30 31  1  0
 30 32  1  0
 30 33  1  0
 29 34  1  6
 28 35  1  0
 28 36  1  0
 27 37  1  0
 27 38  1  0
 25 39  1  6
  6 40  2  0
 40 41  1  0
 41 42  2  0
 42 43  1  0
 43 44  1  0
 41 45  1  0
 40 46  1  0
  5 47  1  0
  1 48  1  0
  1 49  1  0
  1 50  1  0
 43  2  1  0
 42  4  1  0
 24  7  1  0
 29 25  1  0
 16 11  1  0
M  END
>  <cnnaffinity>  (1) 
-5.74954

>  <filename>  (1) 
Cc1nc2cc(-n3nc(Cc4cccnc4)nc3[C@H]3OCC[C@H]3C)ccc2[nH]1

$$$$
