
     RDKit          3D

 48 51  0  0  0  0  0  0  0  0999 V2000
    9.7382    8.0128   26.8014 C   0  0  0  0  0  0  0  0  0  0  0  0
    9.5588    6.6380   26.2442 C   0  0  0  0  0  0  0  0  0  0  0  0
    9.7417    6.2935   25.0001 N   0  0  0  0  0  0  0  0  0  0  0  0
    9.3973    4.9526   24.9415 C   0  0  0  0  0  0  0  0  0  0  0  0
    9.3862    4.0751   23.8486 C   0  0  0  0  0  0  0  0  0  0  0  0
    8.9964    2.7493   24.0630 C   0  0  0  0  0  0  0  0  0  0  0  0
    8.9936    1.8081   22.9880 N   0  0  0  0  0  0  0  0  0  0  0  0
    7.9217    1.0016   22.7561 N   0  0  0  0  0  0  0  0  0  0  0  0
    8.3015    0.3028   21.7116 C   0  0  0  0  0  0  0  0  0  0  0  0
    7.4085   -0.6762   21.0156 C   0  0  0  0  0  0  0  0  0  0  0  0
    6.6340   -0.0242   19.8784 C   0  0  0  0  0  0  0  0  0  0  0  0
    5.4303    0.6426   20.1313 C   0  0  0  0  0  0  0  0  0  0  0  0
    4.7922    1.3137   19.0851 C   0  0  0  0  0  0  0  0  0  0  0  0
    5.3861    1.3023   17.8203 C   0  0  0  0  0  0  0  0  0  0  0  0
    6.5458    0.6804   17.5590 N   0  0  0  0  0  0  0  0  0  0  0  0
    7.1485    0.0476   18.5724 C   0  0  0  0  0  0  0  0  0  0  0  0
    8.1076   -0.4186   18.3398 H   0  0  0  0  0  0  0  0  0  0  0  0
    4.9183    1.8107   16.9781 H   0  0  0  0  0  0  0  0  0  0  0  0
    3.8659    1.8536   19.2373 H   0  0  0  0  0  0  0  0  0  0  0  0
    5.0186    0.6440   21.1418 H   0  0  0  0  0  0  0  0  0  0  0  0
    8.0438   -1.4900   20.6519 H   0  0  0  0  0  0  0  0  0  0  0  0
    6.7296   -1.0883   21.7681 H   0  0  0  0  0  0  0  0  0  0  0  0
    9.5609    0.5564   21.2722 N   0  0  0  0  0  0  0  0  0  0  0  0
    9.9751    1.5020   22.0929 C   0  0  0  0  0  0  0  0  0  0  0  0
   11.3674    2.0208   22.1619 C   0  0  0  0  0  0  0  0  0  0  0  0
   12.1271    1.4981   23.3879 C   0  0  0  0  0  0  0  0  0  0  0  0
   13.4816    2.1746   23.4989 C   0  0  0  0  0  0  0  0  0  0  0  0
   13.3976    3.2619   23.6131 H   0  0  0  0  0  0  0  0  0  0  0  0
   14.1232    1.9643   22.6325 H   0  0  0  0  0  0  0  0  0  0  0  0
   13.9606    1.7542   24.3783 H   0  0  0  0  0  0  0  0  0  0  0  0
   12.3091   -0.0209   23.3477 C   0  0  0  0  0  0  0  0  0  0  0  0
   11.3547   -0.5624   23.3487 H   0  0  0  0  0  0  0  0  0  0  0  0
   12.8670   -0.3336   22.4513 H   0  0  0  0  0  0  0  0  0  0  0  0
   12.8870   -0.3099   24.2305 H   0  0  0  0  0  0  0  0  0  0  0  0
   11.5521    1.7490   24.2949 H   0  0  0  0  0  0  0  0  0  0  0  0
   11.3613    3.1144   22.1797 H   0  0  0  0  0  0  0  0  0  0  0  0
   11.8913    1.7082   21.2525 H   0  0  0  0  0  0  0  0  0  0  0  0
    8.6036    2.3058   25.3505 C   0  0  0  0  0  0  0  0  0  0  0  0
    8.6083    3.1702   26.4406 C   0  0  0  0  0  0  0  0  0  0  0  0
    9.0094    4.4935   26.2147 C   0  0  0  0  0  0  0  0  0  0  0  0
    9.1281    5.6009   27.0323 N   0  0  0  0  0  0  0  0  0  0  0  0
    8.8839    5.6599   28.0042 H   0  0  0  0  0  0  0  0  0  0  0  0
    8.3066    2.8262   27.4244 H   0  0  0  0  0  0  0  0  0  0  0  0
    8.2878    1.2707   25.4581 H   0  0  0  0  0  0  0  0  0  0  0  0
    9.6538    4.4492   22.8672 H   0  0  0  0  0  0  0  0  0  0  0  0
   10.1199    7.9942   27.8270 H   0  0  0  0  0  0  0  0  0  0  0  0
    8.7865    8.5565   26.8093 H   0  0  0  0  0  0  0  0  0  0  0  0
   10.4335    8.5660   26.1684 H   0  0  0  0  0  0  0  0  0  0  0  0
  1  2  1  0
  2  3  2  0
  3  4  1  0
  4  5  2  0
  5  6  1  0
  6  7  1  0
  7  8  1  0
  8  9  2  0
  9 10  1  0
 10 11  1  0
 11 12  2  0
 12 13  1  0
 13 14  2  0
 14 15  1  0
 15 16  2  0
 16 17  1  0
 14 18  1  0
 13 19  1  0
 12 20  1  0
 10 21  1  0
 10 22  1  0
  9 23  1  0
 23 24  2  0
 24 25  1  0
 25 26  1  0
 26 27  1  0
 27 28  1  0
 27 29  1  0
 27 30  1  0
 26 31  1  0
 31 32  1  0
 31 33  1  0
 31 34  1  0
 26 35  1  0
 25 36  1  0
 25 37  1  0
  6 38  2  0
 38 39  1  0
 39 40  2  0
 40 41  1  0
 41 42  1  0
 39 43  1  0
 38 44  1  0
  5 45  1  0
  1 46  1  0
  1 47  1  0
  1 48  1  0
 41  2  1  0
 40  4  1  0
 24  7  1  0
 16 11  1  0
M  END
>  <cnnaffinity>  (1) 
-5.90666

>  <filename>  (1) 
Cc1nc2cc(-n3nc(Cc4cccnc4)nc3CC(C)C)ccc2[nH]1

$$$$
