
     RDKit          3D

 41 42  0  0  0  0  0  0  0  0999 V2000
   12.3089   -1.5987   21.7387 C   0  0  0  0  0  0  0  0  0  0  0  0
   11.9270   -0.2670   22.2687 C   0  0  0  0  0  0  0  0  0  0  0  0
   12.8198    0.6704   22.4578 N   0  0  0  0  0  0  0  0  0  0  0  0
   12.1245    1.7529   22.9568 O   0  0  0  0  0  0  0  0  0  0  0  0
   10.8221    1.4555   23.0359 C   0  0  0  0  0  0  0  0  0  0  0  0
    9.8780    2.4203   23.7006 C   0  0  0  0  0  0  0  0  0  0  0  0
    9.7161    2.0850   25.2018 C   0  0  0  0  0  0  0  0  0  0  0  0
   10.6811    1.9085   25.6879 H   0  0  0  0  0  0  0  0  0  0  0  0
    9.0944    1.1957   25.3551 H   0  0  0  0  0  0  0  0  0  0  0  0
    9.2338    2.9033   25.7429 H   0  0  0  0  0  0  0  0  0  0  0  0
   10.1869    3.9046   23.4478 C   0  0  0  0  0  0  0  0  0  0  0  0
    9.3756    4.5238   23.8501 H   0  0  0  0  0  0  0  0  0  0  0  0
   10.2555    4.1084   22.3763 H   0  0  0  0  0  0  0  0  0  0  0  0
   11.1196    4.2435   23.9126 H   0  0  0  0  0  0  0  0  0  0  0  0
    8.9086    2.2145   23.2205 H   0  0  0  0  0  0  0  0  0  0  0  0
   10.6188    0.1714   22.6176 C   0  0  0  0  0  0  0  0  0  0  0  0
    9.3323   -0.5676   22.5990 C   0  0  0  0  0  0  0  0  0  0  0  0
    8.5775   -0.0545   21.4414 N   0  0  0  0  0  4  0  0  0  0  0  0
    7.2246   -0.6153   21.1949 C   0  0  2  0  0  0  0  0  0  0  0  0
    7.3321   -2.1355   20.9792 C   0  0  0  0  0  0  0  0  0  0  0  0
    6.4927   -2.5334   20.4062 H   0  0  0  0  0  0  0  0  0  0  0  0
    8.2541   -2.3504   20.4371 H   0  0  0  0  0  0  0  0  0  0  0  0
    7.3894   -2.6578   21.9416 H   0  0  0  0  0  0  0  0  0  0  0  0
    6.6224    0.1513   20.0406 C   0  0  0  0  0  0  0  0  0  0  0  0
    5.3816    0.8126   20.1528 C   0  0  0  0  0  0  0  0  0  0  0  0
    4.8184    1.4085   19.0227 C   0  0  0  0  0  0  0  0  0  0  0  0
    5.5188    1.3361   17.8157 C   0  0  0  0  0  0  0  0  0  0  0  0
    6.6968    0.7143   17.6828 N   0  0  0  0  0  0  0  0  0  0  0  0
    7.2269    0.1468   18.7755 C   0  0  0  0  0  0  0  0  0  0  0  0
    8.1800   -0.3545   18.6086 H   0  0  0  0  0  0  0  0  0  0  0  0
    5.1093    1.7792   16.9084 H   0  0  0  0  0  0  0  0  0  0  0  0
    3.8627    1.9292   19.0537 H   0  0  0  0  0  0  0  0  0  0  0  0
    4.8707    0.8689   21.1176 H   0  0  0  0  0  0  0  0  0  0  0  0
    6.5883   -0.4425   22.0750 H   0  0  0  0  0  0  0  0  0  0  0  0
    9.1748   -0.2406   20.5986 H   0  0  0  0  0  0  0  0  0  0  0  0
    8.5128    0.9918   21.5167 H   0  0  0  0  0  0  0  0  0  0  0  0
    9.5087   -1.6523   22.5426 H   0  0  0  0  0  0  0  0  0  0  0  0
    8.7610   -0.4229   23.5319 H   0  0  0  0  0  0  0  0  0  0  0  0
   12.1499   -2.3923   22.4733 H   0  0  0  0  0  0  0  0  0  0  0  0
   11.6958   -1.8387   20.8685 H   0  0  0  0  0  0  0  0  0  0  0  0
   13.3613   -1.6167   21.4551 H   0  0  0  0  0  0  0  0  0  0  0  0
  1  2  1  0
  2  3  2  0
  3  4  1  0
  4  5  1  0
  5  6  1  0
  6  7  1  0
  7  8  1  0
  7  9  1  0
  7 10  1  0
  6 11  1  0
 11 12  1  0
 11 13  1  0
 11 14  1  0
  6 15  1  0
  5 16  2  0
 16 17  1  0
 17 18  1  0
 18 19  1  0
 19 20  1  0
 20 21  1  0
 20 22  1  0
 20 23  1  0
 19 24  1  0
 24 25  2  0
 25 26  1  0
 26 27  2  0
 27 28  1  0
 28 29  2  0
 29 30  1  0
 27 31  1  0
 26 32  1  0
 25 33  1  0
 19 34  1  1
 18 35  1  0
 18 36  1  0
 17 37  1  0
 17 38  1  0
  1 39  1  0
  1 40  1  0
  1 41  1  0
 16  2  1  0
 29 24  1  0
M  CHG  1  18   1
M  END
>  <cnnaffinity>  (1) 
-5.30963

>  <filename>  (1) 
Cc1noc(C(C)C)c1C[NH2+][C@H](C)c1cccnc1

$$$$
