
     RDKit          3D

 31 33  0  0  0  0  0  0  0  0999 V2000
    8.5434   -3.6616   22.1982 C   0  0  0  0  0  0  0  0  0  0  0  0
    8.0935   -2.2646   21.9536 C   0  0  0  0  0  0  0  0  0  0  0  0
    7.7581   -1.8619   20.7502 N   0  0  0  0  0  0  0  0  0  0  0  0
    7.3450   -0.5916   20.9591 N   0  0  0  0  0  0  0  0  0  0  0  0
    6.6452    0.0693   19.9150 C   0  0  0  0  0  0  0  0  0  0  0  0
    5.4201    0.7016   20.1399 C   0  0  0  0  0  0  0  0  0  0  0  0
    4.8101    1.3315   19.0505 C   0  0  0  0  0  0  0  0  0  0  0  0
    5.4346    1.2936   17.7997 C   0  0  0  0  0  0  0  0  0  0  0  0
    6.5847    0.6342   17.5732 N   0  0  0  0  0  0  0  0  0  0  0  0
    7.1585    0.0148   18.6066 C   0  0  0  0  0  0  0  0  0  0  0  0
    8.0590   -0.5619   18.4070 H   0  0  0  0  0  0  0  0  0  0  0  0
    4.9999    1.8051   16.9434 H   0  0  0  0  0  0  0  0  0  0  0  0
    3.8591    1.8386   19.1604 H   0  0  0  0  0  0  0  0  0  0  0  0
    4.9471    0.6741   21.1254 H   0  0  0  0  0  0  0  0  0  0  0  0
    7.5165   -0.2771   22.2878 C   0  0  0  0  0  0  0  0  0  0  0  0
    7.3281    1.0388   22.8901 C   0  0  0  0  0  0  0  0  0  0  0  0
    7.0805    1.3338   24.2158 C   0  0  0  0  0  0  0  0  0  0  0  0
    6.9575    2.7398   24.3284 C   0  0  0  0  0  0  0  0  0  0  0  0
    7.1567    3.2853   23.0809 C   0  0  0  0  0  0  0  0  0  0  0  0
    7.1506    4.7056   22.6120 C   0  0  0  0  0  0  0  0  0  0  0  0
    8.1582    5.1392   22.6074 H   0  0  0  0  0  0  0  0  0  0  0  0
    6.5407    5.3291   23.2701 H   0  0  0  0  0  0  0  0  0  0  0  0
    6.7392    4.7911   21.5984 H   0  0  0  0  0  0  0  0  0  0  0  0
    7.3974    2.2503   22.2201 N   0  0  0  0  0  0  0  0  0  0  0  0
    7.4204    2.3717   21.2193 H   0  0  0  0  0  0  0  0  0  0  0  0
    6.7176    3.2945   25.2267 H   0  0  0  0  0  0  0  0  0  0  0  0
    6.9952    0.6173   25.0266 H   0  0  0  0  0  0  0  0  0  0  0  0
    7.9567   -1.3430   22.9337 N   0  0  0  0  0  0  0  0  0  0  0  0
    9.5085   -3.6535   22.7102 H   0  0  0  0  0  0  0  0  0  0  0  0
    7.8327   -4.1856   22.8410 H   0  0  0  0  0  0  0  0  0  0  0  0
    8.6029   -4.1785   21.2392 H   0  0  0  0  0  0  0  0  0  0  0  0
  1  2  1  0
  2  3  2  0
  3  4  1  0
  4  5  1  0
  5  6  2  0
  6  7  1  0
  7  8  2  0
  8  9  1  0
  9 10  2  0
 10 11  1  0
  8 12  1  0
  7 13  1  0
  6 14  1  0
  4 15  1  0
 15 16  1  0
 16 17  2  0
 17 18  1  0
 18 19  2  0
 19 20  1  0
 20 21  1  0
 20 22  1  0
 20 23  1  0
 19 24  1  0
 24 25  1  0
 18 26  1  0
 17 27  1  0
 15 28  2  0
  1 29  1  0
  1 30  1  0
  1 31  1  0
 28  2  1  0
 10  5  1  0
 24 16  1  0
M  END
>  <cnnaffinity>  (1) 
-4.70879

>  <filename>  (1) 
Cc1nc(-c2ccc(C)[nH]2)n(-c2cccnc2)n1

$$$$
