
     RDKit          3D

 33 36  0  0  0  0  0  0  0  0999 V2000
   10.3998   -2.1822   22.0947 C   0  0  0  0  0  0  0  0  0  0  0  0
    9.0004   -1.6630   21.9874 C   0  0  0  0  0  0  0  0  0  0  0  0
    8.0944   -1.6796   23.0222 C   0  0  0  0  0  0  0  0  0  0  0  0
    8.2898   -2.2713   24.3253 C   0  0  0  0  0  0  0  0  0  0  0  0
    8.5646   -3.6287   24.4722 C   0  0  0  0  0  0  0  0  0  0  0  0
    8.7612   -4.2005   25.7562 C   0  0  0  0  0  0  0  0  0  0  0  0
    8.6781   -3.4022   26.8684 C   0  0  0  0  0  0  0  0  0  0  0  0
    8.4387   -2.0584   26.7152 N   0  0  0  0  0  0  0  0  0  0  0  0
    8.4310   -1.1900   27.7320 N   0  0  0  0  0  0  0  0  0  0  0  0
    8.2228   -0.0039   27.1643 C   0  0  0  0  0  0  0  0  0  0  0  0
    8.0895   -0.0835   25.7705 C   0  0  0  0  0  0  0  0  0  0  0  0
    8.2316   -1.4422   25.4798 C   0  0  0  0  0  0  0  0  0  0  0  0
    7.9263    0.7193   25.0660 H   0  0  0  0  0  0  0  0  0  0  0  0
    8.1823    0.8746   27.7932 H   0  0  0  0  0  0  0  0  0  0  0  0
    8.7676   -3.7317   27.8899 H   0  0  0  0  0  0  0  0  0  0  0  0
    9.0026   -5.2498   25.8669 H   0  0  0  0  0  0  0  0  0  0  0  0
    8.6308   -4.2636   23.5960 H   0  0  0  0  0  0  0  0  0  0  0  0
    6.6369   -0.8941   22.5332 S   0  0  0  0  0  0  0  0  0  0  0  0
    7.3300   -0.6229   20.9708 C   0  0  0  0  0  0  0  0  0  0  0  0
    6.5999    0.0842   19.9121 C   0  0  0  0  0  0  0  0  0  0  0  0
    5.3685    0.7484   20.0879 C   0  0  0  0  0  0  0  0  0  0  0  0
    4.7877    1.3711   18.9843 C   0  0  0  0  0  0  0  0  0  0  0  0
    5.4480    1.3103   17.7534 C   0  0  0  0  0  0  0  0  0  0  0  0
    6.6113    0.6713   17.5705 N   0  0  0  0  0  0  0  0  0  0  0  0
    7.1691    0.0784   18.6275 C   0  0  0  0  0  0  0  0  0  0  0  0
    8.1132   -0.4370   18.4563 H   0  0  0  0  0  0  0  0  0  0  0  0
    5.0131    1.7661   16.8668 H   0  0  0  0  0  0  0  0  0  0  0  0
    3.8341    1.8849   19.0493 H   0  0  0  0  0  0  0  0  0  0  0  0
    4.8597    0.7882   21.0513 H   0  0  0  0  0  0  0  0  0  0  0  0
    8.5350   -1.1074   20.8274 N   0  0  0  0  0  0  0  0  0  0  0  0
   10.9674   -1.5911   22.8261 H   0  0  0  0  0  0  0  0  0  0  0  0
   10.4050   -3.2103   22.4709 H   0  0  0  0  0  0  0  0  0  0  0  0
   10.8979   -2.1510   21.1252 H   0  0  0  0  0  0  0  0  0  0  0  0
  1  2  1  0
  2  3  2  0
  3  4  1  0
  4  5  2  0
  5  6  1  0
  6  7  2  0
  7  8  1  0
  8  9  1  0
  9 10  2  0
 10 11  1  0
 11 12  2  0
 11 13  1  0
 10 14  1  0
  7 15  1  0
  6 16  1  0
  5 17  1  0
  3 18  1  0
 18 19  1  0
 19 20  1  0
 20 21  2  0
 21 22  1  0
 22 23  2  0
 23 24  1  0
 24 25  2  0
 25 26  1  0
 23 27  1  0
 22 28  1  0
 21 29  1  0
 19 30  2  0
  1 31  1  0
  1 32  1  0
  1 33  1  0
 30  2  1  0
 12  4  1  0
 25 20  1  0
 12  8  1  0
M  END
>  <cnnaffinity>  (1) 
-5.49607

>  <filename>  (1) 
Cc1nc(-c2cccnc2)sc1-c1cccn2nccc12

$$$$
