
     RDKit          3D

 32 35  0  0  0  0  0  0  0  0999 V2000
    4.9345    1.7440   16.8519 H   0  0  0  0  0  0  0  0  0  0  0  0
    5.4139    1.2537   17.6974 C   0  0  0  0  0  0  0  0  0  0  0  0
    6.5815    0.6397   17.4507 N   0  0  0  0  0  0  0  0  0  0  0  0
    7.2169    0.0735   18.4818 C   0  0  0  0  0  0  0  0  0  0  0  0
    8.1510   -0.4220   18.2334 H   0  0  0  0  0  0  0  0  0  0  0  0
    6.7493    0.1041   19.8103 C   0  0  0  0  0  0  0  0  0  0  0  0
    7.5366   -0.3926   20.8762 N   0  0  0  0  0  0  0  0  0  0  0  0
    8.4259   -1.4667   20.8346 C   0  0  0  0  0  0  0  0  0  0  0  0
    8.6143   -1.9389   19.8930 H   0  0  0  0  0  0  0  0  0  0  0  0
    8.9496   -1.6779   22.0696 C   0  0  0  0  0  0  0  0  0  0  0  0
    9.6033   -2.4240   22.4882 H   0  0  0  0  0  0  0  0  0  0  0  0
    8.4045   -0.6975   22.8775 N   0  0  0  0  0  0  0  0  0  0  0  0
    8.6327   -0.2803   24.1423 N   0  0  0  0  0  0  0  0  0  0  0  0
    7.8943    0.8303   24.2084 C   0  0  0  0  0  0  0  0  0  0  0  0
    7.9335    1.6266   25.3640 N   0  0  0  0  0  0  0  0  0  0  0  0
    7.7244    2.9895   25.3754 C   0  0  0  0  0  0  0  0  0  0  0  0
    7.6459    3.8588   24.1651 C   0  0  0  0  0  0  0  0  0  0  0  0
    8.3461    3.5497   23.3877 H   0  0  0  0  0  0  0  0  0  0  0  0
    6.6427    3.8518   23.7367 H   0  0  0  0  0  0  0  0  0  0  0  0
    7.8884    4.8768   24.4634 H   0  0  0  0  0  0  0  0  0  0  0  0
    7.7144    3.4594   26.5893 N   0  0  0  0  0  0  0  0  0  0  0  0
    7.9620    2.3865   27.4161 C   0  0  0  0  0  0  0  0  0  0  0  0
    8.0201    2.5275   28.4849 H   0  0  0  0  0  0  0  0  0  0  0  0
    8.1464    1.2509   26.6931 C   0  0  0  0  0  0  0  0  0  0  0  0
    8.5263    0.2739   26.9648 H   0  0  0  0  0  0  0  0  0  0  0  0
    7.1592    1.1032   23.0278 C   0  0  0  0  0  0  0  0  0  0  0  0
    6.4457    1.8767   22.8379 H   0  0  0  0  0  0  0  0  0  0  0  0
    7.5581    0.0862   22.1778 C   0  0  0  0  0  0  0  0  0  0  0  0
    5.4861    0.6721   20.0411 C   0  0  0  0  0  0  0  0  0  0  0  0
    5.0474    0.6449   21.0393 H   0  0  0  0  0  0  0  0  0  0  0  0
    4.8194    1.2619   18.9634 C   0  0  0  0  0  0  0  0  0  0  0  0
    3.8618    1.7478   19.1032 H   0  0  0  0  0  0  0  0  0  0  0  0
  1  2  1  0
  2  3  2  0
  3  4  1  0
  4  5  1  0
  4  6  2  0
  6  7  1  0
  7  8  1  0
  8  9  1  0
  8 10  2  0
 10 11  1  0
 10 12  1  0
 12 13  1  0
 13 14  2  0
 14 15  1  0
 15 16  1  0
 16 17  1  0
 17 18  1  0
 17 19  1  0
 17 20  1  0
 16 21  2  0
 21 22  1  0
 22 23  1  0
 22 24  2  0
 24 25  1  0
 14 26  1  0
 26 27  1  0
 26 28  2  0
  6 29  1  0
 29 30  1  0
 29 31  2  0
 31 32  1  0
 31  2  1  0
 28  7  1  0
 28 12  1  0
 24 15  1  0
M  END
>  <cnnaffinity>  (1) 
-4.83473

>  <filename>  (1) 
Cc1nccn1-c1cc2n(-c3cccnc3)ccn2n1

$$$$
