
     RDKit          3D

 30 32  0  0  0  0  0  0  0  0999 V2000
    9.1570   -3.4171   22.1818 C   0  0  0  0  0  0  0  0  0  0  0  0
    8.4024   -2.1897   21.9088 C   0  0  0  0  0  0  0  0  0  0  0  0
    7.9629   -1.8708   20.7065 N   0  0  0  0  0  0  0  0  0  0  0  0
    7.3600   -0.6780   20.9251 N   0  0  0  0  0  0  0  0  0  0  0  0
    6.6506   -0.0059   19.9028 C   0  0  0  0  0  0  0  0  0  0  0  0
    5.4405    0.6463   20.1694 C   0  0  0  0  0  0  0  0  0  0  0  0
    4.8136    1.3034   19.1079 C   0  0  0  0  0  0  0  0  0  0  0  0
    5.4070    1.2913   17.8413 C   0  0  0  0  0  0  0  0  0  0  0  0
    6.5725    0.6700   17.5888 N   0  0  0  0  0  0  0  0  0  0  0  0
    7.1733    0.0348   18.5973 C   0  0  0  0  0  0  0  0  0  0  0  0
    8.1225   -0.4470   18.3780 H   0  0  0  0  0  0  0  0  0  0  0  0
    4.9305    1.7837   16.9963 H   0  0  0  0  0  0  0  0  0  0  0  0
    3.8846    1.8359   19.2572 H   0  0  0  0  0  0  0  0  0  0  0  0
    5.0107    0.6363   21.1730 H   0  0  0  0  0  0  0  0  0  0  0  0
    7.5345   -0.3324   22.2408 C   0  0  0  0  0  0  0  0  0  0  0  0
    7.0965    0.9326   22.8483 C   0  0  0  0  0  0  0  0  0  0  0  0
    7.5391    2.1915   22.3830 C   0  0  0  0  0  0  0  0  0  0  0  0
    8.6865    2.2876   21.0951 Cl  0  0  0  0  0  0  0  0  0  0  0  0
    7.0621    3.3666   22.9860 C   0  0  0  0  0  0  0  0  0  0  0  0
    7.5585    4.9362   22.4384 Cl  0  0  0  0  0  0  0  0  0  0  0  0
    6.1747    3.2910   24.0608 C   0  0  0  0  0  0  0  0  0  0  0  0
    5.7563    2.0476   24.5391 C   0  0  0  0  0  0  0  0  0  0  0  0
    6.2168    0.8796   23.9380 C   0  0  0  0  0  0  0  0  0  0  0  0
    5.9090   -0.0963   24.3052 H   0  0  0  0  0  0  0  0  0  0  0  0
    5.0841    1.9871   25.3874 H   0  0  0  0  0  0  0  0  0  0  0  0
    5.8327    4.2153   24.5133 H   0  0  0  0  0  0  0  0  0  0  0  0
    8.1675   -1.2864   22.8833 N   0  0  0  0  0  0  0  0  0  0  0  0
   10.2139   -3.1735   22.0382 H   0  0  0  0  0  0  0  0  0  0  0  0
    8.7852   -4.1851   21.5077 H   0  0  0  0  0  0  0  0  0  0  0  0
    9.0506   -3.7527   23.2094 H   0  0  0  0  0  0  0  0  0  0  0  0
  1  2  1  0
  2  3  2  0
  3  4  1  0
  4  5  1  0
  5  6  2  0
  6  7  1  0
  7  8  2  0
  8  9  1  0
  9 10  2  0
 10 11  1  0
  8 12  1  0
  7 13  1  0
  6 14  1  0
  4 15  1  0
 15 16  1  0
 16 17  2  0
 17 18  1  0
 17 19  1  0
 19 20  1  0
 19 21  2  0
 21 22  1  0
 22 23  2  0
 23 24  1  0
 22 25  1  0
 21 26  1  0
 15 27  2  0
  1 28  1  0
  1 29  1  0
  1 30  1  0
 27  2  1  0
 10  5  1  0
 23 16  1  0
M  END
>  <cnnaffinity>  (1) 
-4.74124

>  <filename>  (1) 
Cc1nc(-c2cccc(Cl)c2Cl)n(-c2cccnc2)n1

$$$$
