
     RDKit          3D

 48 52  0  0  0  0  0  0  0  0999 V2000
   12.4469   -0.0484   22.8693 C   0  0  0  0  0  0  0  0  0  0  0  0
   12.3994    1.4455   22.7415 C   0  0  0  0  0  0  0  0  0  0  0  0
   13.5590    2.1002   22.9250 N   0  0  0  0  0  0  0  0  0  0  0  0
   13.6530    3.4279   22.8014 N   0  0  0  0  0  0  0  0  0  0  0  0
   12.5566    4.1431   22.5345 C   0  0  0  0  0  0  0  0  0  0  0  0
   11.2986    3.5519   22.4049 C   0  0  0  0  0  0  0  0  0  0  0  0
   11.1951    2.1662   22.5157 C   0  0  0  0  0  0  0  0  0  0  0  0
    9.8954    1.4605   22.3895 C   0  0  0  0  0  0  0  0  0  0  0  0
    9.6086    0.4242   21.6183 N   0  0  0  0  0  0  0  0  0  0  0  0
    8.2581    0.3093   21.7418 C   0  0  0  0  0  0  0  0  0  0  0  0
    7.4327   -0.6778   20.9459 C   0  0  0  0  0  0  0  0  0  0  0  0
    6.6513   -0.0481   19.7899 C   0  0  0  0  0  0  0  0  0  0  0  0
    5.4472    0.6246   20.0464 C   0  0  0  0  0  0  0  0  0  0  0  0
    4.8157    1.3095   19.0041 C   0  0  0  0  0  0  0  0  0  0  0  0
    5.4092    1.2943   17.7401 C   0  0  0  0  0  0  0  0  0  0  0  0
    6.5374    0.6237   17.4592 N   0  0  0  0  0  0  0  0  0  0  0  0
    7.1275   -0.0326   18.4668 C   0  0  0  0  0  0  0  0  0  0  0  0
    8.0402   -0.5737   18.2121 H   0  0  0  0  0  0  0  0  0  0  0  0
    4.9661    1.8402   16.9089 H   0  0  0  0  0  0  0  0  0  0  0  0
    3.8926    1.8599   19.1586 H   0  0  0  0  0  0  0  0  0  0  0  0
    5.0304    0.6172   21.0553 H   0  0  0  0  0  0  0  0  0  0  0  0
    6.7203   -1.1505   21.6338 H   0  0  0  0  0  0  0  0  0  0  0  0
    8.1164   -1.4573   20.5961 H   0  0  0  0  0  0  0  0  0  0  0  0
    7.7096    1.1547   22.5839 N   0  0  0  0  0  0  0  0  0  0  0  0
    8.7670    1.8932   23.0082 N   0  0  0  0  0  0  0  0  0  0  0  0
    8.5968    2.8894   24.0545 C   0  0  0  0  0  0  0  0  0  0  0  0
    8.0182    4.2235   23.6264 C   0  0  0  0  0  0  0  0  0  0  0  0
    8.8084    5.3900   23.6781 C   0  0  0  0  0  0  0  0  0  0  0  0
    8.2828    6.6422   23.3614 C   0  0  0  0  0  0  0  0  0  0  0  0
    6.9433    6.7506   22.9790 C   0  0  0  0  0  0  0  0  0  0  0  0
    6.1522    5.6000   22.8895 C   0  0  0  0  0  0  0  0  0  0  0  0
    6.6899    4.3403   23.1892 C   0  0  0  0  0  0  0  0  0  0  0  0
    6.0937    3.4366   23.0791 H   0  0  0  0  0  0  0  0  0  0  0  0
    5.1129    5.6875   22.5847 H   0  0  0  0  0  0  0  0  0  0  0  0
    6.5286    7.7237   22.7286 H   0  0  0  0  0  0  0  0  0  0  0  0
    8.9213    7.5199   23.4079 H   0  0  0  0  0  0  0  0  0  0  0  0
    9.8555    5.3106   23.9540 H   0  0  0  0  0  0  0  0  0  0  0  0
    9.6401    2.9544   25.1329 C   0  0  0  0  0  0  0  0  0  0  0  0
    8.3066    2.3566   25.4425 C   0  0  0  0  0  0  0  0  0  0  0  0
    8.2803    1.2770   25.5696 H   0  0  0  0  0  0  0  0  0  0  0  0
    7.6190    2.9174   26.0662 H   0  0  0  0  0  0  0  0  0  0  0  0
   10.5049    2.3023   25.0555 H   0  0  0  0  0  0  0  0  0  0  0  0
    9.8401    3.9565   25.4987 H   0  0  0  0  0  0  0  0  0  0  0  0
   10.4346    4.1760   22.2081 H   0  0  0  0  0  0  0  0  0  0  0  0
   12.7040    5.2067   22.3936 H   0  0  0  0  0  0  0  0  0  0  0  0
   12.1192   -0.5394   21.9478 H   0  0  0  0  0  0  0  0  0  0  0  0
   13.4623   -0.3720   23.1068 H   0  0  0  0  0  0  0  0  0  0  0  0
   11.7659   -0.3690   23.6632 H   0  0  0  0  0  0  0  0  0  0  0  0
  1  2  1  0
  2  3  2  0
  3  4  1  0
  4  5  2  0
  5  6  1  0
  6  7  2  0
  7  8  1  0
  8  9  2  0
  9 10  1  0
 10 11  1  0
 11 12  1  0
 12 13  2  0
 13 14  1  0
 14 15  2  0
 15 16  1  0
 16 17  2  0
 17 18  1  0
 15 19  1  0
 14 20  1  0
 13 21  1  0
 11 22  1  0
 11 23  1  0
 10 24  2  0
 24 25  1  0
 25 26  1  0
 26 27  1  0
 27 28  2  0
 28 29  1  0
 29 30  2  0
 30 31  1  0
 31 32  2  0
 32 33  1  0
 31 34  1  0
 30 35  1  0
 29 36  1  0
 28 37  1  0
 26 38  1  0
 38 39  1  0
 39 40  1  0
 39 41  1  0
 38 42  1  0
 38 43  1  0
  6 44  1  0
  5 45  1  0
  1 46  1  0
  1 47  1  0
  1 48  1  0
  7  2  1  0
 25  8  1  0
 39 26  1  0
 17 12  1  0
 32 27  1  0
M  END
>  <cnnaffinity>  (1) 
-6.48659

>  <filename>  (1) 
Cc1nnccc1-c1nc(Cc2cccnc2)nn1C1(c2ccccc2)CC1

$$$$
