
     RDKit          3D

 45 49  0  0  0  0  0  0  0  0999 V2000
    9.8811    1.3906   25.7313 C   0  0  0  0  0  0  0  0  0  0  0  0
    8.9601    2.5188   25.3371 C   0  0  0  0  0  0  0  0  0  0  0  0
    8.8157    3.5092   26.2321 N   0  0  0  0  0  0  0  0  0  0  0  0
    7.8725    4.4386   26.0265 C   0  0  0  0  0  0  0  0  0  0  0  0
    7.0122    4.4119   24.9240 C   0  0  0  0  0  0  0  0  0  0  0  0
    7.1911    3.4292   23.9493 C   0  0  0  0  0  0  0  0  0  0  0  0
    8.2508    2.5329   24.1087 C   0  0  0  0  0  0  0  0  0  0  0  0
    8.5865    1.6711   23.0178 N   0  0  0  0  0  0  0  0  0  0  0  0
    7.6022    0.9139   22.4758 N   0  0  0  0  0  0  0  0  0  0  0  0
    8.2413    0.1704   21.5921 C   0  0  0  0  0  0  0  0  0  0  0  0
    7.5225   -0.7815   20.6735 C   0  0  0  0  0  0  0  0  0  0  0  0
    6.7227   -0.0888   19.5692 C   0  0  0  0  0  0  0  0  0  0  0  0
    5.5803    0.6709   19.8731 C   0  0  0  0  0  0  0  0  0  0  0  0
    4.9064    1.3115   18.8293 C   0  0  0  0  0  0  0  0  0  0  0  0
    5.4111    1.1953   17.5312 C   0  0  0  0  0  0  0  0  0  0  0  0
    6.5096    0.4914   17.2245 N   0  0  0  0  0  0  0  0  0  0  0  0
    7.1404   -0.1277   18.2290 C   0  0  0  0  0  0  0  0  0  0  0  0
    8.0545   -0.6636   17.9659 H   0  0  0  0  0  0  0  0  0  0  0  0
    4.9212    1.6917   16.6967 H   0  0  0  0  0  0  0  0  0  0  0  0
    4.0103    1.8992   18.9983 H   0  0  0  0  0  0  0  0  0  0  0  0
    5.2535    0.7838   20.9107 H   0  0  0  0  0  0  0  0  0  0  0  0
    6.8444   -1.3778   21.2933 H   0  0  0  0  0  0  0  0  0  0  0  0
    8.2618   -1.4738   20.2533 H   0  0  0  0  0  0  0  0  0  0  0  0
    9.5771    0.3761   21.5381 N   0  0  0  0  0  0  0  0  0  0  0  0
    9.7752    1.3559   22.4083 C   0  0  0  0  0  0  0  0  0  0  0  0
   11.0884    2.0058   22.6820 C   0  0  0  0  0  0  0  0  0  0  0  0
   12.2617    1.2317   22.7948 C   0  0  0  0  0  0  0  0  0  0  0  0
   13.5082    1.8394   23.0404 C   0  0  0  0  0  0  0  0  0  0  0  0
   13.6925    3.1617   23.1708 N   0  0  0  0  0  0  0  0  0  0  0  0
   12.5746    3.8762   23.0514 C   0  0  0  0  0  0  0  0  0  0  0  0
   11.2448    3.4106   22.8307 C   0  0  0  0  0  0  0  0  0  0  0  0
   10.4266    4.5961   22.8383 C   0  0  0  0  0  0  0  0  0  0  0  0
   11.2328    5.6706   23.0686 C   0  0  0  0  0  0  0  0  0  0  0  0
   12.5345    5.2331   23.1753 N   0  0  0  0  0  0  0  0  0  0  0  0
   13.3666    5.7301   23.4380 H   0  0  0  0  0  0  0  0  0  0  0  0
   10.9708    6.7212   23.1467 H   0  0  0  0  0  0  0  0  0  0  0  0
    9.3585    4.6445   22.6620 H   0  0  0  0  0  0  0  0  0  0  0  0
   14.4014    1.2157   23.1101 H   0  0  0  0  0  0  0  0  0  0  0  0
   12.2035    0.1536   22.6964 H   0  0  0  0  0  0  0  0  0  0  0  0
    6.5433    3.3540   23.0697 H   0  0  0  0  0  0  0  0  0  0  0  0
    6.2244    5.1508   24.8282 H   0  0  0  0  0  0  0  0  0  0  0  0
    7.7647    5.2177   26.7864 H   0  0  0  0  0  0  0  0  0  0  0  0
    9.5150    0.9370   26.6569 H   0  0  0  0  0  0  0  0  0  0  0  0
    9.9405    0.6200   24.9586 H   0  0  0  0  0  0  0  0  0  0  0  0
   10.8828    1.7848   25.9160 H   0  0  0  0  0  0  0  0  0  0  0  0
  1  2  1  0
  2  3  2  0
  3  4  1  0
  4  5  2  0
  5  6  1  0
  6  7  2  0
  7  8  1  0
  8  9  1  0
  9 10  2  0
 10 11  1  0
 11 12  1  0
 12 13  2  0
 13 14  1  0
 14 15  2  0
 15 16  1  0
 16 17  2  0
 17 18  1  0
 15 19  1  0
 14 20  1  0
 13 21  1  0
 11 22  1  0
 11 23  1  0
 10 24  1  0
 24 25  2  0
 25 26  1  0
 26 27  2  0
 27 28  1  0
 28 29  2  0
 29 30  1  0
 30 31  2  0
 31 32  1  0
 32 33  2  0
 33 34  1  0
 34 35  1  0
 33 36  1  0
 32 37  1  0
 28 38  1  0
 27 39  1  0
  6 40  1  0
  5 41  1  0
  4 42  1  0
  1 43  1  0
  1 44  1  0
  1 45  1  0
  7  2  1  0
 25  8  1  0
 31 26  1  0
 17 12  1  0
 34 30  1  0
M  END
>  <cnnaffinity>  (1) 
-6.21499

>  <filename>  (1) 
Cc1ncccc1-n1nc(Cc2cccnc2)nc1-c1ccnc2[nH]ccc12

$$$$
