
     RDKit          3D

 32 35  0  0  0  0  0  0  0  0999 V2000
    8.8192   -3.5571   22.2794 C   0  0  0  0  0  0  0  0  0  0  0  0
    8.1601   -2.2696   21.9684 C   0  0  0  0  0  0  0  0  0  0  0  0
    7.7512   -1.9413   20.7584 N   0  0  0  0  0  0  0  0  0  0  0  0
    7.3432   -0.6652   20.9279 N   0  0  0  0  0  0  0  0  0  0  0  0
    6.6373    0.0012   19.9032 C   0  0  0  0  0  0  0  0  0  0  0  0
    5.4184    0.6365   20.1600 C   0  0  0  0  0  0  0  0  0  0  0  0
    4.8007    1.2954   19.0965 C   0  0  0  0  0  0  0  0  0  0  0  0
    5.4114    1.2866   17.8390 C   0  0  0  0  0  0  0  0  0  0  0  0
    6.5744    0.6582   17.5902 N   0  0  0  0  0  0  0  0  0  0  0  0
    7.1661    0.0223   18.6017 C   0  0  0  0  0  0  0  0  0  0  0  0
    8.1138   -0.4658   18.3835 H   0  0  0  0  0  0  0  0  0  0  0  0
    4.9593    1.7996   16.9958 H   0  0  0  0  0  0  0  0  0  0  0  0
    3.8745    1.8372   19.2393 H   0  0  0  0  0  0  0  0  0  0  0  0
    4.9999    0.6427   21.1681 H   0  0  0  0  0  0  0  0  0  0  0  0
    7.5832   -0.2874   22.2215 C   0  0  0  0  0  0  0  0  0  0  0  0
    7.4062    1.0590   22.7249 C   0  0  0  0  0  0  0  0  0  0  0  0
    7.4390    2.2572   22.0739 C   0  0  0  0  0  0  0  0  0  0  0  0
    7.2286    3.3605   22.9419 C   0  0  0  0  0  0  0  0  0  0  0  0
    7.2141    4.6426   22.5309 N   0  0  0  0  0  0  0  0  0  0  0  0
    7.0192    5.5568   23.4680 C   0  0  0  0  0  0  0  0  0  0  0  0
    6.8312    5.2591   24.8358 C   0  0  0  0  0  0  0  0  0  0  0  0
    6.8387    3.9369   25.2689 C   0  0  0  0  0  0  0  0  0  0  0  0
    7.0424    2.9557   24.2872 C   0  0  0  0  0  0  0  0  0  0  0  0
    7.1457    1.2266   24.4354 S   0  0  0  0  0  0  0  0  0  0  0  0
    6.6990    3.6770   26.3180 H   0  0  0  0  0  0  0  0  0  0  0  0
    6.6852    6.0719   25.5324 H   0  0  0  0  0  0  0  0  0  0  0  0
    7.0139    6.5924   23.1292 H   0  0  0  0  0  0  0  0  0  0  0  0
    7.5832    2.4251   21.0161 H   0  0  0  0  0  0  0  0  0  0  0  0
    8.0767   -1.2969   22.9005 N   0  0  0  0  0  0  0  0  0  0  0  0
    9.8908   -3.3544   22.1890 H   0  0  0  0  0  0  0  0  0  0  0  0
    8.5078   -4.3413   21.5865 H   0  0  0  0  0  0  0  0  0  0  0  0
    8.6170   -3.8432   23.3132 H   0  0  0  0  0  0  0  0  0  0  0  0
  1  2  1  0
  2  3  2  0
  3  4  1  0
  4  5  1  0
  5  6  2  0
  6  7  1  0
  7  8  2  0
  8  9  1  0
  9 10  2  0
 10 11  1  0
  8 12  1  0
  7 13  1  0
  6 14  1  0
  4 15  1  0
 15 16  1  0
 16 17  2  0
 17 18  1  0
 18 19  2  0
 19 20  1  0
 20 21  2  0
 21 22  1  0
 22 23  2  0
 23 24  1  0
 22 25  1  0
 21 26  1  0
 20 27  1  0
 17 28  1  0
 15 29  2  0
  1 30  1  0
  1 31  1  0
  1 32  1  0
 29  2  1  0
 10  5  1  0
 24 16  1  0
 23 18  1  0
M  END
>  <cnnaffinity>  (1) 
-5.20942

>  <filename>  (1) 
Cc1nc(-c2cc3ncccc3s2)n(-c2cccnc2)n1

$$$$
