
     RDKit          3D

 36 38  0  0  0  0  0  0  0  0999 V2000
    6.5629    3.2580   22.9366 H   0  0  0  0  0  0  0  0  0  0  0  0
    7.2425    2.7522   22.4568 O   0  0  0  0  0  0  0  0  0  0  0  0
    8.2920    3.0247   23.2346 C   0  0  0  0  0  0  0  0  0  0  0  0
    8.1286    3.7373   24.2075 O   0  0  0  0  0  0  0  0  0  0  0  0
    9.5853    2.3965   22.8675 C   0  0  0  0  0  0  0  0  0  0  0  0
   10.0296    1.5272   21.8854 C   0  0  0  0  0  0  0  0  0  0  0  0
    9.0896    0.8711   20.8848 C   0  0  0  0  0  0  0  0  0  0  0  0
    8.3421    1.6190   20.6276 H   0  0  0  0  0  0  0  0  0  0  0  0
    9.5971    0.5965   19.9520 H   0  0  0  0  0  0  0  0  0  0  0  0
    8.4305   -0.3566   21.4623 C   0  0  0  0  0  0  0  0  0  0  0  0
    9.0574   -1.1150   22.4547 C   0  0  0  0  0  0  0  0  0  0  0  0
   10.0510   -0.8211   22.7918 H   0  0  0  0  0  0  0  0  0  0  0  0
    8.5274   -2.1958   23.0447 N   0  0  0  0  0  0  0  0  0  0  0  0
    7.3012   -2.5589   22.6613 C   0  0  0  0  0  0  0  0  0  0  0  0
    6.8758   -3.4223   23.1666 H   0  0  0  0  0  0  0  0  0  0  0  0
    6.5819   -1.8948   21.6663 C   0  0  0  0  0  0  0  0  0  0  0  0
    5.5877   -2.2189   21.3916 H   0  0  0  0  0  0  0  0  0  0  0  0
    7.1648   -0.8070   21.0170 C   0  0  0  0  0  0  0  0  0  0  0  0
    6.4772   -0.1500   19.8727 C   0  0  0  0  0  0  0  0  0  0  0  0
    7.0667   -0.1389   18.5962 C   0  0  0  0  0  0  0  0  0  0  0  0
    7.9917   -0.6899   18.4255 H   0  0  0  0  0  0  0  0  0  0  0  0
    6.5756    0.5227   17.5384 N   0  0  0  0  0  0  0  0  0  0  0  0
    5.4431    1.2171   17.7271 C   0  0  0  0  0  0  0  0  0  0  0  0
    5.0691    1.7676   16.8656 H   0  0  0  0  0  0  0  0  0  0  0  0
    4.7522    1.2480   18.9441 C   0  0  0  0  0  0  0  0  0  0  0  0
    3.8462    1.8364   19.0283 H   0  0  0  0  0  0  0  0  0  0  0  0
    5.2704    0.5405   20.0318 C   0  0  0  0  0  0  0  0  0  0  0  0
    4.7739    0.5467   21.0047 H   0  0  0  0  0  0  0  0  0  0  0  0
   11.5204    1.6735   21.6898 C   0  0  0  0  0  0  0  0  0  0  0  0
   11.6122    1.3489   21.4982 C   0  0  0  0  0  0  0  0  0  0  0  0
   12.1943    2.1252   20.7908 H   0  0  0  0  0  0  0  0  0  0  0  0
   12.5020    1.2621   22.2383 H   0  0  0  0  0  0  0  0  0  0  0  0
   11.7664    0.0684   21.0803 H   0  0  0  0  0  0  0  0  0  0  0  0
   11.5409    1.8541   24.0518 N   0  0  0  0  0  0  0  0  0  0  0  0
   10.5084    2.4988   23.8881 N   0  0  0  0  0  0  0  0  0  0  0  0
   10.2119    3.1407   24.6918 H   0  0  0  0  0  0  0  0  0  0  0  0
  1  2  1  0
  2  3  1  0
  3  4  2  0
  3  5  1  0
  5  6  2  0
  6  7  1  0
  7  8  1  0
  7  9  1  0
  7 10  1  0
 10 11  2  0
 11 12  1  0
 11 13  1  0
 13 14  2  0
 14 15  1  0
 14 16  1  0
 16 17  1  0
 16 18  2  0
 18 19  1  0
 19 20  2  0
 20 21  1  0
 20 22  1  0
 22 23  2  0
 23 24  1  0
 23 25  1  0
 25 26  1  0
 25 27  2  0
 27 28  1  0
  6 29  1  0
 29 30  1  0
 30 31  1  0
 30 32  1  0
 30 33  1  0
 29 34  2  0
 34 35  1  0
 35 36  1  0
 35  5  1  0
 18 10  1  0
 27 19  1  0
M  END
>  <cnnaffinity>  (1) 
-4.98212

>  <filename>  (1) 
Cc1n[nH]c(C(=O)O)c1Cc1cnccc1-c1cccnc1

$$$$
