
     RDKit          3D

 28 30  0  0  0  0  0  0  0  0999 V2000
    4.9419    1.8172   17.0126 H   0  0  0  0  0  0  0  0  0  0  0  0
    5.4034    1.2902   17.8464 C   0  0  0  0  0  0  0  0  0  0  0  0
    6.5620    0.6678   17.5781 N   0  0  0  0  0  0  0  0  0  0  0  0
    7.1713    0.0266   18.5873 C   0  0  0  0  0  0  0  0  0  0  0  0
    8.1211   -0.4410   18.3343 H   0  0  0  0  0  0  0  0  0  0  0  0
    6.6691   -0.0615   19.9163 C   0  0  0  0  0  0  0  0  0  0  0  0
    7.3406   -0.7388   20.9565 N   0  0  0  0  0  0  0  0  0  0  0  0
    6.8290   -1.3051   21.6295 H   0  0  0  0  0  0  0  0  0  0  0  0
    8.7221   -0.7335   21.1374 C   0  0  0  0  0  0  0  0  0  0  0  0
    9.7102    0.1892   20.7124 C   0  0  0  0  0  0  0  0  0  0  0  0
    9.5842    1.0816   20.1121 H   0  0  0  0  0  0  0  0  0  0  0  0
   10.9200   -0.1802   21.1177 N   0  0  0  0  0  0  0  0  0  0  0  0
   10.7398   -1.3164   21.7904 N   0  0  0  0  0  0  0  0  0  0  0  0
   11.5713   -1.7667   22.1680 H   0  0  0  0  0  0  0  0  0  0  0  0
    9.4257   -1.6911   21.8471 C   0  0  0  0  0  0  0  0  0  0  0  0
    8.8678   -2.8596   22.4968 C   0  0  0  0  0  0  0  0  0  0  0  0
    7.6411   -3.2723   22.4922 N   0  0  0  0  0  0  0  0  0  0  0  0
    7.6225   -4.4415   23.2494 N   0  0  0  0  0  0  0  0  0  0  0  0
    8.8334   -4.6334   23.6603 C   0  0  0  0  0  0  0  0  0  0  0  0
    9.3267   -5.7316   24.5341 C   0  0  0  0  0  0  0  0  0  0  0  0
   10.2593   -5.4560   25.0316 H   0  0  0  0  0  0  0  0  0  0  0  0
    8.5565   -5.9497   25.2764 H   0  0  0  0  0  0  0  0  0  0  0  0
    9.4913   -6.6527   23.9651 H   0  0  0  0  0  0  0  0  0  0  0  0
    9.6822   -3.6758   23.2199 O   0  0  0  0  0  0  0  0  0  0  0  0
    5.4550    0.5991   20.1626 C   0  0  0  0  0  0  0  0  0  0  0  0
    5.0485    0.5969   21.1737 H   0  0  0  0  0  0  0  0  0  0  0  0
    4.8148    1.2844   19.1163 C   0  0  0  0  0  0  0  0  0  0  0  0
    3.8840    1.8260   19.2734 H   0  0  0  0  0  0  0  0  0  0  0  0
  1  2  1  0
  2  3  2  0
  3  4  1  0
  4  5  1  0
  4  6  2  0
  6  7  1  0
  7  8  1  0
  7  9  1  0
  9 10  1  0
 10 11  1  0
 10 12  2  0
 12 13  1  0
 13 14  1  0
 13 15  1  0
 15 16  1  0
 16 17  2  0
 17 18  1  0
 18 19  2  0
 19 20  1  0
 20 21  1  0
 20 22  1  0
 20 23  1  0
 19 24  1  0
  6 25  1  0
 25 26  1  0
 25 27  2  0
 27 28  1  0
 27  2  1  0
 15  9  2  0
 24 16  1  0
M  END
>  <cnnaffinity>  (1) 
-5.54927

>  <filename>  (1) 
Cc1nnc(-c2[nH]ncc2Nc2cccnc2)o1

$$$$
