
     RDKit          3D

 53 57  0  0  0  0  0  0  0  0999 V2000
    4.3412   -6.6759   26.3963 C   0  0  0  0  0  0  0  0  0  0  0  0
    3.5567   -5.4086   26.4489 C   0  0  0  0  0  0  0  0  0  0  0  0
    2.3259   -5.4106   26.9308 N   0  0  0  0  0  0  0  0  0  0  0  0
    1.8901   -4.1335   26.8599 N   0  0  0  0  0  0  0  0  0  0  0  0
    2.8133   -3.2955   26.3381 C   0  0  0  0  0  0  0  0  0  0  0  0
    2.7606   -1.9098   26.0976 C   0  0  0  0  0  0  0  0  0  0  0  0
    3.8642   -1.3586   25.4911 C   0  0  0  0  0  0  0  0  0  0  0  0
    5.0352   -2.1262   25.1509 C   0  0  0  0  0  0  0  0  0  0  0  0
    6.1005   -1.4814   24.3354 C   0  0  0  0  0  0  0  0  0  0  0  0
    6.5483   -1.9276   23.1647 N   0  0  0  0  0  0  0  0  0  0  0  0
    6.9840   -0.8000   22.5523 C   0  0  0  0  0  0  0  0  0  0  0  0
    7.4924   -0.8204   21.1373 C   0  0  0  0  0  0  0  0  0  0  0  0
    6.7115   -0.0705   20.0494 C   0  0  0  0  0  0  0  0  0  0  0  0
    5.4875    0.5767   20.2556 C   0  0  0  0  0  0  0  0  0  0  0  0
    4.8843    1.2368   19.1745 C   0  0  0  0  0  0  0  0  0  0  0  0
    5.5063    1.2152   17.9244 C   0  0  0  0  0  0  0  0  0  0  0  0
    6.6638    0.5741   17.6947 N   0  0  0  0  0  0  0  0  0  0  0  0
    7.2335   -0.0440   18.7347 C   0  0  0  0  0  0  0  0  0  0  0  0
    8.1655   -0.5603   18.5050 H   0  0  0  0  0  0  0  0  0  0  0  0
    5.0633    1.7188   17.0650 H   0  0  0  0  0  0  0  0  0  0  0  0
    3.9496    1.7718   19.2863 H   0  0  0  0  0  0  0  0  0  0  0  0
    5.0145    0.5675   21.2411 H   0  0  0  0  0  0  0  0  0  0  0  0
    8.5254   -0.4516   21.1686 H   0  0  0  0  0  0  0  0  0  0  0  0
    7.5398   -1.8793   20.8681 H   0  0  0  0  0  0  0  0  0  0  0  0
    6.9529    0.2848   23.3024 N   0  0  0  0  0  0  0  0  0  0  0  0
    6.4324   -0.1642   24.4738 N   0  0  0  0  0  0  0  0  0  0  0  0
    6.2632    0.7549   25.6140 C   0  0  0  0  0  0  0  0  0  0  0  0
    6.2658    0.0825   27.0022 C   0  0  0  0  0  0  0  0  0  0  0  0
    6.8372    1.1610   27.9372 C   0  0  0  0  0  0  0  0  0  0  0  0
    7.1726    2.2724   27.1278 O   0  0  0  0  0  0  0  0  0  0  0  0
    7.3402    1.8691   25.7646 C   0  0  0  0  0  0  0  0  0  0  0  0
    8.7666    1.3547   25.5641 C   0  0  0  0  0  0  0  0  0  0  0  0
    8.9599    1.1855   24.5028 H   0  0  0  0  0  0  0  0  0  0  0  0
    9.4667    2.0948   25.9616 H   0  0  0  0  0  0  0  0  0  0  0  0
    8.9211    0.4139   26.1044 H   0  0  0  0  0  0  0  0  0  0  0  0
    7.0553    3.1194   24.9402 C   0  0  0  0  0  0  0  0  0  0  0  0
    7.8157    3.8780   25.1596 H   0  0  0  0  0  0  0  0  0  0  0  0
    7.0706    2.9037   23.8674 H   0  0  0  0  0  0  0  0  0  0  0  0
    6.0773    3.5356   25.2099 H   0  0  0  0  0  0  0  0  0  0  0  0
    6.1031    1.5082   28.6703 H   0  0  0  0  0  0  0  0  0  0  0  0
    7.7204    0.8037   28.4905 H   0  0  0  0  0  0  0  0  0  0  0  0
    5.2666   -0.2397   27.3151 H   0  0  0  0  0  0  0  0  0  0  0  0
    6.9083   -0.8029   27.0015 H   0  0  0  0  0  0  0  0  0  0  0  0
    5.3154    1.2830   25.4637 H   0  0  0  0  0  0  0  0  0  0  0  0
    5.0840   -3.4837   25.4357 C   0  0  0  0  0  0  0  0  0  0  0  0
    3.9449   -4.0879   26.0331 C   0  0  0  0  0  0  0  0  0  0  0  0
    5.9841   -4.0446   25.1905 H   0  0  0  0  0  0  0  0  0  0  0  0
    3.8356   -0.2976   25.2621 H   0  0  0  0  0  0  0  0  0  0  0  0
    1.8926   -1.3223   26.3814 H   0  0  0  0  0  0  0  0  0  0  0  0
    0.9612   -3.8823   27.1498 H   0  0  0  0  0  0  0  0  0  0  0  0
    5.3164   -6.5436   26.8759 H   0  0  0  0  0  0  0  0  0  0  0  0
    3.7932   -7.4763   26.9045 H   0  0  0  0  0  0  0  0  0  0  0  0
    4.5244   -6.9718   25.3581 H   0  0  0  0  0  0  0  0  0  0  0  0
  1  2  1  0
  2  3  2  0
  3  4  1  0
  4  5  1  0
  5  6  2  0
  6  7  1  0
  7  8  2  0
  8  9  1  0
  9 10  2  0
 10 11  1  0
 11 12  1  0
 12 13  1  0
 13 14  2  0
 14 15  1  0
 15 16  2  0
 16 17  1  0
 17 18  2  0
 18 19  1  0
 16 20  1  0
 15 21  1  0
 14 22  1  0
 12 23  1  0
 12 24  1  0
 11 25  2  0
 25 26  1  0
 26 27  1  0
 27 28  1  0
 28 29  1  0
 29 30  1  0
 30 31  1  0
 31 32  1  0
 32 33  1  0
 32 34  1  0
 32 35  1  0
 31 36  1  0
 36 37  1  0
 36 38  1  0
 36 39  1  0
 29 40  1  0
 29 41  1  0
 28 42  1  0
 28 43  1  0
 27 44  1  0
  8 45  1  0
 45 46  2  0
 45 47  1  0
  7 48  1  0
  6 49  1  0
  4 50  1  0
  1 51  1  0
  1 52  1  0
  1 53  1  0
 46  2  1  0
 46  5  1  0
 26  9  1  0
 31 27  1  0
 18 13  1  0
M  END
>  <cnnaffinity>  (1) 
-5.79872

>  <filename>  (1) 
Cc1n[nH]c2ccc(-c3nc(Cc4cccnc4)nn3C3CCOC3(C)C)cc12

$$$$
