
     RDKit          3D

 50 54  0  0  0  0  0  0  0  0999 V2000
   14.4213    6.9619   22.1578 C   0  0  0  0  0  0  0  0  0  0  0  0
   13.7281    5.6551   22.3191 C   0  0  0  0  0  0  0  0  0  0  0  0
   12.4297    5.5671   22.3372 N   0  0  0  0  0  0  0  0  0  0  0  0
   12.1666    4.2211   22.4655 C   0  0  0  0  0  0  0  0  0  0  0  0
   10.9423    3.5617   22.4613 C   0  0  0  0  0  0  0  0  0  0  0  0
   10.9203    2.1665   22.4554 C   0  0  0  0  0  0  0  0  0  0  0  0
    9.6641    1.4990   22.3918 N   0  0  0  0  0  0  0  0  0  0  0  0
    9.3919    0.4819   21.5346 N   0  0  0  0  0  0  0  0  0  0  0  0
    8.1205    0.2301   21.7700 C   0  0  0  0  0  0  0  0  0  0  0  0
    7.3430   -0.7621   20.9459 C   0  0  0  0  0  0  0  0  0  0  0  0
    6.6084   -0.0776   19.8001 C   0  0  0  0  0  0  0  0  0  0  0  0
    5.4267    0.6244   20.0682 C   0  0  0  0  0  0  0  0  0  0  0  0
    4.8027    1.3142   19.0291 C   0  0  0  0  0  0  0  0  0  0  0  0
    5.4013    1.2999   17.7658 C   0  0  0  0  0  0  0  0  0  0  0  0
    6.5422    0.6490   17.4878 N   0  0  0  0  0  0  0  0  0  0  0  0
    7.1223   -0.0182   18.4945 C   0  0  0  0  0  0  0  0  0  0  0  0
    8.0551   -0.5348   18.2604 H   0  0  0  0  0  0  0  0  0  0  0  0
    4.9457    1.8349   16.9362 H   0  0  0  0  0  0  0  0  0  0  0  0
    3.8814    1.8655   19.1907 H   0  0  0  0  0  0  0  0  0  0  0  0
    5.0316    0.6417   21.0865 H   0  0  0  0  0  0  0  0  0  0  0  0
    6.6171   -1.2667   21.5952 H   0  0  0  0  0  0  0  0  0  0  0  0
    8.0397   -1.5197   20.5699 H   0  0  0  0  0  0  0  0  0  0  0  0
    7.5565    1.0021   22.7363 N   0  0  0  0  0  0  0  0  0  0  0  0
    8.5440    1.7948   23.1080 C   0  0  0  0  0  0  0  0  0  0  0  0
    8.4829    2.8423   24.1725 C   0  0  0  0  0  0  0  0  0  0  0  0
    7.6908    4.1216   23.8086 C   0  0  0  0  0  0  0  0  0  0  0  0
    6.2695    3.7549   24.2258 C   0  0  0  0  0  0  0  0  0  0  0  0
    6.4013    2.8470   25.3098 O   0  0  0  0  0  0  0  0  0  0  0  0
    7.7203    2.3398   25.4178 C   0  0  0  0  0  0  0  0  0  0  0  0
    8.3954    2.8267   26.6885 C   0  0  0  0  0  0  0  0  0  0  0  0
    8.4120    3.9210   26.7407 H   0  0  0  0  0  0  0  0  0  0  0  0
    7.9111    2.4415   27.5886 H   0  0  0  0  0  0  0  0  0  0  0  0
    9.4248    2.4618   26.6568 H   0  0  0  0  0  0  0  0  0  0  0  0
    7.6612    1.2429   25.4499 H   0  0  0  0  0  0  0  0  0  0  0  0
    5.7351    3.2686   23.3966 H   0  0  0  0  0  0  0  0  0  0  0  0
    5.6757    4.6119   24.5661 H   0  0  0  0  0  0  0  0  0  0  0  0
    8.0686    4.9639   24.4055 H   0  0  0  0  0  0  0  0  0  0  0  0
    7.7647    4.4099   22.7525 H   0  0  0  0  0  0  0  0  0  0  0  0
    9.5137    3.0798   24.4369 H   0  0  0  0  0  0  0  0  0  0  0  0
   12.1256    1.4312   22.5453 C   0  0  0  0  0  0  0  0  0  0  0  0
   13.3538    2.0835   22.6607 C   0  0  0  0  0  0  0  0  0  0  0  0
   13.3535    3.4826   22.5693 C   0  0  0  0  0  0  0  0  0  0  0  0
   14.3554    4.4386   22.4728 N   0  0  0  0  0  0  0  0  0  0  0  0
   15.2970    4.2355   22.1895 H   0  0  0  0  0  0  0  0  0  0  0  0
   14.2888    1.5327   22.7502 H   0  0  0  0  0  0  0  0  0  0  0  0
   12.0882    0.3475   22.4925 H   0  0  0  0  0  0  0  0  0  0  0  0
   10.0508    4.1632   22.3923 H   0  0  0  0  0  0  0  0  0  0  0  0
   14.1176    7.4382   21.2219 H   0  0  0  0  0  0  0  0  0  0  0  0
   15.5005    6.8564   22.1955 H   0  0  0  0  0  0  0  0  0  0  0  0
   14.1013    7.6266   22.9613 H   0  0  0  0  0  0  0  0  0  0  0  0
  1  2  1  0
  2  3  2  0
  3  4  1  0
  4  5  2  0
  5  6  1  0
  6  7  1  0
  7  8  1  0
  8  9  2  0
  9 10  1  0
 10 11  1  0
 11 12  2  0
 12 13  1  0
 13 14  2  0
 14 15  1  0
 15 16  2  0
 16 17  1  0
 14 18  1  0
 13 19  1  0
 12 20  1  0
 10 21  1  0
 10 22  1  0
  9 23  1  0
 23 24  2  0
 24 25  1  0
 25 26  1  0
 26 27  1  0
 27 28  1  0
 28 29  1  0
 29 30  1  0
 30 31  1  0
 30 32  1  0
 30 33  1  0
 29 34  1  0
 27 35  1  0
 27 36  1  0
 26 37  1  0
 26 38  1  0
 25 39  1  0
  6 40  2  0
 40 41  1  0
 41 42  2  0
 42 43  1  0
 43 44  1  0
 41 45  1  0
 40 46  1  0
  5 47  1  0
  1 48  1  0
  1 49  1  0
  1 50  1  0
 43  2  1  0
 42  4  1  0
 24  7  1  0
 29 25  1  0
 16 11  1  0
M  END
>  <cnnaffinity>  (1) 
-6.24647

>  <filename>  (1) 
Cc1nc2cc(-n3nc(Cc4cccnc4)nc3C3CCOC3C)ccc2[nH]1

$$$$
