
     RDKit          3D

 32 33  0  0  0  0  0  0  0  0999 V2000
    4.9731    1.7748   17.0058 H   0  0  0  0  0  0  0  0  0  0  0  0
    5.4123    1.2700   17.8654 C   0  0  0  0  0  0  0  0  0  0  0  0
    6.5725    0.6398   17.6367 N   0  0  0  0  0  0  0  0  0  0  0  0
    7.1550    0.0164   18.6662 C   0  0  0  0  0  0  0  0  0  0  0  0
    8.1221   -0.4354   18.4541 H   0  0  0  0  0  0  0  0  0  0  0  0
    6.6071   -0.0493   19.9512 C   0  0  0  0  0  0  0  0  0  0  0  0
    7.4443   -0.7315   20.9802 C   0  0  0  0  0  0  0  0  0  0  0  0
    8.6640   -0.7831   20.8898 O   0  0  0  0  0  0  0  0  0  0  0  0
    6.7326   -1.2953   21.9993 N   0  0  0  0  0  0  0  0  0  0  0  0
    5.7368   -1.3292   21.8523 H   0  0  0  0  0  0  0  0  0  0  0  0
    7.3032   -1.7947   23.2722 C   0  0  0  0  0  0  0  0  0  0  0  0
    6.1692   -2.3249   24.1599 C   0  0  0  0  0  0  0  0  0  0  0  0
    5.4665   -3.3838   23.9367 N   0  0  0  0  0  0  0  0  0  0  0  0
    4.5728   -3.5013   24.9923 N   0  0  0  0  0  0  0  0  0  0  0  0
    4.7987   -2.4992   25.7734 C   0  0  0  0  0  0  0  0  0  0  0  0
    4.0811   -2.1391   27.0263 C   0  0  0  0  0  0  0  0  0  0  0  0
    4.6967   -1.5113   27.6726 H   0  0  0  0  0  0  0  0  0  0  0  0
    3.7970   -3.0530   27.5509 H   0  0  0  0  0  0  0  0  0  0  0  0
    3.1591   -1.5978   26.7883 H   0  0  0  0  0  0  0  0  0  0  0  0
    5.7959   -1.7070   25.3206 O   0  0  0  0  0  0  0  0  0  0  0  0
    8.2651   -2.9632   22.9667 C   0  0  0  0  0  0  0  0  0  0  0  0
    9.1112   -2.5953   22.3833 H   0  0  0  0  0  0  0  0  0  0  0  0
    7.7402   -3.7276   22.3871 H   0  0  0  0  0  0  0  0  0  0  0  0
    8.6189   -3.4104   23.9029 H   0  0  0  0  0  0  0  0  0  0  0  0
    8.0736   -0.6590   23.9681 C   0  0  0  0  0  0  0  0  0  0  0  0
    7.4224    0.2053   24.1245 H   0  0  0  0  0  0  0  0  0  0  0  0
    8.4672   -0.9984   24.9310 H   0  0  0  0  0  0  0  0  0  0  0  0
    8.9008   -0.3534   23.3222 H   0  0  0  0  0  0  0  0  0  0  0  0
    5.3926    0.6221   20.1842 C   0  0  0  0  0  0  0  0  0  0  0  0
    4.9411    0.6861   21.1785 H   0  0  0  0  0  0  0  0  0  0  0  0
    4.7922    1.2951   19.1194 C   0  0  0  0  0  0  0  0  0  0  0  0
    3.8689    1.8528   19.2391 H   0  0  0  0  0  0  0  0  0  0  0  0
  1  2  1  0
  2  3  2  0
  3  4  1  0
  4  5  1  0
  4  6  2  0
  6  7  1  0
  7  8  2  0
  7  9  1  0
  9 10  1  0
  9 11  1  0
 11 12  1  0
 12 13  2  0
 13 14  1  0
 14 15  2  0
 15 16  1  0
 16 17  1  0
 16 18  1  0
 16 19  1  0
 15 20  1  0
 11 21  1  0
 21 22  1  0
 21 23  1  0
 21 24  1  0
 11 25  1  0
 25 26  1  0
 25 27  1  0
 25 28  1  0
  6 29  1  0
 29 30  1  0
 29 31  2  0
 31 32  1  0
 31  2  1  0
 20 12  1  0
M  END
>  <cnnaffinity>  (1) 
-4.70842

>  <filename>  (1) 
Cc1nnc(C(C)(C)NC(=O)c2cccnc2)o1

$$$$
