
     RDKit          3D

 36 38  0  0  0  0  0  0  0  0999 V2000
    8.1546   -4.6661   27.3981 C   0  0  0  0  0  0  0  0  0  0  0  0
    6.8802   -3.8732   27.4052 C   0  0  0  0  0  0  0  0  0  0  0  0
    5.7573   -4.5648   27.6308 N   0  0  0  0  0  0  0  0  0  0  0  0
    4.6104   -3.9057   27.6415 C   0  0  0  0  0  0  0  0  0  0  0  0
    3.1777   -4.8536   27.9051 Cl  0  0  0  0  0  0  0  0  0  0  0  0
    4.4799   -2.5337   27.4443 C   0  0  0  0  0  0  0  0  0  0  0  0
    5.6521   -1.8114   27.2174 C   0  0  0  0  0  0  0  0  0  0  0  0
    6.8835   -2.4723   27.1853 C   0  0  0  0  0  0  0  0  0  0  0  0
    8.1544   -1.6885   26.8641 C   0  0  0  0  0  0  0  0  0  0  0  0
    8.5594   -1.7388   25.3952 C   0  0  0  0  0  0  0  0  0  0  0  0
    9.5100   -2.3865   25.0059 O   0  0  0  0  0  0  0  0  0  0  0  0
    7.7853   -1.0423   24.5059 N   0  0  0  0  0  0  0  0  0  0  0  0
    7.8880   -1.1611   23.1413 C   0  0  0  0  0  0  0  0  0  0  0  0
    7.1160   -0.4263   22.4078 N   0  0  0  0  0  0  0  0  0  0  0  0
    7.3848   -0.6641   21.0749 C   0  0  0  0  0  0  0  0  0  0  0  0
    6.6437    0.0296   20.0146 C   0  0  0  0  0  0  0  0  0  0  0  0
    5.4113    0.6780   20.2232 C   0  0  0  0  0  0  0  0  0  0  0  0
    4.8026    1.3009   19.1360 C   0  0  0  0  0  0  0  0  0  0  0  0
    5.4357    1.2598   17.8881 C   0  0  0  0  0  0  0  0  0  0  0  0
    6.5994    0.6334   17.6690 N   0  0  0  0  0  0  0  0  0  0  0  0
    7.1779    0.0430   18.7138 C   0  0  0  0  0  0  0  0  0  0  0  0
    8.1291   -0.4372   18.4859 H   0  0  0  0  0  0  0  0  0  0  0  0
    4.9944    1.7511   17.0272 H   0  0  0  0  0  0  0  0  0  0  0  0
    3.8628    1.8313   19.2407 H   0  0  0  0  0  0  0  0  0  0  0  0
    4.9502    0.6921   21.2137 H   0  0  0  0  0  0  0  0  0  0  0  0
    8.3577   -1.5878   20.8360 C   0  0  0  0  0  0  0  0  0  0  0  0
    8.9584   -2.2412   22.3135 S   0  0  0  0  0  0  0  0  0  0  0  0
    8.7634   -1.8774   19.8867 H   0  0  0  0  0  0  0  0  0  0  0  0
    7.0123   -0.4622   24.7676 H   0  0  0  0  0  0  0  0  0  0  0  0
    8.0139   -0.6372   27.1274 H   0  0  0  0  0  0  0  0  0  0  0  0
    9.0350   -2.0561   27.4035 H   0  0  0  0  0  0  0  0  0  0  0  0
    5.6150   -0.7273   27.0898 H   0  0  0  0  0  0  0  0  0  0  0  0
    3.4988   -2.0781   27.4690 H   0  0  0  0  0  0  0  0  0  0  0  0
    8.7020   -4.5259   26.4626 H   0  0  0  0  0  0  0  0  0  0  0  0
    7.9243   -5.7215   27.5264 H   0  0  0  0  0  0  0  0  0  0  0  0
    8.8226   -4.3656   28.2078 H   0  0  0  0  0  0  0  0  0  0  0  0
  1  2  1  0
  2  3  2  0
  3  4  1  0
  4  5  1  0
  4  6  2  0
  6  7  1  0
  7  8  2  0
  8  9  1  0
  9 10  1  0
 10 11  2  0
 10 12  1  0
 12 13  1  0
 13 14  2  0
 14 15  1  0
 15 16  1  0
 16 17  2  0
 17 18  1  0
 18 19  2  0
 19 20  1  0
 20 21  2  0
 21 22  1  0
 19 23  1  0
 18 24  1  0
 17 25  1  0
 15 26  2  0
 26 27  1  0
 26 28  1  0
 12 29  1  0
  9 30  1  0
  9 31  1  0
  7 32  1  0
  6 33  1  0
  1 34  1  0
  1 35  1  0
  1 36  1  0
  8  2  1  0
 27 13  1  0
 21 16  1  0
M  END
>  <cnnaffinity>  (1) 
-5.37698

>  <filename>  (1) 
Cc1nc(Cl)ccc1CC(=O)Nc1nc(-c2cccnc2)cs1

$$$$
