
     RDKit          3D

 50 54  0  0  0  0  0  0  0  0999 V2000
   13.9886    6.0771   21.7704 C   0  0  0  0  0  0  0  0  0  0  0  0
   12.5726    5.4757   22.0485 C   0  0  0  0  0  0  0  0  0  0  0  0
   11.4522    5.9202   21.8568 N   0  0  0  0  0  0  0  0  0  0  0  0
   11.4797    3.8997   23.5583 N   0  0  0  0  0  0  0  0  0  0  0  0
   11.2765    3.2671   22.3869 C   0  0  0  0  0  0  0  0  0  0  0  0
   11.2909    1.7954   22.4156 C   0  0  0  0  0  0  0  0  0  0  0  0
    9.9609    1.1996   22.3560 C   0  0  0  0  0  0  0  0  0  0  0  0
    9.5875    0.2047   21.5654 N   0  0  0  0  0  0  0  0  0  0  0  0
    8.2407    0.1751   21.7278 C   0  0  0  0  0  0  0  0  0  0  0  0
    7.3305   -0.7403   20.9572 C   0  0  0  0  0  0  0  0  0  0  0  0
    6.5842   -0.0644   19.8063 C   0  0  0  0  0  0  0  0  0  0  0  0
    5.3885    0.6274   20.0426 C   0  0  0  0  0  0  0  0  0  0  0  0
    4.7897    1.3283   18.9920 C   0  0  0  0  0  0  0  0  0  0  0  0
    5.4052    1.3110   17.7381 C   0  0  0  0  0  0  0  0  0  0  0  0
    6.5335    0.6308   17.4781 N   0  0  0  0  0  0  0  0  0  0  0  0
    7.0939   -0.0361   18.4944 C   0  0  0  0  0  0  0  0  0  0  0  0
    8.0041   -0.5879   18.2532 H   0  0  0  0  0  0  0  0  0  0  0  0
    4.9744    1.8618   16.9030 H   0  0  0  0  0  0  0  0  0  0  0  0
    3.8715    1.8896   19.1330 H   0  0  0  0  0  0  0  0  0  0  0  0
    4.9344    0.6084   21.0355 H   0  0  0  0  0  0  0  0  0  0  0  0
    7.9501   -1.5633   20.5916 H   0  0  0  0  0  0  0  0  0  0  0  0
    6.6145   -1.1576   21.6754 H   0  0  0  0  0  0  0  0  0  0  0  0
    7.7687    1.0387   22.6044 N   0  0  0  0  0  0  0  0  0  0  0  0
    8.8719    1.7121   23.0111 N   0  0  0  0  0  0  0  0  0  0  0  0
    8.7915    2.6125   24.1824 C   0  0  0  0  0  0  0  0  0  0  0  0
    8.8055    1.8118   25.5122 C   0  0  0  0  0  0  0  0  0  0  0  0
    8.0016    2.5225   26.6143 C   0  0  0  0  0  0  0  0  0  0  0  0
    8.1426    3.9263   26.5185 O   0  0  0  0  0  0  0  0  0  0  0  0
    7.6289    4.5210   25.3279 C   0  0  0  0  0  0  0  0  0  0  0  0
    7.5973    3.5771   24.1081 C   0  0  0  0  0  0  0  0  0  0  0  0
    7.6302    4.1744   23.1909 H   0  0  0  0  0  0  0  0  0  0  0  0
    6.6610    3.0053   24.0809 H   0  0  0  0  0  0  0  0  0  0  0  0
    6.6225    4.9293   25.5166 H   0  0  0  0  0  0  0  0  0  0  0  0
    8.3021    5.3704   25.1430 H   0  0  0  0  0  0  0  0  0  0  0  0
    6.9375    2.2356   26.5850 H   0  0  0  0  0  0  0  0  0  0  0  0
    8.3851    2.2465   27.5998 H   0  0  0  0  0  0  0  0  0  0  0  0
    9.8487    1.7306   25.8392 H   0  0  0  0  0  0  0  0  0  0  0  0
    8.4145    0.8020   25.3533 H   0  0  0  0  0  0  0  0  0  0  0  0
    9.6772    3.2325   24.1937 H   0  0  0  0  0  0  0  0  0  0  0  0
   12.4801    1.1171   22.5792 C   0  0  0  0  0  0  0  0  0  0  0  0
   13.7101    1.8297   22.7717 C   0  0  0  0  0  0  0  0  0  0  0  0
   13.8256    3.2081   22.7606 C   0  0  0  0  0  0  0  0  0  0  0  0
   12.5877    4.0224   22.7121 C   0  0  0  0  0  0  0  0  0  0  0  0
   14.7946    3.6893   22.7966 H   0  0  0  0  0  0  0  0  0  0  0  0
   14.6262    1.2467   22.8382 H   0  0  0  0  0  0  0  0  0  0  0  0
   12.4873    0.0289   22.5644 H   0  0  0  0  0  0  0  0  0  0  0  0
   10.6153    3.7114   21.6254 H   0  0  0  0  0  0  0  0  0  0  0  0
   14.5189    5.4404   21.0565 H   0  0  0  0  0  0  0  0  0  0  0  0
   13.9480    7.0994   21.3815 H   0  0  0  0  0  0  0  0  0  0  0  0
   14.5554    6.0864   22.7020 H   0  0  0  0  0  0  0  0  0  0  0  0
  1  2  1  0
  2  3  2  0
  3  4  1  0
  4  5  1  0
  5  6  2  0
  6  7  1  0
  7  8  2  0
  8  9  1  0
  9 10  1  0
 10 11  1  0
 11 12  2  0
 12 13  1  0
 13 14  2  0
 14 15  1  0
 15 16  2  0
 16 17  1  0
 14 18  1  0
 13 19  1  0
 12 20  1  0
 10 21  1  0
 10 22  1  0
  9 23  2  0
 23 24  1  0
 24 25  1  0
 25 26  1  0
 26 27  1  0
 27 28  1  0
 28 29  1  0
 29 30  1  0
 30 31  1  0
 30 32  1  0
 29 33  1  0
 29 34  1  0
 27 35  1  0
 27 36  1  0
 26 37  1  0
 26 38  1  0
 25 39  1  0
  6 40  1  0
 40 41  2  0
 41 42  1  0
 42 43  2  0
 42 44  1  0
 41 45  1  0
 40 46  1  0
  4 47  1  0
  1 48  1  0
  1 49  1  0
  1 50  1  0
 43  2  1  0
 43  5  1  0
 24  7  1  0
 30 25  1  0
 16 11  1  0
M  END
>  <cnnaffinity>  (1) 
-6.36959

>  <filename>  (1) 
Cc1n[nH]c2c(-c3nc(Cc4cccnc4)nn3C3CCOCC3)cccc12

$$$$
