
     RDKit          3D

 51 53  0  0  0  0  0  0  0  0999 V2000
    9.0404    2.0687   23.3978 C   0  0  0  0  0  0  0  0  0  0  0  0
    7.7185    1.8092   24.0479 C   0  0  0  0  0  0  0  0  0  0  0  0
    6.6874    2.6233   23.8543 N   0  0  0  0  0  0  0  0  0  0  0  0
    5.6640    2.0623   24.5265 N   0  0  0  0  0  0  0  0  0  0  0  0
    4.3670    2.7010   24.5009 C   0  0  0  0  0  0  0  0  0  0  0  0
    4.0644    3.0117   25.5049 H   0  0  0  0  0  0  0  0  0  0  0  0
    3.6129    2.0255   24.0900 H   0  0  0  0  0  0  0  0  0  0  0  0
    4.4481    3.5786   23.8604 H   0  0  0  0  0  0  0  0  0  0  0  0
    6.0220    0.9094   25.1532 C   0  0  0  0  0  0  0  0  0  0  0  0
    5.0504    0.0384   25.9006 C   0  0  0  0  0  0  0  0  0  0  0  0
    5.5856   -0.6148   26.5968 H   0  0  0  0  0  0  0  0  0  0  0  0
    4.4782   -0.6060   25.2193 H   0  0  0  0  0  0  0  0  0  0  0  0
    4.3234    0.6180   26.4815 H   0  0  0  0  0  0  0  0  0  0  0  0
    7.3641    0.7170   24.8778 C   0  0  0  0  0  0  0  0  0  0  0  0
    8.1679   -0.5132   25.1920 C   0  0  0  0  0  0  0  0  0  0  0  0
    7.7441   -1.7460   24.3430 C   0  0  0  0  0  0  0  0  0  0  0  0
    8.4702   -3.0062   24.8295 C   0  0  0  0  0  0  0  0  0  0  0  0
    9.5563   -2.8535   24.8838 H   0  0  0  0  0  0  0  0  0  0  0  0
    8.1365   -3.2541   25.8448 H   0  0  0  0  0  0  0  0  0  0  0  0
    8.2716   -3.8779   24.1947 H   0  0  0  0  0  0  0  0  0  0  0  0
    7.7981   -1.4682   22.8583 C   0  0  0  0  0  0  0  0  0  0  0  0
    6.8232   -0.8531   22.2082 N   0  0  0  0  0  0  0  0  0  0  0  0
    7.2971   -0.7361   20.9500 C   0  0  0  0  0  0  0  0  0  0  0  0
    6.6046   -0.0050   19.9011 C   0  0  0  0  0  0  0  0  0  0  0  0
    5.4037    0.6725   20.1424 C   0  0  0  0  0  0  0  0  0  0  0  0
    4.7962    1.3225   19.0756 C   0  0  0  0  0  0  0  0  0  0  0  0
    5.4238    1.2909   17.8237 C   0  0  0  0  0  0  0  0  0  0  0  0
    6.5898    0.6661   17.5922 N   0  0  0  0  0  0  0  0  0  0  0  0
    7.1727    0.0442   18.6202 C   0  0  0  0  0  0  0  0  0  0  0  0
    8.1350   -0.4302   18.4205 H   0  0  0  0  0  0  0  0  0  0  0  0
    4.9720    1.7934   16.9733 H   0  0  0  0  0  0  0  0  0  0  0  0
    3.8601    1.8552   19.2014 H   0  0  0  0  0  0  0  0  0  0  0  0
    4.9871    0.6877   21.1531 H   0  0  0  0  0  0  0  0  0  0  0  0
    8.4776   -1.2874   20.7635 N   0  0  0  0  0  0  0  0  0  0  0  0
    8.8048   -1.7517   21.9921 N   0  0  0  0  0  0  0  0  0  0  0  0
   10.0806   -2.4397   22.1198 C   0  0  0  0  0  0  0  0  0  0  0  0
   11.2530   -1.6337   22.6714 C   0  0  0  0  0  0  0  0  0  0  0  0
   11.8988   -0.6206   21.7565 C   0  0  0  0  0  0  0  0  0  0  0  0
   11.0734    0.2790   21.1974 F   0  0  0  0  0  0  0  0  0  0  0  0
   12.8277    0.0783   22.4402 F   0  0  0  0  0  0  0  0  0  0  0  0
   12.5414   -1.2702   20.7632 F   0  0  0  0  0  0  0  0  0  0  0  0
   12.0695   -2.3452   22.8549 H   0  0  0  0  0  0  0  0  0  0  0  0
   11.0051   -1.1447   23.6128 H   0  0  0  0  0  0  0  0  0  0  0  0
    9.9411   -3.3371   22.7234 H   0  0  0  0  0  0  0  0  0  0  0  0
   10.2974   -2.7758   21.1098 H   0  0  0  0  0  0  0  0  0  0  0  0
    6.6700   -1.8841   24.5053 H   0  0  0  0  0  0  0  0  0  0  0  0
    8.0415   -0.7774   26.2511 H   0  0  0  0  0  0  0  0  0  0  0  0
    9.2437   -0.3225   25.0575 H   0  0  0  0  0  0  0  0  0  0  0  0
    9.0748    3.0753   22.9740 H   0  0  0  0  0  0  0  0  0  0  0  0
    9.2271    1.3593   22.5861 H   0  0  0  0  0  0  0  0  0  0  0  0
    9.8552    1.9682   24.1231 H   0  0  0  0  0  0  0  0  0  0  0  0
  1  2  1  0
  2  3  2  0
  3  4  1  0
  4  5  1  0
  5  6  1  0
  5  7  1  0
  5  8  1  0
  4  9  1  0
  9 10  1  0
 10 11  1  0
 10 12  1  0
 10 13  1  0
  9 14  2  0
 14 15  1  0
 15 16  1  0
 16 17  1  0
 17 18  1  0
 17 19  1  0
 17 20  1  0
 16 21  1  0
 21 22  2  0
 22 23  1  0
 23 24  1  0
 24 25  2  0
 25 26  1  0
 26 27  2  0
 27 28  1  0
 28 29  2  0
 29 30  1  0
 27 31  1  0
 26 32  1  0
 25 33  1  0
 23 34  2  0
 34 35  1  0
 35 36  1  0
 36 37  1  0
 37 38  1  0
 38 39  1  0
 38 40  1  0
 38 41  1  0
 37 42  1  0
 37 43  1  0
 36 44  1  0
 36 45  1  0
 16 46  1  0
 15 47  1  0
 15 48  1  0
  1 49  1  0
  1 50  1  0
  1 51  1  0
 14  2  1  0
 35 21  1  0
 29 24  1  0
M  END
>  <cnnaffinity>  (1) 
-6.60153

>  <filename>  (1) 
Cc1nn(C)c(C)c1CC(C)c1nc(-c2cccnc2)nn1CCC(F)(F)F

$$$$
