
     RDKit          3D

 33 36  0  0  0  0  0  0  0  0999 V2000
   10.4328   -2.1117   22.0014 C   0  0  0  0  0  0  0  0  0  0  0  0
    9.0168   -1.6341   21.9539 C   0  0  0  0  0  0  0  0  0  0  0  0
    8.1930   -1.5585   23.0550 C   0  0  0  0  0  0  0  0  0  0  0  0
    8.3626   -2.1866   24.3636 C   0  0  0  0  0  0  0  0  0  0  0  0
    8.7720   -3.5298   24.5462 C   0  0  0  0  0  0  0  0  0  0  0  0
    8.8744   -4.0970   25.8191 C   0  0  0  0  0  0  0  0  0  0  0  0
    8.5609   -3.3502   26.9733 C   0  0  0  0  0  0  0  0  0  0  0  0
    8.1728   -2.0387   26.7858 C   0  0  0  0  0  0  0  0  0  0  0  0
    8.0673   -1.4670   25.5230 C   0  0  0  0  0  0  0  0  0  0  0  0
    7.6416   -0.1766   25.6279 O   0  0  0  0  0  0  0  0  0  0  0  0
    7.5637    0.0938   27.0284 C   0  0  0  0  0  0  0  0  0  0  0  0
    7.8189   -1.1170   27.7252 O   0  0  0  0  0  0  0  0  0  0  0  0
    8.3163    0.8476   27.3018 H   0  0  0  0  0  0  0  0  0  0  0  0
    6.5532    0.4460   27.2626 H   0  0  0  0  0  0  0  0  0  0  0  0
    8.6192   -3.7912   27.9615 H   0  0  0  0  0  0  0  0  0  0  0  0
    9.1974   -5.1271   25.9426 H   0  0  0  0  0  0  0  0  0  0  0  0
    8.9863   -4.1340   23.6704 H   0  0  0  0  0  0  0  0  0  0  0  0
    6.8138   -0.5760   22.6837 S   0  0  0  0  0  0  0  0  0  0  0  0
    7.3229   -0.5440   21.0247 C   0  0  0  0  0  0  0  0  0  0  0  0
    6.5744    0.1105   19.9386 C   0  0  0  0  0  0  0  0  0  0  0  0
    5.3393    0.7786   20.0739 C   0  0  0  0  0  0  0  0  0  0  0  0
    4.7849    1.3679   18.9364 C   0  0  0  0  0  0  0  0  0  0  0  0
    5.4665    1.2833   17.7180 C   0  0  0  0  0  0  0  0  0  0  0  0
    6.6384    0.6465   17.5713 N   0  0  0  0  0  0  0  0  0  0  0  0
    7.1640    0.0801   18.6604 C   0  0  0  0  0  0  0  0  0  0  0  0
    8.1053   -0.4464   18.5239 H   0  0  0  0  0  0  0  0  0  0  0  0
    5.0484    1.7352   16.8199 H   0  0  0  0  0  0  0  0  0  0  0  0
    3.8360    1.8913   18.9880 H   0  0  0  0  0  0  0  0  0  0  0  0
    4.8032    0.8496   21.0215 H   0  0  0  0  0  0  0  0  0  0  0  0
    8.4880   -1.1014   20.8120 N   0  0  0  0  0  0  0  0  0  0  0  0
   10.8864   -2.0572   21.0126 H   0  0  0  0  0  0  0  0  0  0  0  0
   10.4937   -3.1344   22.3757 H   0  0  0  0  0  0  0  0  0  0  0  0
   11.0151   -1.5049   22.7058 H   0  0  0  0  0  0  0  0  0  0  0  0
  1  2  1  0
  2  3  2  0
  3  4  1  0
  4  5  2  0
  5  6  1  0
  6  7  2  0
  7  8  1  0
  8  9  2  0
  9 10  1  0
 10 11  1  0
 11 12  1  0
 11 13  1  0
 11 14  1  0
  7 15  1  0
  6 16  1  0
  5 17  1  0
  3 18  1  0
 18 19  1  0
 19 20  1  0
 20 21  2  0
 21 22  1  0
 22 23  2  0
 23 24  1  0
 24 25  2  0
 25 26  1  0
 23 27  1  0
 22 28  1  0
 21 29  1  0
 19 30  2  0
  1 31  1  0
  1 32  1  0
  1 33  1  0
 30  2  1  0
  9  4  1  0
 25 20  1  0
 12  8  1  0
M  END
>  <cnnaffinity>  (1) 
-4.74822

>  <filename>  (1) 
Cc1nc(-c2cccnc2)sc1-c1cccc2c1OCO2

$$$$
