
     RDKit          3D

 29 31  0  0  0  0  0  0  0  0999 V2000
    9.5161   -0.3044   20.5250 H   0  0  0  0  0  0  0  0  0  0  0  0
    8.7793   -0.7941   21.1432 C   0  0  0  0  0  0  0  0  0  0  0  0
    7.4506   -0.8015   20.9372 C   0  0  0  0  0  0  0  0  0  0  0  0
    6.6943   -0.0548   19.8931 C   0  0  0  0  0  0  0  0  0  0  0  0
    7.2056    0.0579   18.5808 C   0  0  0  0  0  0  0  0  0  0  0  0
    8.1557   -0.4201   18.3424 H   0  0  0  0  0  0  0  0  0  0  0  0
    6.5963    0.6948   17.5740 N   0  0  0  0  0  0  0  0  0  0  0  0
    5.4262    1.2936   17.8518 C   0  0  0  0  0  0  0  0  0  0  0  0
    4.9378    1.7936   17.0179 H   0  0  0  0  0  0  0  0  0  0  0  0
    4.8339    1.2842   19.1177 C   0  0  0  0  0  0  0  0  0  0  0  0
    3.8921    1.8064   19.2659 H   0  0  0  0  0  0  0  0  0  0  0  0
    5.4707    0.5941   20.1557 C   0  0  0  0  0  0  0  0  0  0  0  0
    5.0351    0.5765   21.1554 H   0  0  0  0  0  0  0  0  0  0  0  0
    6.8622   -1.7342   21.9632 C   0  0  0  0  0  0  0  0  0  0  0  0
    5.7752   -2.2688   21.9854 O   0  0  0  0  0  0  0  0  0  0  0  0
    7.8770   -1.9657   22.8846 N   0  0  0  0  0  0  0  0  0  0  0  0
    7.6849   -2.6966   24.0384 C   0  0  0  0  0  0  0  0  0  0  0  0
    8.7806   -3.2695   24.6294 N   0  0  0  0  0  0  0  0  0  0  0  0
    8.4182   -3.8917   25.7042 C   0  0  0  0  0  0  0  0  0  0  0  0
    9.3626   -4.6219   26.5988 C   0  0  0  0  0  0  0  0  0  0  0  0
   10.2339   -4.9452   26.0285 H   0  0  0  0  0  0  0  0  0  0  0  0
    8.8830   -5.4864   27.0589 H   0  0  0  0  0  0  0  0  0  0  0  0
    9.7058   -3.9489   27.3896 H   0  0  0  0  0  0  0  0  0  0  0  0
    6.7172   -3.7970   26.0851 S   0  0  0  0  0  0  0  0  0  0  0  0
    6.4869   -2.8611   24.6679 C   0  0  0  0  0  0  0  0  0  0  0  0
    5.5440   -2.4748   24.3212 H   0  0  0  0  0  0  0  0  0  0  0  0
    9.1717   -1.5704   22.3573 C   0  0  0  0  0  0  0  0  0  0  0  0
    9.7817   -2.4416   22.0767 H   0  0  0  0  0  0  0  0  0  0  0  0
    9.7641   -0.9852   23.0738 H   0  0  0  0  0  0  0  0  0  0  0  0
  1  2  1  0
  2  3  2  0
  3  4  1  0
  4  5  2  0
  5  6  1  0
  5  7  1  0
  7  8  2  0
  8  9  1  0
  8 10  1  0
 10 11  1  0
 10 12  2  0
 12 13  1  0
  3 14  1  0
 14 15  2  0
 14 16  1  0
 16 17  1  0
 17 18  1  0
 18 19  2  0
 19 20  1  0
 20 21  1  0
 20 22  1  0
 20 23  1  0
 19 24  1  0
 24 25  1  0
 25 26  1  0
 16 27  1  0
 27 28  1  0
 27 29  1  0
 27  2  1  0
 12  4  1  0
 25 17  2  0
M  END
>  <cnnaffinity>  (1) 
-4.73957

>  <filename>  (1) 
Cc1nc(N2CC=C(c3cccnc3)C2=O)cs1

$$$$
