
     RDKit          3D

 32 33  0  0  0  0  0  0  0  0999 V2000
    9.9852    2.6757   22.9441 C   0  0  0  0  0  0  0  0  0  0  0  0
    9.7279    1.9640   24.2321 C   0  0  0  0  0  0  0  0  0  0  0  0
   10.6920    1.7563   25.0943 N   0  0  0  0  0  0  0  0  0  0  0  0
   10.1049    1.0879   26.1573 O   0  0  0  0  0  0  0  0  0  0  0  0
    8.8006    0.9192   25.9161 C   0  0  0  0  0  0  0  0  0  0  0  0
    7.9276    0.2507   26.9236 C   0  0  0  0  0  0  0  0  0  0  0  0
    7.0877    0.9065   27.1802 H   0  0  0  0  0  0  0  0  0  0  0  0
    7.4917   -0.6529   26.4826 H   0  0  0  0  0  0  0  0  0  0  0  0
    8.4707   -0.0131   27.8317 H   0  0  0  0  0  0  0  0  0  0  0  0
    8.4848    1.4416   24.7044 C   0  0  0  0  0  0  0  0  0  0  0  0
    7.1557    1.4994   24.0202 C   0  0  0  0  0  0  0  0  0  0  0  0
    7.2025    1.0007   22.6583 N   0  0  0  0  0  0  0  0  0  0  0  0
    7.4155   -0.2789   22.3335 C   0  0  0  0  0  0  0  0  0  0  0  0
    7.7100   -1.5238   23.3927 S   0  0  0  0  0  0  0  0  0  0  0  0
    7.4548   -0.5341   20.9783 N   0  0  0  0  0  0  0  0  0  0  0  0
    6.6913    0.0608   19.9210 C   0  0  0  0  0  0  0  0  0  0  0  0
    5.4452    0.6686   20.1508 C   0  0  0  0  0  0  0  0  0  0  0  0
    4.7971    1.3096   19.0854 C   0  0  0  0  0  0  0  0  0  0  0  0
    5.3898    1.2972   17.8202 C   0  0  0  0  0  0  0  0  0  0  0  0
    6.5513    0.6691   17.5692 N   0  0  0  0  0  0  0  0  0  0  0  0
    7.1727    0.0674   18.5908 C   0  0  0  0  0  0  0  0  0  0  0  0
    8.1158   -0.4257   18.3626 H   0  0  0  0  0  0  0  0  0  0  0  0
    4.9209    1.8004   16.9770 H   0  0  0  0  0  0  0  0  0  0  0  0
    3.8652    1.8435   19.2390 H   0  0  0  0  0  0  0  0  0  0  0  0
    5.0051    0.6328   21.1451 H   0  0  0  0  0  0  0  0  0  0  0  0
    7.7844   -1.4836   20.8778 H   0  0  0  0  0  0  0  0  0  0  0  0
    7.2350    1.6246   21.8693 H   0  0  0  0  0  0  0  0  0  0  0  0
    6.7740    2.5279   23.9691 H   0  0  0  0  0  0  0  0  0  0  0  0
    6.4222    0.9001   24.5803 H   0  0  0  0  0  0  0  0  0  0  0  0
   10.9532    3.1822   22.9658 H   0  0  0  0  0  0  0  0  0  0  0  0
    9.1976    3.4140   22.7562 H   0  0  0  0  0  0  0  0  0  0  0  0
    9.9810    1.9565   22.1177 H   0  0  0  0  0  0  0  0  0  0  0  0
  1  2  1  0
  2  3  2  0
  3  4  1  0
  4  5  1  0
  5  6  1  0
  6  7  1  0
  6  8  1  0
  6  9  1  0
  5 10  2  0
 10 11  1  0
 11 12  1  0
 12 13  1  0
 13 14  2  0
 13 15  1  0
 15 16  1  0
 16 17  2  0
 17 18  1  0
 18 19  2  0
 19 20  1  0
 20 21  2  0
 21 22  1  0
 19 23  1  0
 18 24  1  0
 17 25  1  0
 15 26  1  0
 12 27  1  0
 11 28  1  0
 11 29  1  0
  1 30  1  0
  1 31  1  0
  1 32  1  0
 10  2  1  0
 21 16  1  0
M  END
>  <cnnaffinity>  (1) 
-5.39592

>  <filename>  (1) 
Cc1noc(C)c1CNC(=S)Nc1cccnc1

$$$$
