
     RDKit          3D

 27 29  0  0  0  0  0  0  0  0999 V2000
    8.7990   -3.5946   22.2827 C   0  0  0  0  0  0  0  0  0  0  0  0
    8.1526   -2.3027   21.9647 C   0  0  0  0  0  0  0  0  0  0  0  0
    7.7262   -1.9756   20.7604 N   0  0  0  0  0  0  0  0  0  0  0  0
    7.3403   -0.6882   20.9300 N   0  0  0  0  0  0  0  0  0  0  0  0
    6.6433   -0.0013   19.9035 C   0  0  0  0  0  0  0  0  0  0  0  0
    5.4256    0.6396   20.1584 C   0  0  0  0  0  0  0  0  0  0  0  0
    4.8025    1.3007   19.0990 C   0  0  0  0  0  0  0  0  0  0  0  0
    5.4104    1.2885   17.8408 C   0  0  0  0  0  0  0  0  0  0  0  0
    6.5738    0.6621   17.5931 N   0  0  0  0  0  0  0  0  0  0  0  0
    7.1702    0.0265   18.6023 C   0  0  0  0  0  0  0  0  0  0  0  0
    8.1155   -0.4651   18.3821 H   0  0  0  0  0  0  0  0  0  0  0  0
    4.9538    1.7986   16.9968 H   0  0  0  0  0  0  0  0  0  0  0  0
    3.8724    1.8391   19.2419 H   0  0  0  0  0  0  0  0  0  0  0  0
    5.0031    0.6415   21.1645 H   0  0  0  0  0  0  0  0  0  0  0  0
    7.5998   -0.3115   22.2194 C   0  0  0  0  0  0  0  0  0  0  0  0
    7.4512    1.0295   22.7316 C   0  0  0  0  0  0  0  0  0  0  0  0
    7.3272    1.3242   24.0512 C   0  0  0  0  0  0  0  0  0  0  0  0
    7.2078    2.6596   24.2108 O   0  0  0  0  0  0  0  0  0  0  0  0
    7.2781    3.2132   22.9840 C   0  0  0  0  0  0  0  0  0  0  0  0
    7.1873    4.9071   22.9342 Cl  0  0  0  0  0  0  0  0  0  0  0  0
    7.4263    2.2850   22.0212 C   0  0  0  0  0  0  0  0  0  0  0  0
    7.4989    2.4666   20.9598 H   0  0  0  0  0  0  0  0  0  0  0  0
    7.2955    0.7433   24.9662 H   0  0  0  0  0  0  0  0  0  0  0  0
    8.0900   -1.3230   22.8977 N   0  0  0  0  0  0  0  0  0  0  0  0
    9.8738   -3.4158   22.1739 H   0  0  0  0  0  0  0  0  0  0  0  0
    8.4675   -4.3792   21.6004 H   0  0  0  0  0  0  0  0  0  0  0  0
    8.5972   -3.8658   23.3211 H   0  0  0  0  0  0  0  0  0  0  0  0
  1  2  1  0
  2  3  2  0
  3  4  1  0
  4  5  1  0
  5  6  2  0
  6  7  1  0
  7  8  2  0
  8  9  1  0
  9 10  2  0
 10 11  1  0
  8 12  1  0
  7 13  1  0
  6 14  1  0
  4 15  1  0
 15 16  1  0
 16 17  2  0
 17 18  1  0
 18 19  1  0
 19 20  1  0
 19 21  2  0
 21 22  1  0
 17 23  1  0
 15 24  2  0
  1 25  1  0
  1 26  1  0
  1 27  1  0
 24  2  1  0
 10  5  1  0
 21 16  1  0
M  END
>  <cnnaffinity>  (1) 
-4.61839

>  <filename>  (1) 
Cc1nc(-c2coc(Cl)c2)n(-c2cccnc2)n1

$$$$
