
     RDKit          3D

 51 56  0  0  0  0  0  0  0  0999 V2000
   14.5733    6.3169   21.6899 C   0  0  0  0  0  0  0  0  0  0  0  0
   13.7895    5.1451   22.1399 C   0  0  0  0  0  0  0  0  0  0  0  0
   12.4889    5.0897   22.0839 N   0  0  0  0  0  0  0  0  0  0  0  0
   12.1819    3.7783   22.3798 C   0  0  0  0  0  0  0  0  0  0  0  0
   10.9355    3.1646   22.4135 C   0  0  0  0  0  0  0  0  0  0  0  0
   10.8776    1.7859   22.6347 C   0  0  0  0  0  0  0  0  0  0  0  0
    9.5998    1.1444   22.6263 N   0  0  0  0  0  0  0  0  0  0  0  0
    9.2837    0.1541   21.7561 N   0  0  0  0  0  0  0  0  0  0  0  0
    7.9719    0.0782   21.8532 C   0  0  0  0  0  0  0  0  0  0  0  0
    7.1749   -0.8234   20.9411 C   0  0  0  0  0  0  0  0  0  0  0  0
    6.4991   -0.1164   19.7606 C   0  0  0  0  0  0  0  0  0  0  0  0
    5.3422    0.6474   19.9699 C   0  0  0  0  0  0  0  0  0  0  0  0
    4.7921    1.3611   18.9010 C   0  0  0  0  0  0  0  0  0  0  0  0
    5.4166    1.2857   17.6534 C   0  0  0  0  0  0  0  0  0  0  0  0
    6.5065    0.5381   17.4168 N   0  0  0  0  0  0  0  0  0  0  0  0
    7.0206   -0.1409   18.4512 C   0  0  0  0  0  0  0  0  0  0  0  0
    7.9093   -0.7347   18.2316 H   0  0  0  0  0  0  0  0  0  0  0  0
    5.0257    1.8495   16.8068 H   0  0  0  0  0  0  0  0  0  0  0  0
    3.9116    1.9851   19.0221 H   0  0  0  0  0  0  0  0  0  0  0  0
    4.8932    0.6879   20.9639 H   0  0  0  0  0  0  0  0  0  0  0  0
    6.4199   -1.3163   21.5633 H   0  0  0  0  0  0  0  0  0  0  0  0
    7.8546   -1.5996   20.5732 H   0  0  0  0  0  0  0  0  0  0  0  0
    7.4214    0.9193   22.7751 N   0  0  0  0  0  0  0  0  0  0  0  0
    8.4680    1.5792   23.2491 C   0  0  0  0  0  0  0  0  0  0  0  0
    8.5393    2.7214   24.2558 C   0  0  0  0  0  0  0  0  0  0  0  0
    7.9744    4.0706   23.7342 C   0  0  0  0  0  0  0  0  0  0  0  0
    6.5413    4.0620   24.2455 C   0  0  0  0  0  0  0  0  0  0  0  0
    5.3573    4.2999   23.3554 C   0  0  0  0  0  0  0  0  0  0  0  0
    5.7398    5.3263   24.3809 C   0  0  0  0  0  0  0  0  0  0  0  0
    6.1759    6.2540   24.0186 H   0  0  0  0  0  0  0  0  0  0  0  0
    5.1076    5.4415   25.2567 H   0  0  0  0  0  0  0  0  0  0  0  0
    4.4659    3.7068   23.5355 H   0  0  0  0  0  0  0  0  0  0  0  0
    5.5385    4.5357   22.3116 H   0  0  0  0  0  0  0  0  0  0  0  0
    6.4864    2.9366   25.2762 C   0  0  0  0  0  0  0  0  0  0  0  0
    7.8216    2.4918   25.4556 O   0  0  0  0  0  0  0  0  0  0  0  0
    6.0930    3.2475   26.2492 H   0  0  0  0  0  0  0  0  0  0  0  0
    5.8712    2.1038   24.9056 H   0  0  0  0  0  0  0  0  0  0  0  0
    8.0395    4.1879   22.6449 H   0  0  0  0  0  0  0  0  0  0  0  0
    8.5475    4.8812   24.2047 H   0  0  0  0  0  0  0  0  0  0  0  0
    9.5797    2.8161   24.5674 H   0  0  0  0  0  0  0  0  0  0  0  0
   12.0522    1.0305   22.8655 C   0  0  0  0  0  0  0  0  0  0  0  0
   13.3066    1.6473   22.8803 C   0  0  0  0  0  0  0  0  0  0  0  0
   13.3481    3.0298   22.6354 C   0  0  0  0  0  0  0  0  0  0  0  0
   14.3723    3.9535   22.4965 N   0  0  0  0  0  0  0  0  0  0  0  0
   15.3598    3.7819   22.5791 H   0  0  0  0  0  0  0  0  0  0  0  0
   14.2162    1.0591   23.0026 H   0  0  0  0  0  0  0  0  0  0  0  0
   11.9580   -0.0424   23.0189 H   0  0  0  0  0  0  0  0  0  0  0  0
   10.0628    3.7788   22.2373 H   0  0  0  0  0  0  0  0  0  0  0  0
   15.0327    6.0535   20.7320 H   0  0  0  0  0  0  0  0  0  0  0  0
   15.3569    6.6264   22.3803 H   0  0  0  0  0  0  0  0  0  0  0  0
   13.8885    7.1496   21.5296 H   0  0  0  0  0  0  0  0  0  0  0  0
  1  2  1  0
  2  3  2  0
  3  4  1  0
  4  5  2  0
  5  6  1  0
  6  7  1  0
  7  8  1  0
  8  9  2  0
  9 10  1  0
 10 11  1  0
 11 12  2  0
 12 13  1  0
 13 14  2  0
 14 15  1  0
 15 16  2  0
 16 17  1  0
 14 18  1  0
 13 19  1  0
 12 20  1  0
 10 21  1  0
 10 22  1  0
  9 23  1  0
 23 24  2  0
 24 25  1  0
 25 26  1  0
 26 27  1  0
 27 28  1  0
 28 29  1  0
 29 30  1  0
 29 31  1  0
 28 32  1  0
 28 33  1  0
 27 34  1  0
 34 35  1  0
 34 36  1  0
 34 37  1  0
 26 38  1  0
 26 39  1  0
 25 40  1  0
  6 41  2  0
 41 42  1  0
 42 43  2  0
 43 44  1  0
 44 45  1  0
 42 46  1  0
 41 47  1  0
  5 48  1  0
  1 49  1  0
  1 50  1  0
  1 51  1  0
 44  2  1  0
 43  4  1  0
 24  7  1  0
 35 25  1  0
 16 11  1  0
 29 27  1  0
M  END
>  <cnnaffinity>  (1) 
-6.59752

>  <filename>  (1) 
Cc1nc2cc(-n3nc(Cc4cccnc4)nc3C3CC4(CC4)CO3)ccc2[nH]1

$$$$
