
     RDKit          3D

 44 46  0  0  0  0  0  0  0  0999 V2000
    9.1735   -5.0478   25.5285 C   0  0  0  0  0  0  0  0  0  0  0  0
    8.3718   -5.1295   24.2696 C   0  0  0  0  0  0  0  0  0  0  0  0
    8.6239   -6.0657   23.3902 N   0  0  0  0  0  0  0  0  0  0  0  0
    7.7308   -5.8567   22.3550 O   0  0  0  0  0  0  0  0  0  0  0  0
    6.9494   -4.8045   22.6431 C   0  0  0  0  0  0  0  0  0  0  0  0
    5.9034   -4.4243   21.6494 C   0  0  0  0  0  0  0  0  0  0  0  0
    5.6106   -5.2808   21.0402 H   0  0  0  0  0  0  0  0  0  0  0  0
    5.0190   -4.0261   22.1579 H   0  0  0  0  0  0  0  0  0  0  0  0
    6.2760   -3.6355   20.9900 H   0  0  0  0  0  0  0  0  0  0  0  0
    7.3086   -4.2701   23.8436 C   0  0  0  0  0  0  0  0  0  0  0  0
    6.7639   -3.0400   24.5164 C   0  0  0  0  0  0  0  0  0  0  0  0
    7.5424   -1.7557   24.1517 C   0  0  0  0  0  0  0  0  0  0  0  0
    7.4771   -1.3662   22.7064 C   0  0  0  0  0  0  0  0  0  0  0  0
    6.5574   -0.5903   22.1507 N   0  0  0  0  0  0  0  0  0  0  0  0
    6.9103   -0.5713   20.8457 C   0  0  0  0  0  0  0  0  0  0  0  0
    6.2669    0.1902   19.7849 C   0  0  0  0  0  0  0  0  0  0  0  0
    5.0809    0.9174   19.9398 C   0  0  0  0  0  0  0  0  0  0  0  0
    4.5771    1.5638   18.8114 C   0  0  0  0  0  0  0  0  0  0  0  0
    5.2820    1.4763   17.6036 C   0  0  0  0  0  0  0  0  0  0  0  0
    6.4305    0.8010   17.4589 N   0  0  0  0  0  0  0  0  0  0  0  0
    6.9074    0.1802   18.5363 C   0  0  0  0  0  0  0  0  0  0  0  0
    7.8497   -0.3521   18.4161 H   0  0  0  0  0  0  0  0  0  0  0  0
    4.9152    1.9647   16.7056 H   0  0  0  0  0  0  0  0  0  0  0  0
    3.6638    2.1460   18.8476 H   0  0  0  0  0  0  0  0  0  0  0  0
    4.5844    0.9829   20.9125 H   0  0  0  0  0  0  0  0  0  0  0  0
    7.9849   -1.2870   20.5639 N   0  0  0  0  0  0  0  0  0  0  0  0
    8.3574   -1.7764   21.7592 N   0  0  0  0  0  0  0  0  0  0  0  0
    9.7071   -2.2971   21.8282 C   0  0  0  0  0  0  0  0  0  0  0  0
   10.7392   -1.1587   21.8033 C   0  0  0  0  0  0  0  0  0  0  0  0
   12.1608   -1.6652   21.9283 C   0  0  0  0  0  0  0  0  0  0  0  0
   12.9357   -0.7671   22.5574 F   0  0  0  0  0  0  0  0  0  0  0  0
   12.2435   -2.8131   22.6260 F   0  0  0  0  0  0  0  0  0  0  0  0
   12.7159   -1.9119   20.7274 F   0  0  0  0  0  0  0  0  0  0  0  0
   10.5499   -0.4273   22.5976 H   0  0  0  0  0  0  0  0  0  0  0  0
   10.6676   -0.6243   20.8509 H   0  0  0  0  0  0  0  0  0  0  0  0
    9.7948   -2.9296   22.7136 H   0  0  0  0  0  0  0  0  0  0  0  0
    9.8218   -2.9097   20.9343 H   0  0  0  0  0  0  0  0  0  0  0  0
    8.5905   -1.8917   24.4411 H   0  0  0  0  0  0  0  0  0  0  0  0
    7.1648   -0.9157   24.7420 H   0  0  0  0  0  0  0  0  0  0  0  0
    5.7034   -2.9111   24.2585 H   0  0  0  0  0  0  0  0  0  0  0  0
    6.7825   -3.1701   25.6067 H   0  0  0  0  0  0  0  0  0  0  0  0
    8.5727   -4.6579   26.3550 H   0  0  0  0  0  0  0  0  0  0  0  0
    9.5573   -6.0316   25.8084 H   0  0  0  0  0  0  0  0  0  0  0  0
   10.0269   -4.3729   25.3893 H   0  0  0  0  0  0  0  0  0  0  0  0
  1  2  1  0
  2  3  2  0
  3  4  1  0
  4  5  1  0
  5  6  1  0
  6  7  1  0
  6  8  1  0
  6  9  1  0
  5 10  2  0
 10 11  1  0
 11 12  1  0
 12 13  1  0
 13 14  2  0
 14 15  1  0
 15 16  1  0
 16 17  2  0
 17 18  1  0
 18 19  2  0
 19 20  1  0
 20 21  2  0
 21 22  1  0
 19 23  1  0
 18 24  1  0
 17 25  1  0
 15 26  2  0
 26 27  1  0
 27 28  1  0
 28 29  1  0
 29 30  1  0
 30 31  1  0
 30 32  1  0
 30 33  1  0
 29 34  1  0
 29 35  1  0
 28 36  1  0
 28 37  1  0
 12 38  1  0
 12 39  1  0
 11 40  1  0
 11 41  1  0
  1 42  1  0
  1 43  1  0
  1 44  1  0
 10  2  1  0
 27 13  1  0
 21 16  1  0
M  END
>  <cnnaffinity>  (1) 
-6.52186

>  <filename>  (1) 
Cc1noc(C)c1CCc1nc(-c2cccnc2)nn1CCC(F)(F)F

$$$$
