
     RDKit          3D

 39 40  0  0  0  0  0  0  0  0999 V2000
   12.0697    2.3358   22.3131 C   0  0  0  0  0  0  0  0  0  0  0  0
   11.3018    1.6403   23.3838 C   0  0  0  0  0  0  0  0  0  0  0  0
   10.8028    0.3777   23.4625 C   0  0  0  0  0  0  0  0  0  0  0  0
   10.8283   -0.7018   22.4072 C   0  0  0  0  0  0  0  0  0  0  0  0
    9.4821   -1.0658   21.9982 N   0  0  0  0  0  0  0  0  0  0  0  0
    8.7246   -0.1834   21.2958 C   0  0  0  0  0  0  0  0  0  0  0  0
    9.1479    0.8958   20.9114 O   0  0  0  0  0  0  0  0  0  0  0  0
    7.4218   -0.6401   20.9932 N   0  0  0  0  0  0  0  0  0  0  0  0
    6.7420   -1.7562   21.6562 C   0  0  0  0  0  0  0  0  0  0  0  0
    6.8568   -3.0706   20.8919 C   0  0  0  0  0  0  0  0  0  0  0  0
    8.0928   -3.6211   21.1298 F   0  0  0  0  0  0  0  0  0  0  0  0
    5.9398   -3.9523   21.3716 F   0  0  0  0  0  0  0  0  0  0  0  0
    6.6946   -2.9482   19.8118 H   0  0  0  0  0  0  0  0  0  0  0  0
    7.0597   -1.9396   22.6904 H   0  0  0  0  0  0  0  0  0  0  0  0
    5.6769   -1.5243   21.7258 H   0  0  0  0  0  0  0  0  0  0  0  0
    6.7033   -0.0041   19.9166 C   0  0  0  0  0  0  0  0  0  0  0  0
    5.4798    0.6319   20.1694 C   0  0  0  0  0  0  0  0  0  0  0  0
    4.8261    1.2909   19.1215 C   0  0  0  0  0  0  0  0  0  0  0  0
    5.4061    1.2688   17.8499 C   0  0  0  0  0  0  0  0  0  0  0  0
    6.5561    0.6335   17.5759 N   0  0  0  0  0  0  0  0  0  0  0  0
    7.1891    0.0256   18.5866 C   0  0  0  0  0  0  0  0  0  0  0  0
    8.1406   -0.4426   18.3365 H   0  0  0  0  0  0  0  0  0  0  0  0
    4.9388    1.7889   17.0168 H   0  0  0  0  0  0  0  0  0  0  0  0
    3.8925    1.8202   19.2793 H   0  0  0  0  0  0  0  0  0  0  0  0
    5.0741    0.6270   21.1821 H   0  0  0  0  0  0  0  0  0  0  0  0
    9.1567   -2.0128   22.0357 H   0  0  0  0  0  0  0  0  0  0  0  0
   11.3327   -1.5996   22.7806 H   0  0  0  0  0  0  0  0  0  0  0  0
   11.3973   -0.3467   21.5371 H   0  0  0  0  0  0  0  0  0  0  0  0
   10.1481    0.2853   24.7513 C   0  0  0  0  0  0  0  0  0  0  0  0
    9.3509   -0.8613   25.2958 C   0  0  0  0  0  0  0  0  0  0  0  0
    9.9194   -2.0465   25.0025 F   0  0  0  0  0  0  0  0  0  0  0  0
    9.2386   -0.7892   26.6334 F   0  0  0  0  0  0  0  0  0  0  0  0
    8.1024   -0.9041   24.7867 F   0  0  0  0  0  0  0  0  0  0  0  0
   10.3116    1.4979   25.3367 C   0  0  0  0  0  0  0  0  0  0  0  0
   11.0116    2.3247   24.5208 O   0  0  0  0  0  0  0  0  0  0  0  0
   10.0069    1.9274   26.2817 H   0  0  0  0  0  0  0  0  0  0  0  0
   11.4680    2.3548   21.3992 H   0  0  0  0  0  0  0  0  0  0  0  0
   12.3433    3.3560   22.5899 H   0  0  0  0  0  0  0  0  0  0  0  0
   12.9821    1.7741   22.0917 H   0  0  0  0  0  0  0  0  0  0  0  0
  1  2  1  0
  2  3  2  0
  3  4  1  0
  4  5  1  0
  5  6  1  0
  6  7  2  0
  6  8  1  0
  8  9  1  0
  9 10  1  0
 10 11  1  0
 10 12  1  0
 10 13  1  0
  9 14  1  0
  9 15  1  0
  8 16  1  0
 16 17  2  0
 17 18  1  0
 18 19  2  0
 19 20  1  0
 20 21  2  0
 21 22  1  0
 19 23  1  0
 18 24  1  0
 17 25  1  0
  5 26  1  0
  4 27  1  0
  4 28  1  0
  3 29  1  0
 29 30  1  0
 30 31  1  0
 30 32  1  0
 30 33  1  0
 29 34  2  0
 34 35  1  0
 34 36  1  0
  1 37  1  0
  1 38  1  0
  1 39  1  0
 35  2  1  0
 21 16  1  0
M  END
>  <cnnaffinity>  (1) 
-5.71053

>  <filename>  (1) 
Cc1occ(C(F)(F)F)c1CNC(=O)N(CC(F)F)c1cccnc1

$$$$
