
     RDKit          3D

 33 34  0  0  0  0  0  0  0  0999 V2000
    4.9066    1.8218   16.9611 H   0  0  0  0  0  0  0  0  0  0  0  0
    5.3820    1.3186   17.8034 C   0  0  0  0  0  0  0  0  0  0  0  0
    6.5449    0.7023   17.5406 N   0  0  0  0  0  0  0  0  0  0  0  0
    7.1667    0.0941   18.5619 C   0  0  0  0  0  0  0  0  0  0  0  0
    8.1013   -0.4055   18.3132 H   0  0  0  0  0  0  0  0  0  0  0  0
    6.6710    0.0347   19.8838 C   0  0  0  0  0  0  0  0  0  0  0  0
    7.3359   -0.7167   20.9667 C   0  0  0  0  0  0  0  0  0  0  0  0
    6.8374   -1.7214   21.7570 C   0  0  0  0  0  0  0  0  0  0  0  0
    5.8424   -2.1421   21.7034 H   0  0  0  0  0  0  0  0  0  0  0  0
    7.7888   -2.1918   22.6207 N   0  0  0  0  0  0  0  0  0  0  0  0
    8.8526   -1.4641   22.3746 C   0  0  0  0  0  0  0  0  0  0  0  0
    9.7977   -1.5237   22.9001 H   0  0  0  0  0  0  0  0  0  0  0  0
    8.6497   -0.5546   21.3748 N   0  0  0  0  0  0  0  0  0  0  0  0
    9.5764    0.5037   20.9929 C   0  0  0  0  0  0  0  0  0  0  0  0
    9.3738    0.7353   19.9453 H   0  0  0  0  0  0  0  0  0  0  0  0
   10.5872    0.0855   21.0485 H   0  0  0  0  0  0  0  0  0  0  0  0
    9.4799    1.8112   21.8092 C   0  0  1  0  0  0  0  0  0  0  0  0
   10.2396    2.4745   21.3631 H   0  0  0  0  0  0  0  0  0  0  0  0
    8.1068    2.4726   21.6312 C   0  0  0  0  0  0  0  0  0  0  0  0
    8.1035    3.4929   22.0332 H   0  0  0  0  0  0  0  0  0  0  0  0
    7.8386    2.4927   20.5729 H   0  0  0  0  0  0  0  0  0  0  0  0
    7.3174    1.9059   22.1417 H   0  0  0  0  0  0  0  0  0  0  0  0
    9.8268    1.6437   23.2983 C   0  0  0  0  0  0  0  0  0  0  0  0
    9.6237    2.6022   23.7977 H   0  0  0  0  0  0  0  0  0  0  0  0
    9.1200    0.9212   23.7351 H   0  0  0  0  0  0  0  0  0  0  0  0
   11.2785    1.2254   23.5643 C   0  0  0  0  0  0  0  0  0  0  0  0
   11.9816    1.9197   23.0850 H   0  0  0  0  0  0  0  0  0  0  0  0
   11.4978    1.2065   24.6372 H   0  0  0  0  0  0  0  0  0  0  0  0
   11.5005    0.2261   23.1702 H   0  0  0  0  0  0  0  0  0  0  0  0
    5.4427    0.6697   20.1211 C   0  0  0  0  0  0  0  0  0  0  0  0
    5.0157    0.6475   21.1244 H   0  0  0  0  0  0  0  0  0  0  0  0
    4.7936    1.3287   19.0728 C   0  0  0  0  0  0  0  0  0  0  0  0
    3.8575    1.8520   19.2228 H   0  0  0  0  0  0  0  0  0  0  0  0
  1  2  1  0
  2  3  2  0
  3  4  1  0
  4  5  1  0
  4  6  2  0
  6  7  1  0
  7  8  2  0
  8  9  1  0
  8 10  1  0
 10 11  2  0
 11 12  1  0
 11 13  1  0
 13 14  1  0
 14 15  1  0
 14 16  1  0
 14 17  1  0
 17 18  1  6
 17 19  1  0
 19 20  1  0
 19 21  1  0
 19 22  1  0
 17 23  1  0
 23 24  1  0
 23 25  1  0
 23 26  1  0
 26 27  1  0
 26 28  1  0
 26 29  1  0
  6 30  1  0
 30 31  1  0
 30 32  2  0
 32 33  1  0
 32  2  1  0
 13  7  1  0
M  END
>  <cnnaffinity>  (1) 
-5.02356

>  <filename>  (1) 
CC[C@H](C)Cn1cncc1-c1cccnc1

$$$$
