
     RDKit          3D

 32 33  0  0  0  0  0  0  0  0999 V2000
    4.9367    1.7804   16.9996 H   0  0  0  0  0  0  0  0  0  0  0  0
    5.4088    1.2870   17.8471 C   0  0  0  0  0  0  0  0  0  0  0  0
    6.5728    0.6683   17.5973 N   0  0  0  0  0  0  0  0  0  0  0  0
    7.1635    0.0277   18.6129 C   0  0  0  0  0  0  0  0  0  0  0  0
    8.1140   -0.4435   18.3731 H   0  0  0  0  0  0  0  0  0  0  0  0
    6.6373   -0.0184   19.9084 C   0  0  0  0  0  0  0  0  0  0  0  0
    7.3814   -0.7589   20.9552 C   0  0  0  0  0  0  0  0  0  0  0  0
    7.4917   -2.0772   20.7541 N   0  0  0  0  0  0  0  0  0  0  0  0
    8.0653   -2.8043   21.7189 C   0  0  0  0  0  0  0  0  0  0  0  0
    8.1076   -3.8763   21.5331 H   0  0  0  0  0  0  0  0  0  0  0  0
    8.5923   -2.2589   22.8914 C   0  0  0  0  0  0  0  0  0  0  0  0
    9.0655   -2.9022   23.6231 H   0  0  0  0  0  0  0  0  0  0  0  0
    8.5245   -0.8808   23.0763 C   0  0  0  0  0  0  0  0  0  0  0  0
    8.9415   -0.4180   23.9782 H   0  0  0  0  0  0  0  0  0  0  0  0
    7.9205   -0.0931   22.0872 C   0  0  0  0  0  0  0  0  0  0  0  0
    7.8946    1.4210   22.2806 C   0  0  1  0  0  0  0  0  0  0  0  0
    7.4588    1.8810   21.3836 H   0  0  0  0  0  0  0  0  0  0  0  0
    7.0227    1.8171   23.4829 C   0  0  0  0  0  0  0  0  0  0  0  0
    6.0401    1.3382   23.4243 H   0  0  0  0  0  0  0  0  0  0  0  0
    7.4809    1.5030   24.4283 H   0  0  0  0  0  0  0  0  0  0  0  0
    6.8640    2.9003   23.5361 H   0  0  0  0  0  0  0  0  0  0  0  0
    9.3279    1.9766   22.4004 C   0  0  0  0  0  0  0  0  0  0  0  0
    9.7860    1.6544   23.3421 H   0  0  0  0  0  0  0  0  0  0  0  0
    9.9358    1.5305   21.6023 H   0  0  0  0  0  0  0  0  0  0  0  0
    9.3830    3.4948   22.2911 C   0  0  0  0  0  0  0  0  0  0  0  0
    8.8218    3.7860   21.3970 H   0  0  0  0  0  0  0  0  0  0  0  0
    8.8962    4.0157   23.1203 H   0  0  0  0  0  0  0  0  0  0  0  0
   10.4205    3.8510   22.2414 H   0  0  0  0  0  0  0  0  0  0  0  0
    5.4322    0.6433   20.1635 C   0  0  0  0  0  0  0  0  0  0  0  0
    4.9977    0.6412   21.1681 H   0  0  0  0  0  0  0  0  0  0  0  0
    4.8054    1.3049   19.1092 C   0  0  0  0  0  0  0  0  0  0  0  0
    3.8792    1.8408   19.2538 H   0  0  0  0  0  0  0  0  0  0  0  0
  1  2  1  0
  2  3  2  0
  3  4  1  0
  4  5  1  0
  4  6  2  0
  6  7  1  0
  7  8  2  0
  8  9  1  0
  9 10  1  0
  9 11  2  0
 11 12  1  0
 11 13  1  0
 13 14  1  0
 13 15  2  0
 15 16  1  0
 16 17  1  6
 16 18  1  0
 18 19  1  0
 18 20  1  0
 18 21  1  0
 16 22  1  0
 22 23  1  0
 22 24  1  0
 22 25  1  0
 25 26  1  0
 25 27  1  0
 25 28  1  0
  6 29  1  0
 29 30  1  0
 29 31  2  0
 31 32  1  0
 31  2  1  0
 15  7  1  0
M  END
>  <cnnaffinity>  (1) 
-4.80157

>  <filename>  (1) 
CC[C@H](C)c1cccnc1-c1cccnc1

$$$$
