
     RDKit          3D

 42 45  0  0  0  0  0  0  0  0999 V2000
    7.0737   -4.4734   23.6045 C   0  0  0  0  0  0  0  0  0  0  0  0
    7.9769   -4.5689   22.3774 C   0  0  0  0  0  0  0  0  0  0  0  0
    8.9421   -3.3755   22.1632 C   0  0  0  0  0  0  0  0  0  0  0  0
   10.0362   -3.4239   23.0813 O   0  0  0  0  0  0  0  0  0  0  0  0
    9.7931   -2.9804   23.9087 H   0  0  0  0  0  0  0  0  0  0  0  0
    8.2348   -2.0447   21.9844 C   0  0  0  0  0  0  0  0  0  0  0  0
    7.8265   -1.7045   20.7751 N   0  0  0  0  0  0  0  0  0  0  0  0
    7.2564   -0.4916   20.9666 N   0  0  0  0  0  0  0  0  0  0  0  0
    6.5582    0.1149   19.8967 C   0  0  0  0  0  0  0  0  0  0  0  0
    5.3603    0.8045   20.0997 C   0  0  0  0  0  0  0  0  0  0  0  0
    4.7730    1.3958   18.9780 C   0  0  0  0  0  0  0  0  0  0  0  0
    5.4109    1.3082   17.7337 C   0  0  0  0  0  0  0  0  0  0  0  0
    6.5391    0.6032   17.5330 N   0  0  0  0  0  0  0  0  0  0  0  0
    7.0766   -0.0055   18.5915 C   0  0  0  0  0  0  0  0  0  0  0  0
    7.9631   -0.6080   18.4152 H   0  0  0  0  0  0  0  0  0  0  0  0
    4.9949    1.8081   16.8617 H   0  0  0  0  0  0  0  0  0  0  0  0
    3.8218    1.9087   19.0547 H   0  0  0  0  0  0  0  0  0  0  0  0
    4.9099    0.8720   21.0958 H   0  0  0  0  0  0  0  0  0  0  0  0
    7.3755   -0.1508   22.2887 C   0  0  0  0  0  0  0  0  0  0  0  0
    7.0548    1.1380   22.8841 C   0  0  0  0  0  0  0  0  0  0  0  0
    7.5272    2.3144   22.3335 C   0  0  0  0  0  0  0  0  0  0  0  0
    7.2710    3.5372   22.8491 N   0  0  0  0  0  0  0  0  0  0  0  0
    6.5372    3.6176   23.9403 C   0  0  0  0  0  0  0  0  0  0  0  0
    6.0159    2.4891   24.6308 C   0  0  0  0  0  0  0  0  0  0  0  0
    5.2706    2.5767   25.8414 C   0  0  0  0  0  0  0  0  0  0  0  0
    4.9604    4.1298   26.5518 Cl  0  0  0  0  0  0  0  0  0  0  0  0
    4.8012    1.4482   26.4726 C   0  0  0  0  0  0  0  0  0  0  0  0
    5.0692    0.1757   25.9216 C   0  0  0  0  0  0  0  0  0  0  0  0
    5.8003    0.0437   24.7699 C   0  0  0  0  0  0  0  0  0  0  0  0
    6.2920    1.1958   24.0895 C   0  0  0  0  0  0  0  0  0  0  0  0
    6.0349   -0.9359   24.3702 H   0  0  0  0  0  0  0  0  0  0  0  0
    4.7055   -0.7134   26.4220 H   0  0  0  0  0  0  0  0  0  0  0  0
    4.2376    1.5376   27.3914 H   0  0  0  0  0  0  0  0  0  0  0  0
    6.3454    4.6127   24.3322 H   0  0  0  0  0  0  0  0  0  0  0  0
    8.1585    2.3082   21.4469 H   0  0  0  0  0  0  0  0  0  0  0  0
    7.9487   -1.1460   22.9510 N   0  0  0  0  0  0  0  0  0  0  0  0
    9.3502   -3.4935   21.1619 H   0  0  0  0  0  0  0  0  0  0  0  0
    7.3700   -4.6724   21.4662 H   0  0  0  0  0  0  0  0  0  0  0  0
    8.6027   -5.4701   22.4545 H   0  0  0  0  0  0  0  0  0  0  0  0
    7.6704   -4.4402   24.5234 H   0  0  0  0  0  0  0  0  0  0  0  0
    6.4113   -5.3443   23.6537 H   0  0  0  0  0  0  0  0  0  0  0  0
    6.4487   -3.5735   23.5819 H   0  0  0  0  0  0  0  0  0  0  0  0
  1  2  1  0
  2  3  1  0
  3  4  1  0
  4  5  1  0
  3  6  1  0
  6  7  2  0
  7  8  1  0
  8  9  1  0
  9 10  2  0
 10 11  1  0
 11 12  2  0
 12 13  1  0
 13 14  2  0
 14 15  1  0
 12 16  1  0
 11 17  1  0
 10 18  1  0
  8 19  1  0
 19 20  1  0
 20 21  2  0
 21 22  1  0
 22 23  2  0
 23 24  1  0
 24 25  2  0
 25 26  1  0
 25 27  1  0
 27 28  2  0
 28 29  1  0
 29 30  2  0
 29 31  1  0
 28 32  1  0
 27 33  1  0
 23 34  1  0
 21 35  1  0
 19 36  2  0
  3 37  1  0
  2 38  1  0
  2 39  1  0
  1 40  1  0
  1 41  1  0
  1 42  1  0
 36  6  1  0
 14  9  1  0
 30 20  1  0
 30 24  1  0
M  END
>  <cnnaffinity>  (1) 
-6.13272

>  <filename>  (1) 
CCC(O)c1nc(-c2cncc3c(Cl)cccc23)n(-c2cccnc2)n1

$$$$
