
     RDKit          3D

 38 39  0  0  0  0  0  0  0  0999 V2000
    6.0587   -2.5541   21.0161 C   0  0  0  0  0  0  0  0  0  0  0  0
    7.3862   -1.8356   21.2484 C   0  0  0  0  0  0  0  0  0  0  0  0
    7.2136   -0.3186   21.3169 C   0  0  0  0  0  0  0  0  0  0  0  0
    8.5468    0.2434   21.3891 N   0  0  0  0  0  0  0  0  0  0  0  0
    8.8811    1.2743   22.2161 C   0  0  0  0  0  0  0  0  0  0  0  0
    8.0791    1.7718   22.9862 O   0  0  0  0  0  0  0  0  0  0  0  0
   10.1771    1.6848   22.0888 N   0  0  0  0  0  0  0  0  0  0  0  0
   10.6578    2.8140   22.7036 C   0  0  0  0  0  0  0  0  0  0  0  0
   10.1322    3.1811   23.9252 C   0  0  0  0  0  0  0  0  0  0  0  0
   10.5868    4.3354   24.5337 C   0  0  0  0  0  0  0  0  0  0  0  0
   11.5649    5.0795   24.0047 N   0  0  0  0  0  0  0  0  0  0  0  0
   12.0842    4.7212   22.8143 C   0  0  0  0  0  0  0  0  0  0  0  0
   13.4705    5.8156   22.0836 Br  0  0  0  0  0  0  0  0  0  0  0  0
   11.6424    3.5926   22.1065 C   0  0  0  0  0  0  0  0  0  0  0  0
   12.2063    3.2382   20.7395 C   0  0  0  0  0  0  0  0  0  0  0  0
   13.0911    3.8424   20.5081 H   0  0  0  0  0  0  0  0  0  0  0  0
   12.4452    2.1739   20.6985 H   0  0  0  0  0  0  0  0  0  0  0  0
   11.4902    3.4094   19.9406 H   0  0  0  0  0  0  0  0  0  0  0  0
   10.1317    4.6301   25.4756 H   0  0  0  0  0  0  0  0  0  0  0  0
    9.3626    2.5820   24.3920 H   0  0  0  0  0  0  0  0  0  0  0  0
   10.6214    1.4030   21.2292 H   0  0  0  0  0  0  0  0  0  0  0  0
    9.3101   -0.2192   20.9084 H   0  0  0  0  0  0  0  0  0  0  0  0
    6.5656    0.2560   20.0868 C   0  0  0  0  0  0  0  0  0  0  0  0
    5.3273    0.9014   20.1591 C   0  0  0  0  0  0  0  0  0  0  0  0
    4.7975    1.4239   18.9811 C   0  0  0  0  0  0  0  0  0  0  0  0
    5.4970    1.2836   17.7787 C   0  0  0  0  0  0  0  0  0  0  0  0
    6.6848    0.6556   17.7064 N   0  0  0  0  0  0  0  0  0  0  0  0
    7.2089    0.1628   18.8432 C   0  0  0  0  0  0  0  0  0  0  0  0
    8.1744   -0.3326   18.7920 H   0  0  0  0  0  0  0  0  0  0  0  0
    5.0657    1.6985   16.8726 H   0  0  0  0  0  0  0  0  0  0  0  0
    3.8538    1.9553   18.9867 H   0  0  0  0  0  0  0  0  0  0  0  0
    4.8003    1.0043   21.1075 H   0  0  0  0  0  0  0  0  0  0  0  0
    6.6163   -0.0669   22.2062 H   0  0  0  0  0  0  0  0  0  0  0  0
    8.0791   -2.0793   20.4381 H   0  0  0  0  0  0  0  0  0  0  0  0
    7.8256   -2.1902   22.1879 H   0  0  0  0  0  0  0  0  0  0  0  0
    5.5838   -2.1734   20.1066 H   0  0  0  0  0  0  0  0  0  0  0  0
    6.2284   -3.6280   20.8997 H   0  0  0  0  0  0  0  0  0  0  0  0
    5.3847   -2.3982   21.8622 H   0  0  0  0  0  0  0  0  0  0  0  0
  1  2  1  0
  2  3  1  0
  3  4  1  0
  4  5  1  0
  5  6  2  0
  5  7  1  0
  7  8  1  0
  8  9  2  0
  9 10  1  0
 10 11  2  0
 11 12  1  0
 12 13  1  0
 12 14  2  0
 14 15  1  0
 15 16  1  0
 15 17  1  0
 15 18  1  0
 10 19  1  0
  9 20  1  0
  7 21  1  0
  4 22  1  0
  3 23  1  0
 23 24  2  0
 24 25  1  0
 25 26  2  0
 26 27  1  0
 27 28  2  0
 28 29  1  0
 26 30  1  0
 25 31  1  0
 24 32  1  0
  3 33  1  0
  2 34  1  0
  2 35  1  0
  1 36  1  0
  1 37  1  0
  1 38  1  0
 14  8  1  0
 28 23  1  0
M  END
>  <cnnaffinity>  (1) 
-5.10967

>  <filename>  (1) 
CCC(NC(=O)Nc1ccnc(Br)c1C)c1cccnc1

$$$$
