
     RDKit          3D

 45 48  0  0  0  0  0  0  0  0999 V2000
    6.9433   -4.2792   24.1713 C   0  0  0  0  0  0  0  0  0  0  0  0
    7.5774   -4.5888   22.8189 C   0  0  0  0  0  0  0  0  0  0  0  0
    8.6072   -3.5241   22.3793 C   0  0  0  0  0  0  0  0  0  0  0  0
    9.8012   -3.3751   23.3519 C   0  0  0  0  0  0  0  0  0  0  0  0
   10.9491   -2.5545   22.7241 C   0  0  0  0  0  0  0  0  0  0  0  0
   10.8971   -1.5091   23.0482 H   0  0  0  0  0  0  0  0  0  0  0  0
   11.9347   -2.9520   22.9847 H   0  0  0  0  0  0  0  0  0  0  0  0
   10.8943   -2.5534   21.6264 H   0  0  0  0  0  0  0  0  0  0  0  0
    9.4728   -2.8902   24.2850 H   0  0  0  0  0  0  0  0  0  0  0  0
   10.1255   -4.3821   23.6465 H   0  0  0  0  0  0  0  0  0  0  0  0
    8.0249   -2.1791   22.0422 C   0  0  0  0  0  0  0  0  0  0  0  0
    7.7001   -1.8410   20.8109 N   0  0  0  0  0  0  0  0  0  0  0  0
    7.2791   -0.5544   20.9350 N   0  0  0  0  0  0  0  0  0  0  0  0
    6.5935    0.0456   19.8407 C   0  0  0  0  0  0  0  0  0  0  0  0
    5.3567    0.6711   20.0363 C   0  0  0  0  0  0  0  0  0  0  0  0
    4.7711    1.3145   18.9461 C   0  0  0  0  0  0  0  0  0  0  0  0
    5.4216    1.2809   17.7106 C   0  0  0  0  0  0  0  0  0  0  0  0
    6.5679    0.6075   17.5014 N   0  0  0  0  0  0  0  0  0  0  0  0
    7.1267   -0.0180   18.5413 C   0  0  0  0  0  0  0  0  0  0  0  0
    8.0319   -0.5902   18.3424 H   0  0  0  0  0  0  0  0  0  0  0  0
    5.0006    1.7991   16.8524 H   0  0  0  0  0  0  0  0  0  0  0  0
    3.8314    1.8440   19.0550 H   0  0  0  0  0  0  0  0  0  0  0  0
    4.8912    0.6720   21.0220 H   0  0  0  0  0  0  0  0  0  0  0  0
    7.4574   -0.1522   22.2411 C   0  0  0  0  0  0  0  0  0  0  0  0
    7.3576    1.1944   22.7814 C   0  0  0  0  0  0  0  0  0  0  0  0
    7.2990    1.4695   24.1561 C   0  0  0  0  0  0  0  0  0  0  0  0
    7.3386    0.7029   25.3556 C   0  0  0  0  0  0  0  0  0  0  0  0
    7.2150    1.3532   26.5633 C   0  0  0  0  0  0  0  0  0  0  0  0
    7.0570    2.7799   26.6036 C   0  0  0  0  0  0  0  0  0  0  0  0
    7.0347    3.5085   25.4496 C   0  0  0  0  0  0  0  0  0  0  0  0
    7.1669    2.8552   24.2331 N   0  0  0  0  0  0  0  0  0  0  0  0
    7.1892    3.3193   22.9368 C   0  0  0  0  0  0  0  0  0  0  0  0
    7.3101    2.3609   22.0571 N   0  0  0  0  0  0  0  0  0  0  0  0
    7.0872    4.3710   22.7089 H   0  0  0  0  0  0  0  0  0  0  0  0
    6.9125    4.5866   25.4082 H   0  0  0  0  0  0  0  0  0  0  0  0
    6.9541    3.2882   27.5588 H   0  0  0  0  0  0  0  0  0  0  0  0
    7.2355    0.7893   27.4925 H   0  0  0  0  0  0  0  0  0  0  0  0
    7.4701   -0.3694   25.2734 H   0  0  0  0  0  0  0  0  0  0  0  0
    7.8691   -1.2013   22.9507 N   0  0  0  0  0  0  0  0  0  0  0  0
    8.9689   -3.8540   21.4072 H   0  0  0  0  0  0  0  0  0  0  0  0
    8.0951   -5.5605   22.8640 H   0  0  0  0  0  0  0  0  0  0  0  0
    6.8137   -4.6910   22.0328 H   0  0  0  0  0  0  0  0  0  0  0  0
    6.1731   -5.0137   24.4244 H   0  0  0  0  0  0  0  0  0  0  0  0
    6.4879   -3.2809   24.1669 H   0  0  0  0  0  0  0  0  0  0  0  0
    7.7060   -4.2993   24.9612 H   0  0  0  0  0  0  0  0  0  0  0  0
  1  2  1  0
  2  3  1  0
  3  4  1  0
  4  5  1  0
  5  6  1  0
  5  7  1  0
  5  8  1  0
  4  9  1  0
  4 10  1  0
  3 11  1  0
 11 12  2  0
 12 13  1  0
 13 14  1  0
 14 15  2  0
 15 16  1  0
 16 17  2  0
 17 18  1  0
 18 19  2  0
 19 20  1  0
 17 21  1  0
 16 22  1  0
 15 23  1  0
 13 24  1  0
 24 25  1  0
 25 26  2  0
 26 27  1  0
 27 28  2  0
 28 29  1  0
 29 30  2  0
 30 31  1  0
 31 32  1  0
 32 33  2  0
 32 34  1  0
 30 35  1  0
 29 36  1  0
 28 37  1  0
 27 38  1  0
 24 39  2  0
  3 40  1  0
  2 41  1  0
  2 42  1  0
  1 43  1  0
  1 44  1  0
  1 45  1  0
 39 11  1  0
 19 14  1  0
 33 25  1  0
 31 26  1  0
M  END
>  <cnnaffinity>  (1) 
-6.2946

>  <filename>  (1) 
CCC(CC)c1nc(-c2ncn3ccccc23)n(-c2cccnc2)n1

$$$$
