
     RDKit          3D

 43 46  0  0  0  0  0  0  0  0999 V2000
   10.8691   -0.9011   22.8661 C   0  0  0  0  0  0  0  0  0  0  0  0
   10.6816   -2.3232   22.3229 C   0  0  0  0  0  0  0  0  0  0  0  0
    9.2833   -2.9473   22.6029 C   0  0  0  0  0  0  0  0  0  0  0  0
    9.2406   -3.4855   23.9197 O   0  0  0  0  0  0  0  0  0  0  0  0
    9.0444   -2.7560   24.5281 H   0  0  0  0  0  0  0  0  0  0  0  0
    8.1463   -1.9888   22.2827 C   0  0  0  0  0  0  0  0  0  0  0  0
    7.6398   -1.1884   23.1997 N   0  0  0  0  0  0  0  0  0  0  0  0
    6.8387   -0.3577   22.4792 N   0  0  0  0  0  0  0  0  0  0  0  0
    6.4026    0.8598   23.1229 C   0  0  0  0  0  0  0  0  0  0  0  0
    5.5271    0.7133   24.1900 C   0  0  0  0  0  0  0  0  0  0  0  0
    4.9884    1.8648   24.8054 C   0  0  0  0  0  0  0  0  0  0  0  0
    5.3768    3.1228   24.4009 C   0  0  0  0  0  0  0  0  0  0  0  0
    6.3894    3.2832   23.3953 C   0  0  0  0  0  0  0  0  0  0  0  0
    6.9196    4.5686   23.0869 C   0  0  0  0  0  0  0  0  0  0  0  0
    8.0605    4.7372   22.2461 C   0  0  0  0  0  0  0  0  0  0  0  0
    8.5856    3.6129   21.7428 C   0  0  0  0  0  0  0  0  0  0  0  0
    8.1522    2.2366   21.7942 C   0  0  0  0  0  0  0  0  0  0  0  0
    6.9306    2.1191   22.7699 C   0  0  0  0  0  0  0  0  0  0  0  0
    8.9869    1.5907   22.1874 H   0  0  0  0  0  0  0  0  0  0  0  0
    7.9170    1.8494   20.7489 H   0  0  0  0  0  0  0  0  0  0  0  0
    8.4639    5.7330   22.0332 H   0  0  0  0  0  0  0  0  0  0  0  0
    6.4755    5.4482   23.5252 H   0  0  0  0  0  0  0  0  0  0  0  0
    4.9920    4.0158   24.8883 H   0  0  0  0  0  0  0  0  0  0  0  0
    4.2911    1.7381   25.6310 H   0  0  0  0  0  0  0  0  0  0  0  0
    5.2969   -0.2858   24.5457 H   0  0  0  0  0  0  0  0  0  0  0  0
    6.8814   -0.7372   21.1658 C   0  0  0  0  0  0  0  0  0  0  0  0
    6.2203   -0.1073   20.0242 C   0  0  0  0  0  0  0  0  0  0  0  0
    5.0825    0.7139   20.0907 C   0  0  0  0  0  0  0  0  0  0  0  0
    4.6858    1.3661   18.9243 C   0  0  0  0  0  0  0  0  0  0  0  0
    5.4234    1.1724   17.7504 C   0  0  0  0  0  0  0  0  0  0  0  0
    6.4778    0.3479   17.6655 N   0  0  0  0  0  0  0  0  0  0  0  0
    6.8418   -0.2913   18.7770 C   0  0  0  0  0  0  0  0  0  0  0  0
    7.6817   -0.9765   18.6888 H   0  0  0  0  0  0  0  0  0  0  0  0
    5.1595    1.6994   16.8358 H   0  0  0  0  0  0  0  0  0  0  0  0
    3.8334    2.0357   18.9129 H   0  0  0  0  0  0  0  0  0  0  0  0
    4.5327    0.8400   21.0261 H   0  0  0  0  0  0  0  0  0  0  0  0
    7.7208   -1.7516   21.0210 N   0  0  0  0  0  0  0  0  0  0  0  0
    9.1377   -3.7786   21.9151 H   0  0  0  0  0  0  0  0  0  0  0  0
   10.8628   -2.3108   21.2385 H   0  0  0  0  0  0  0  0  0  0  0  0
   11.4109   -3.0127   22.7710 H   0  0  0  0  0  0  0  0  0  0  0  0
   11.9168   -0.5886   22.8197 H   0  0  0  0  0  0  0  0  0  0  0  0
   10.2829   -0.1886   22.2729 H   0  0  0  0  0  0  0  0  0  0  0  0
   10.5355   -0.8083   23.9067 H   0  0  0  0  0  0  0  0  0  0  0  0
  1  2  1  0
  2  3  1  0
  3  4  1  0
  4  5  1  0
  3  6  1  0
  6  7  2  0
  7  8  1  0
  8  9  1  0
  9 10  2  0
 10 11  1  0
 11 12  2  0
 12 13  1  0
 13 14  2  0
 14 15  1  0
 15 16  2  0
 16 17  1  0
 17 18  2  0
 17 19  1  0
 16 20  1  0
 15 21  1  0
 14 22  1  0
 12 23  1  0
 11 24  1  0
 10 25  1  0
  8 26  1  0
 26 27  1  0
 27 28  2  0
 28 29  1  0
 29 30  2  0
 30 31  1  0
 31 32  2  0
 32 33  1  0
 30 34  1  0
 29 35  1  0
 28 36  1  0
 26 37  2  0
  3 38  1  0
  2 39  1  0
  2 40  1  0
  1 41  1  0
  1 42  1  0
  1 43  1  0
 37  6  1  0
 18  9  1  0
 32 27  1  0
 18 13  1  0
M  END
>  <cnnaffinity>  (1) 
-5.80214

>  <filename>  (1) 
CCC(O)c1nc(-c2cccnc2)n(-c2cccc3ccccc23)n1

$$$$
