
     RDKit          3D

 42 45  0  0  0  0  0  0  0  0999 V2000
    6.7581   -4.8445   22.3960 C   0  0  0  0  0  0  0  0  0  0  0  0
    8.0547   -4.4484   23.1031 C   0  0  0  0  0  0  0  0  0  0  0  0
    8.9253   -3.5432   22.2243 C   0  0  0  0  0  0  0  0  0  0  0  0
   10.1981   -3.4983   22.8743 O   0  0  0  0  0  0  0  0  0  0  0  0
   10.8773   -3.1165   22.2980 H   0  0  0  0  0  0  0  0  0  0  0  0
    8.2900   -2.1975   21.9680 C   0  0  0  0  0  0  0  0  0  0  0  0
    7.8591   -1.8715   20.7617 N   0  0  0  0  0  0  0  0  0  0  0  0
    7.3297   -0.6404   20.9507 N   0  0  0  0  0  0  0  0  0  0  0  0
    6.6332    0.0055   19.8995 C   0  0  0  0  0  0  0  0  0  0  0  0
    5.4158    0.6473   20.1492 C   0  0  0  0  0  0  0  0  0  0  0  0
    4.7943    1.3064   19.0876 C   0  0  0  0  0  0  0  0  0  0  0  0
    5.4048    1.2908   17.8296 C   0  0  0  0  0  0  0  0  0  0  0  0
    6.5675    0.6600   17.5829 N   0  0  0  0  0  0  0  0  0  0  0  0
    7.1628    0.0275   18.5976 C   0  0  0  0  0  0  0  0  0  0  0  0
    8.1102   -0.4616   18.3808 H   0  0  0  0  0  0  0  0  0  0  0  0
    4.9475    1.8026   16.9856 H   0  0  0  0  0  0  0  0  0  0  0  0
    3.8642    1.8468   19.2332 H   0  0  0  0  0  0  0  0  0  0  0  0
    4.9981    0.6496   21.1561 H   0  0  0  0  0  0  0  0  0  0  0  0
    7.4800   -0.2960   22.2760 C   0  0  0  0  0  0  0  0  0  0  0  0
    7.1974    1.0168   22.8231 C   0  0  0  0  0  0  0  0  0  0  0  0
    7.5073    2.1838   22.1288 C   0  0  0  0  0  0  0  0  0  0  0  0
    7.2047    3.4329   22.6902 C   0  0  0  0  0  0  0  0  0  0  0  0
    7.5875    4.8679   21.7942 Cl  0  0  0  0  0  0  0  0  0  0  0  0
    6.6094    3.5394   23.9253 C   0  0  0  0  0  0  0  0  0  0  0  0
    6.3030    2.3663   24.6653 C   0  0  0  0  0  0  0  0  0  0  0  0
    5.6922    2.3998   25.9516 C   0  0  0  0  0  0  0  0  0  0  0  0
    5.4174    1.2194   26.5968 C   0  0  0  0  0  0  0  0  0  0  0  0
    5.7406   -0.0067   25.9562 C   0  0  0  0  0  0  0  0  0  0  0  0
    6.2951   -0.0819   24.7689 N   0  0  0  0  0  0  0  0  0  0  0  0
    6.6055    1.0742   24.1194 C   0  0  0  0  0  0  0  0  0  0  0  0
    5.5324   -0.9512   26.4581 H   0  0  0  0  0  0  0  0  0  0  0  0
    4.9631    1.1899   27.5814 H   0  0  0  0  0  0  0  0  0  0  0  0
    5.4606    3.3701   26.3867 H   0  0  0  0  0  0  0  0  0  0  0  0
    6.3752    4.5148   24.3320 H   0  0  0  0  0  0  0  0  0  0  0  0
    7.9555    2.1431   21.1396 H   0  0  0  0  0  0  0  0  0  0  0  0
    8.0710   -1.2778   22.9237 N   0  0  0  0  0  0  0  0  0  0  0  0
    8.9538   -3.9707   21.2094 H   0  0  0  0  0  0  0  0  0  0  0  0
    8.6683   -5.3243   23.3466 H   0  0  0  0  0  0  0  0  0  0  0  0
    7.8622   -3.9351   24.0552 H   0  0  0  0  0  0  0  0  0  0  0  0
    6.9785   -5.3573   21.4503 H   0  0  0  0  0  0  0  0  0  0  0  0
    6.1503   -3.9624   22.1550 H   0  0  0  0  0  0  0  0  0  0  0  0
    6.1565   -5.5220   23.0110 H   0  0  0  0  0  0  0  0  0  0  0  0
  1  2  1  0
  2  3  1  0
  3  4  1  0
  4  5  1  0
  3  6  1  0
  6  7  2  0
  7  8  1  0
  8  9  1  0
  9 10  2  0
 10 11  1  0
 11 12  2  0
 12 13  1  0
 13 14  2  0
 14 15  1  0
 12 16  1  0
 11 17  1  0
 10 18  1  0
  8 19  1  0
 19 20  1  0
 20 21  2  0
 21 22  1  0
 22 23  1  0
 22 24  2  0
 24 25  1  0
 25 26  2  0
 26 27  1  0
 27 28  2  0
 28 29  1  0
 29 30  2  0
 28 31  1  0
 27 32  1  0
 26 33  1  0
 24 34  1  0
 21 35  1  0
 19 36  2  0
  3 37  1  0
  2 38  1  0
  2 39  1  0
  1 40  1  0
  1 41  1  0
  1 42  1  0
 36  6  1  0
 14  9  1  0
 30 20  1  0
 30 25  1  0
M  END
>  <cnnaffinity>  (1) 
-6.06473

>  <filename>  (1) 
CCC(O)c1nc(-c2cc(Cl)cc3cccnc23)n(-c2cccnc2)n1

$$$$
