
     RDKit          3D

 35 36  0  0  0  0  0  0  0  0999 V2000
    6.9965    0.4131   22.9785 C   0  0  0  0  0  0  0  0  0  0  0  0
    6.9701   -0.9331   22.2491 C   0  0  0  0  0  0  0  0  0  0  0  0
    7.5564   -0.8409   20.8338 C   0  0  0  0  0  0  0  0  0  0  0  0
    8.7920   -0.1099   20.8642 N   0  0  0  0  0  0  0  0  0  0  0  0
    9.9482   -0.7540   21.1494 C   0  0  0  0  0  0  0  0  0  0  0  0
   10.0617   -1.9650   21.0497 O   0  0  0  0  0  0  0  0  0  0  0  0
   10.8974    0.0612   21.6733 N   0  0  0  0  0  0  0  0  0  0  0  0
   12.1553   -0.3624   21.9875 C   0  0  0  0  0  0  0  0  0  0  0  0
   12.7245   -1.4400   21.3307 C   0  0  0  0  0  0  0  0  0  0  0  0
   14.0320   -1.7893   21.6088 C   0  0  0  0  0  0  0  0  0  0  0  0
   14.7456   -1.1024   22.5055 N   0  0  0  0  0  0  0  0  0  0  0  0
   14.1958   -0.0515   23.1295 C   0  0  0  0  0  0  0  0  0  0  0  0
   12.8937    0.3479   22.9103 C   0  0  0  0  0  0  0  0  0  0  0  0
   12.1684    1.8084   23.9126 Br  0  0  0  0  0  0  0  0  0  0  0  0
   14.7724    0.5300   23.8366 H   0  0  0  0  0  0  0  0  0  0  0  0
   14.5094   -2.6186   21.0946 H   0  0  0  0  0  0  0  0  0  0  0  0
   12.1756   -1.9984   20.5918 H   0  0  0  0  0  0  0  0  0  0  0  0
   10.5742    0.9429   22.0493 H   0  0  0  0  0  0  0  0  0  0  0  0
    8.7596    0.8733   21.1122 H   0  0  0  0  0  0  0  0  0  0  0  0
    6.7594   -0.0932   19.8134 C   0  0  0  0  0  0  0  0  0  0  0  0
    5.5642    0.5497   20.1278 C   0  0  0  0  0  0  0  0  0  0  0  0
    4.9437    1.2809   19.1208 C   0  0  0  0  0  0  0  0  0  0  0  0
    5.5073    1.3340   17.8432 C   0  0  0  0  0  0  0  0  0  0  0  0
    6.6600    0.7137   17.5369 N   0  0  0  0  0  0  0  0  0  0  0  0
    7.2762    0.0252   18.5116 C   0  0  0  0  0  0  0  0  0  0  0  0
    8.2327   -0.4377   18.2831 H   0  0  0  0  0  0  0  0  0  0  0  0
    4.9942    1.9012   17.0733 H   0  0  0  0  0  0  0  0  0  0  0  0
    4.0337    1.8332   19.3132 H   0  0  0  0  0  0  0  0  0  0  0  0
    5.1461    0.5034   21.1315 H   0  0  0  0  0  0  0  0  0  0  0  0
    7.7244   -1.8649   20.4822 H   0  0  0  0  0  0  0  0  0  0  0  0
    5.9512   -1.3082   22.1715 H   0  0  0  0  0  0  0  0  0  0  0  0
    7.5390   -1.6620   22.8372 H   0  0  0  0  0  0  0  0  0  0  0  0
    8.0327    0.7054   23.1753 H   0  0  0  0  0  0  0  0  0  0  0  0
    6.4671    0.3493   23.9321 H   0  0  0  0  0  0  0  0  0  0  0  0
    6.5296    1.1878   22.3657 H   0  0  0  0  0  0  0  0  0  0  0  0
  1  2  1  0
  2  3  1  0
  3  4  1  0
  4  5  1  0
  5  6  2  0
  5  7  1  0
  7  8  1  0
  8  9  2  0
  9 10  1  0
 10 11  2  0
 11 12  1  0
 12 13  2  0
 13 14  1  0
 12 15  1  0
 10 16  1  0
  9 17  1  0
  7 18  1  0
  4 19  1  0
  3 20  1  0
 20 21  2  0
 21 22  1  0
 22 23  2  0
 23 24  1  0
 24 25  2  0
 25 26  1  0
 23 27  1  0
 22 28  1  0
 21 29  1  0
  3 30  1  0
  2 31  1  0
  2 32  1  0
  1 33  1  0
  1 34  1  0
  1 35  1  0
 13  8  1  0
 25 20  1  0
M  END
>  <cnnaffinity>  (1) 
-6.12064

>  <filename>  (1) 
CCC(NC(=O)Nc1ccncc1Br)c1cccnc1

$$$$
