
     RDKit          3D

 45 48  0  0  0  0  0  0  0  0999 V2000
    8.7003   -5.5545   23.9638 C   0  0  0  0  0  0  0  0  0  0  0  0
    8.1640   -4.1457   23.6691 C   0  0  0  0  0  0  0  0  0  0  0  0
    8.8929   -3.4729   22.4918 C   0  0  0  0  0  0  0  0  0  0  0  0
   10.2658   -3.2904   22.8693 O   0  0  0  0  0  0  0  0  0  0  0  0
   10.2776   -2.5235   23.4686 H   0  0  0  0  0  0  0  0  0  0  0  0
    8.2238   -2.1794   22.0407 C   0  0  0  0  0  0  0  0  0  0  0  0
    7.7224   -1.9356   20.8425 N   0  0  0  0  0  0  0  0  0  0  0  0
    7.3191   -0.6390   20.9352 N   0  0  0  0  0  0  0  0  0  0  0  0
    6.6142    0.0022   19.8717 C   0  0  0  0  0  0  0  0  0  0  0  0
    5.4053    0.6709   20.1038 C   0  0  0  0  0  0  0  0  0  0  0  0
    4.7885    1.3304   19.0369 C   0  0  0  0  0  0  0  0  0  0  0  0
    5.4001    1.3082   17.7833 C   0  0  0  0  0  0  0  0  0  0  0  0
    6.5470    0.6464   17.5466 N   0  0  0  0  0  0  0  0  0  0  0  0
    7.1272   -0.0035   18.5629 C   0  0  0  0  0  0  0  0  0  0  0  0
    8.0534   -0.5257   18.3315 H   0  0  0  0  0  0  0  0  0  0  0  0
    4.9527    1.8351   16.9408 H   0  0  0  0  0  0  0  0  0  0  0  0
    3.8589    1.8673   19.1747 H   0  0  0  0  0  0  0  0  0  0  0  0
    4.9598    0.6756   21.0983 H   0  0  0  0  0  0  0  0  0  0  0  0
    7.6647   -0.1536   22.1699 C   0  0  0  0  0  0  0  0  0  0  0  0
    7.7422    1.3107   22.5595 C   0  0  0  0  0  0  0  0  0  0  0  0
    9.1245    1.9448   22.2061 C   0  0  0  0  0  0  0  0  0  0  0  0
   10.1913    1.5656   23.1956 C   0  0  0  0  0  0  0  0  0  0  0  0
    9.8947    1.3392   24.4907 C   0  0  0  0  0  0  0  0  0  0  0  0
    8.5154    1.3433   24.9726 C   0  0  0  0  0  0  0  0  0  0  0  0
    8.2080    1.2705   26.3543 C   0  0  0  0  0  0  0  0  0  0  0  0
    6.8963    1.2728   26.7860 C   0  0  0  0  0  0  0  0  0  0  0  0
    5.8405    1.3011   25.8542 C   0  0  0  0  0  0  0  0  0  0  0  0
    6.1312    1.3550   24.4950 C   0  0  0  0  0  0  0  0  0  0  0  0
    7.4561    1.4116   24.0434 C   0  0  0  0  0  0  0  0  0  0  0  0
    5.3253    1.3133   23.7637 H   0  0  0  0  0  0  0  0  0  0  0  0
    4.8110    1.2675   26.1924 H   0  0  0  0  0  0  0  0  0  0  0  0
    6.6752    1.2432   27.8500 H   0  0  0  0  0  0  0  0  0  0  0  0
    9.0192    1.2011   27.0696 H   0  0  0  0  0  0  0  0  0  0  0  0
   10.6913    1.1714   25.2123 H   0  0  0  0  0  0  0  0  0  0  0  0
   11.2290    1.5485   22.8725 H   0  0  0  0  0  0  0  0  0  0  0  0
    9.4325    1.6687   21.1881 H   0  0  0  0  0  0  0  0  0  0  0  0
    9.0009    3.0412   22.2072 H   0  0  0  0  0  0  0  0  0  0  0  0
    6.9654    1.8537   22.0116 H   0  0  0  0  0  0  0  0  0  0  0  0
    8.1717   -1.1280   22.8980 N   0  0  0  0  0  0  0  0  0  0  0  0
    8.8473   -4.1331   21.6211 H   0  0  0  0  0  0  0  0  0  0  0  0
    8.3273   -3.5074   24.5503 H   0  0  0  0  0  0  0  0  0  0  0  0
    7.0804   -4.1723   23.4696 H   0  0  0  0  0  0  0  0  0  0  0  0
    8.1238   -6.0037   24.7792 H   0  0  0  0  0  0  0  0  0  0  0  0
    8.6221   -6.2073   23.0813 H   0  0  0  0  0  0  0  0  0  0  0  0
    9.7523   -5.5219   24.2768 H   0  0  0  0  0  0  0  0  0  0  0  0
  1  2  1  0
  2  3  1  0
  3  4  1  0
  4  5  1  0
  3  6  1  0
  6  7  2  0
  7  8  1  0
  8  9  1  0
  9 10  2  0
 10 11  1  0
 11 12  2  0
 12 13  1  0
 13 14  2  0
 14 15  1  0
 12 16  1  0
 11 17  1  0
 10 18  1  0
  8 19  1  0
 19 20  1  0
 20 21  1  0
 21 22  1  0
 22 23  2  0
 23 24  1  0
 24 25  2  0
 25 26  1  0
 26 27  2  0
 27 28  1  0
 28 29  2  0
 28 30  1  0
 27 31  1  0
 26 32  1  0
 25 33  1  0
 23 34  1  0
 22 35  1  0
 21 36  1  0
 21 37  1  0
 20 38  1  0
 19 39  2  0
  3 40  1  0
  2 41  1  0
  2 42  1  0
  1 43  1  0
  1 44  1  0
  1 45  1  0
 39  6  1  0
 14  9  1  0
 29 20  1  0
 29 24  1  0
M  END
>  <cnnaffinity>  (1) 
-5.99082

>  <filename>  (1) 
CCC(O)c1nc(C2CC=Cc3ccccc32)n(-c2cccnc2)n1

$$$$
