
     RDKit          3D

 41 43  0  0  0  0  0  0  0  0999 V2000
    8.9631    0.2755   25.0714 C   0  0  0  0  0  0  0  0  0  0  0  0
    7.6956   -0.5724   25.1757 C   0  0  0  0  0  0  0  0  0  0  0  0
    7.7272   -1.8285   24.2802 C   0  0  0  0  0  0  0  0  0  0  0  0
    6.5007   -2.7448   24.5377 C   0  0  0  0  0  0  0  0  0  0  0  0
    6.6249   -4.0601   23.7995 C   0  0  0  0  0  0  0  0  0  0  0  0
    6.0759   -4.2065   22.5132 C   0  0  0  0  0  0  0  0  0  0  0  0
    6.2352   -5.3837   21.7733 C   0  0  0  0  0  0  0  0  0  0  0  0
    7.0363   -6.4025   22.2872 C   0  0  0  0  0  0  0  0  0  0  0  0
    7.6481   -6.2196   23.5268 C   0  0  0  0  0  0  0  0  0  0  0  0
    7.3905   -5.1169   24.3442 C   0  0  0  0  0  0  0  0  0  0  0  0
    7.9047   -5.1163   25.7703 C   0  0  0  0  0  0  0  0  0  0  0  0
    8.4711   -6.0271   26.0008 H   0  0  0  0  0  0  0  0  0  0  0  0
    8.5539   -4.2579   25.9804 H   0  0  0  0  0  0  0  0  0  0  0  0
    7.0654   -5.0739   26.4747 H   0  0  0  0  0  0  0  0  0  0  0  0
    8.3514   -6.9509   23.8869 H   0  0  0  0  0  0  0  0  0  0  0  0
    7.1672   -7.3452   21.7583 H   0  0  0  0  0  0  0  0  0  0  0  0
    5.7172   -5.5162   20.8287 H   0  0  0  0  0  0  0  0  0  0  0  0
    5.5090   -3.3810   22.0920 H   0  0  0  0  0  0  0  0  0  0  0  0
    6.4181   -2.9234   25.6166 H   0  0  0  0  0  0  0  0  0  0  0  0
    5.5754   -2.2309   24.2586 H   0  0  0  0  0  0  0  0  0  0  0  0
    7.9114   -1.5101   22.8226 C   0  0  0  0  0  0  0  0  0  0  0  0
    8.8637   -1.8661   22.0237 N   0  0  0  0  0  0  0  0  0  0  0  0
    8.5567   -1.3445   20.7725 N   0  0  0  0  0  0  0  0  0  0  0  0
    7.4338   -0.7113   20.9088 C   0  0  0  0  0  0  0  0  0  0  0  0
    6.6494    0.0082   19.9097 C   0  0  0  0  0  0  0  0  0  0  0  0
    5.4283    0.6570   20.1639 C   0  0  0  0  0  0  0  0  0  0  0  0
    4.8005    1.3091   19.1041 C   0  0  0  0  0  0  0  0  0  0  0  0
    5.4088    1.2889   17.8421 C   0  0  0  0  0  0  0  0  0  0  0  0
    6.5686    0.6655   17.5891 N   0  0  0  0  0  0  0  0  0  0  0  0
    7.1700    0.0483   18.6093 C   0  0  0  0  0  0  0  0  0  0  0  0
    8.1189   -0.4410   18.3943 H   0  0  0  0  0  0  0  0  0  0  0  0
    4.9455    1.7952   16.9984 H   0  0  0  0  0  0  0  0  0  0  0  0
    3.8672    1.8443   19.2368 H   0  0  0  0  0  0  0  0  0  0  0  0
    4.9781    0.6666   21.1580 H   0  0  0  0  0  0  0  0  0  0  0  0
    6.9670   -0.7734   22.1795 O   0  0  0  0  0  0  0  0  0  0  0  0
    8.6228   -2.4149   24.5286 H   0  0  0  0  0  0  0  0  0  0  0  0
    7.5603   -0.9017   26.2150 H   0  0  0  0  0  0  0  0  0  0  0  0
    6.8098    0.0290   24.9297 H   0  0  0  0  0  0  0  0  0  0  0  0
    8.9205    1.1343   25.7479 H   0  0  0  0  0  0  0  0  0  0  0  0
    9.1093    0.6603   24.0553 H   0  0  0  0  0  0  0  0  0  0  0  0
    9.8536   -0.3080   25.3346 H   0  0  0  0  0  0  0  0  0  0  0  0
  1  2  1  0
  2  3  1  0
  3  4  1  0
  4  5  1  0
  5  6  2  0
  6  7  1  0
  7  8  2  0
  8  9  1  0
  9 10  2  0
 10 11  1  0
 11 12  1  0
 11 13  1  0
 11 14  1  0
  9 15  1  0
  8 16  1  0
  7 17  1  0
  6 18  1  0
  4 19  1  0
  4 20  1  0
  3 21  1  0
 21 22  2  0
 22 23  1  0
 23 24  2  0
 24 25  1  0
 25 26  2  0
 26 27  1  0
 27 28  2  0
 28 29  1  0
 29 30  2  0
 30 31  1  0
 28 32  1  0
 27 33  1  0
 26 34  1  0
 24 35  1  0
  3 36  1  0
  2 37  1  0
  2 38  1  0
  1 39  1  0
  1 40  1  0
  1 41  1  0
 10  5  1  0
 35 21  1  0
 30 25  1  0
M  END
>  <cnnaffinity>  (1) 
-5.68023

>  <filename>  (1) 
CCC(Cc1ccccc1C)c1nnc(-c2cccnc2)o1

$$$$
