
     RDKit          3D

 44 46  0  0  0  0  0  0  0  0999 V2000
    7.1472   -3.9109   24.2917 C   0  0  0  0  0  0  0  0  0  0  0  0
    7.7800   -4.4599   23.0233 C   0  0  0  0  0  0  0  0  0  0  0  0
    8.8629   -3.5389   22.4215 C   0  0  0  0  0  0  0  0  0  0  0  0
   10.1257   -3.4282   23.3015 C   0  0  0  0  0  0  0  0  0  0  0  0
    9.9166   -2.8736   24.2238 H   0  0  0  0  0  0  0  0  0  0  0  0
   10.4852   -4.4049   23.6328 H   0  0  0  0  0  0  0  0  0  0  0  0
   10.9438   -2.9179   22.7779 H   0  0  0  0  0  0  0  0  0  0  0  0
    8.3374   -2.1873   22.0468 C   0  0  0  0  0  0  0  0  0  0  0  0
    8.3677   -1.1352   22.8398 N   0  0  0  0  0  0  0  0  0  0  0  0
    7.7635   -0.1765   22.0997 N   0  0  0  0  0  0  0  0  0  0  0  0
    7.5930    1.1821   22.6291 C   0  0  0  0  0  0  0  0  0  0  0  0
    8.8535    1.6698   23.3418 C   0  0  0  0  0  0  0  0  0  0  0  0
    8.7204    2.7120   23.6491 H   0  0  0  0  0  0  0  0  0  0  0  0
    9.7184    1.6020   22.6765 H   0  0  0  0  0  0  0  0  0  0  0  0
    9.0445    1.0677   24.2384 H   0  0  0  0  0  0  0  0  0  0  0  0
    6.3717    1.2841   23.5326 C   0  0  0  0  0  0  0  0  0  0  0  0
    6.1854    0.4139   24.6101 C   0  0  0  0  0  0  0  0  0  0  0  0
    5.0646    0.5738   25.4224 C   0  0  0  0  0  0  0  0  0  0  0  0
    4.1424    1.5313   25.2502 N   0  0  0  0  0  0  0  0  0  0  0  0
    4.3419    2.3777   24.2340 C   0  0  0  0  0  0  0  0  0  0  0  0
    5.4270    2.2990   23.3562 C   0  0  0  0  0  0  0  0  0  0  0  0
    5.5192    3.0169   22.5493 H   0  0  0  0  0  0  0  0  0  0  0  0
    3.5928    3.1531   24.0996 H   0  0  0  0  0  0  0  0  0  0  0  0
    4.9069   -0.1009   26.2583 H   0  0  0  0  0  0  0  0  0  0  0  0
    6.9005   -0.3731   24.8103 H   0  0  0  0  0  0  0  0  0  0  0  0
    7.4119    1.8202   21.7626 H   0  0  0  0  0  0  0  0  0  0  0  0
    7.3875   -0.7132   20.9131 C   0  0  0  0  0  0  0  0  0  0  0  0
    6.6457    0.0188   19.8951 C   0  0  0  0  0  0  0  0  0  0  0  0
    5.4307    0.6654   20.1561 C   0  0  0  0  0  0  0  0  0  0  0  0
    4.7985    1.3187   19.1029 C   0  0  0  0  0  0  0  0  0  0  0  0
    5.4023    1.2937   17.8406 C   0  0  0  0  0  0  0  0  0  0  0  0
    6.5661    0.6762   17.5830 N   0  0  0  0  0  0  0  0  0  0  0  0
    7.1663    0.0480   18.5974 C   0  0  0  0  0  0  0  0  0  0  0  0
    8.1155   -0.4401   18.3817 H   0  0  0  0  0  0  0  0  0  0  0  0
    4.9220    1.7803   16.9961 H   0  0  0  0  0  0  0  0  0  0  0  0
    3.8664    1.8483   19.2541 H   0  0  0  0  0  0  0  0  0  0  0  0
    4.9976    0.6385   21.1594 H   0  0  0  0  0  0  0  0  0  0  0  0
    7.7738   -1.9694   20.8331 N   0  0  0  0  0  0  0  0  0  0  0  0
    9.0357   -3.9369   21.4301 H   0  0  0  0  0  0  0  0  0  0  0  0
    8.2300   -5.4451   23.2111 H   0  0  0  0  0  0  0  0  0  0  0  0
    7.0166   -4.6180   22.2522 H   0  0  0  0  0  0  0  0  0  0  0  0
    6.3767   -4.5927   24.6609 H   0  0  0  0  0  0  0  0  0  0  0  0
    6.6897   -2.9332   24.1005 H   0  0  0  0  0  0  0  0  0  0  0  0
    7.8995   -3.7771   25.0775 H   0  0  0  0  0  0  0  0  0  0  0  0
  1  2  1  0
  2  3  1  0
  3  4  1  0
  4  5  1  0
  4  6  1  0
  4  7  1  0
  3  8  1  0
  8  9  2  0
  9 10  1  0
 10 11  1  0
 11 12  1  0
 12 13  1  0
 12 14  1  0
 12 15  1  0
 11 16  1  0
 16 17  2  0
 17 18  1  0
 18 19  2  0
 19 20  1  0
 20 21  2  0
 21 22  1  0
 20 23  1  0
 18 24  1  0
 17 25  1  0
 11 26  1  0
 10 27  1  0
 27 28  1  0
 28 29  2  0
 29 30  1  0
 30 31  2  0
 31 32  1  0
 32 33  2  0
 33 34  1  0
 31 35  1  0
 30 36  1  0
 29 37  1  0
 27 38  2  0
  3 39  1  0
  2 40  1  0
  2 41  1  0
  1 42  1  0
  1 43  1  0
  1 44  1  0
 38  8  1  0
 21 16  1  0
 33 28  1  0
M  END
>  <cnnaffinity>  (1) 
-5.8004

>  <filename>  (1) 
CCC(C)c1nc(-c2cccnc2)n(C(C)c2ccncc2)n1

$$$$
