
     RDKit          3D

 44 46  0  0  0  0  0  0  0  0999 V2000
    8.7894    3.3156   21.8863 C   0  0  0  0  0  0  0  0  0  0  0  0
    8.1913    1.9764   21.4426 C   0  0  0  0  0  0  0  0  0  0  0  0
    8.7844    0.7767   22.2255 C   0  0  0  0  0  0  0  0  0  0  0  0
    8.7655    1.0769   23.7230 C   0  0  0  0  0  0  0  0  0  0  0  0
    7.6604    1.2562   24.4973 C   0  0  0  0  0  0  0  0  0  0  0  0
    6.1976    1.1807   24.1936 C   0  0  0  0  0  0  0  0  0  0  0  0
    5.5843    1.2293   25.0952 H   0  0  0  0  0  0  0  0  0  0  0  0
    5.9655    0.2642   23.6449 H   0  0  0  0  0  0  0  0  0  0  0  0
    5.9139    2.0177   23.5420 H   0  0  0  0  0  0  0  0  0  0  0  0
    8.0270    1.6727   25.7171 O   0  0  0  0  0  0  0  0  0  0  0  0
    9.4004    1.8391   25.7606 N   0  0  0  0  0  0  0  0  0  0  0  0
    9.8292    1.5130   24.5686 C   0  0  0  0  0  0  0  0  0  0  0  0
   11.2680    1.6812   24.1986 C   0  0  0  0  0  0  0  0  0  0  0  0
   11.8591    1.9938   25.0589 H   0  0  0  0  0  0  0  0  0  0  0  0
   11.3621    2.4472   23.4192 H   0  0  0  0  0  0  0  0  0  0  0  0
   11.6909    0.7540   23.8027 H   0  0  0  0  0  0  0  0  0  0  0  0
    8.1761   -0.5813   21.8978 C   0  0  0  0  0  0  0  0  0  0  0  0
    8.5251   -1.6693   22.5745 N   0  0  0  0  0  0  0  0  0  0  0  0
    7.7805   -2.6441   22.0181 C   0  0  0  0  0  0  0  0  0  0  0  0
    7.7081   -3.9839   22.6265 C   0  0  0  0  0  0  0  0  0  0  0  0
    6.8190   -3.9038   23.8414 C   0  0  0  0  0  0  0  0  0  0  0  0
    6.8195   -5.0876   24.4826 F   0  0  0  0  0  0  0  0  0  0  0  0
    5.5508   -3.6326   23.4877 F   0  0  0  0  0  0  0  0  0  0  0  0
    7.2024   -2.9754   24.7232 F   0  0  0  0  0  0  0  0  0  0  0  0
    8.7009   -4.3032   22.9383 H   0  0  0  0  0  0  0  0  0  0  0  0
    7.2641   -4.6944   21.9293 H   0  0  0  0  0  0  0  0  0  0  0  0
    7.0294   -2.2800   21.0134 N   0  0  0  0  0  0  0  0  0  0  0  0
    7.2776   -0.9440   20.9179 N   0  0  0  0  0  0  0  0  0  0  0  0
    6.5991   -0.2335   19.8736 C   0  0  0  0  0  0  0  0  0  0  0  0
    5.4224    0.4734   20.1275 C   0  0  0  0  0  0  0  0  0  0  0  0
    4.8662    1.2273   19.0890 C   0  0  0  0  0  0  0  0  0  0  0  0
    5.4822    1.1992   17.8339 C   0  0  0  0  0  0  0  0  0  0  0  0
    6.5586    0.4398   17.5580 N   0  0  0  0  0  0  0  0  0  0  0  0
    7.0827   -0.2831   18.5552 C   0  0  0  0  0  0  0  0  0  0  0  0
    7.9320   -0.9203   18.3090 H   0  0  0  0  0  0  0  0  0  0  0  0
    5.0993    1.8081   17.0180 H   0  0  0  0  0  0  0  0  0  0  0  0
    3.9818    1.8355   19.2508 H   0  0  0  0  0  0  0  0  0  0  0  0
    4.9514    0.4234   21.1121 H   0  0  0  0  0  0  0  0  0  0  0  0
    9.8377    0.6516   21.9235 H   0  0  0  0  0  0  0  0  0  0  0  0
    7.1132    2.0336   21.6126 H   0  0  0  0  0  0  0  0  0  0  0  0
    8.3378    1.8058   20.3712 H   0  0  0  0  0  0  0  0  0  0  0  0
    8.4877    4.1447   21.2385 H   0  0  0  0  0  0  0  0  0  0  0  0
    9.8851    3.2566   21.9374 H   0  0  0  0  0  0  0  0  0  0  0  0
    8.4605    3.5725   22.8950 H   0  0  0  0  0  0  0  0  0  0  0  0
  1  2  1  0
  2  3  1  0
  3  4  1  0
  4  5  2  0
  5  6  1  0
  6  7  1  0
  6  8  1  0
  6  9  1  0
  5 10  1  0
 10 11  1  0
 11 12  2  0
 12 13  1  0
 13 14  1  0
 13 15  1  0
 13 16  1  0
  3 17  1  0
 17 18  2  0
 18 19  1  0
 19 20  1  0
 20 21  1  0
 21 22  1  0
 21 23  1  0
 21 24  1  0
 20 25  1  0
 20 26  1  0
 19 27  2  0
 27 28  1  0
 28 29  1  0
 29 30  2  0
 30 31  1  0
 31 32  2  0
 32 33  1  0
 33 34  2  0
 34 35  1  0
 32 36  1  0
 31 37  1  0
 30 38  1  0
  3 39  1  0
  2 40  1  0
  2 41  1  0
  1 42  1  0
  1 43  1  0
  1 44  1  0
 12  4  1  0
 28 17  1  0
 34 29  1  0
M  END
>  <cnnaffinity>  (1) 
-6.10143

>  <filename>  (1) 
CCC(c1c(C)noc1C)c1nc(CC(F)(F)F)nn1-c1cccnc1

$$$$
