
     RDKit          3D

 36 37  0  0  0  0  0  0  0  0999 V2000
    6.0687   -2.7675   20.6746 C   0  0  0  0  0  0  0  0  0  0  0  0
    7.3608   -2.0498   21.0460 C   0  0  0  0  0  0  0  0  0  0  0  0
    7.2302   -0.5277   21.3032 C   0  0  0  0  0  0  0  0  0  0  0  0
    8.5452    0.0129   21.5263 N   0  0  0  0  0  0  0  0  0  0  0  0
    9.3487   -0.2551   22.5531 C   0  0  0  0  0  0  0  0  0  0  0  0
    8.9589   -1.0021   23.6582 C   0  0  0  0  0  0  0  0  0  0  0  0
    9.8731   -1.0352   24.6783 C   0  0  0  0  0  0  0  0  0  0  0  0
   11.0741   -0.4435   24.5961 N   0  0  0  0  0  0  0  0  0  0  0  0
   11.3792    0.1539   23.4411 C   0  0  0  0  0  0  0  0  0  0  0  0
   12.7540    0.8958   23.3260 C   0  0  0  0  0  0  0  0  0  0  0  0
   12.6052    2.3465   23.7403 C   0  0  0  0  0  0  0  0  0  0  0  0
   11.9082    2.8381   23.0518 H   0  0  0  0  0  0  0  0  0  0  0  0
   12.2085    2.3986   24.7591 H   0  0  0  0  0  0  0  0  0  0  0  0
   13.5859    2.8275   23.6943 H   0  0  0  0  0  0  0  0  0  0  0  0
   13.2155    0.8622   22.0420 F   0  0  0  0  0  0  0  0  0  0  0  0
   13.7202    0.3022   24.0861 F   0  0  0  0  0  0  0  0  0  0  0  0
   10.5446    0.3124   22.4157 N   0  0  0  0  0  0  0  0  0  0  0  0
    9.6481   -1.5485   25.6168 H   0  0  0  0  0  0  0  0  0  0  0  0
    7.9938   -1.4809   23.6958 H   0  0  0  0  0  0  0  0  0  0  0  0
    9.0469    0.5767   20.8654 H   0  0  0  0  0  0  0  0  0  0  0  0
    6.6194    0.2245   20.1408 C   0  0  0  0  0  0  0  0  0  0  0  0
    5.3635    0.8544   20.2043 C   0  0  0  0  0  0  0  0  0  0  0  0
    4.8197    1.3946   19.0355 C   0  0  0  0  0  0  0  0  0  0  0  0
    5.5525    1.3078   17.8503 C   0  0  0  0  0  0  0  0  0  0  0  0
    6.7599    0.7286   17.7723 N   0  0  0  0  0  0  0  0  0  0  0  0
    7.2778    0.2299   18.9021 C   0  0  0  0  0  0  0  0  0  0  0  0
    8.2685   -0.2173   18.7804 H   0  0  0  0  0  0  0  0  0  0  0  0
    5.1571    1.7062   16.9167 H   0  0  0  0  0  0  0  0  0  0  0  0
    3.8495    1.8824   19.0278 H   0  0  0  0  0  0  0  0  0  0  0  0
    4.8242    0.9327   21.1521 H   0  0  0  0  0  0  0  0  0  0  0  0
    6.6074   -0.3557   22.2036 H   0  0  0  0  0  0  0  0  0  0  0  0
    8.1203   -2.1469   20.2656 H   0  0  0  0  0  0  0  0  0  0  0  0
    7.7980   -2.5216   21.9309 H   0  0  0  0  0  0  0  0  0  0  0  0
    5.5597   -2.2813   19.8354 H   0  0  0  0  0  0  0  0  0  0  0  0
    6.2767   -3.8019   20.3882 H   0  0  0  0  0  0  0  0  0  0  0  0
    5.3770   -2.7926   21.5237 H   0  0  0  0  0  0  0  0  0  0  0  0
  1  2  1  0
  2  3  1  0
  3  4  1  0
  4  5  1  0
  5  6  2  0
  6  7  1  0
  7  8  2  0
  8  9  1  0
  9 10  1  0
 10 11  1  0
 11 12  1  0
 11 13  1  0
 11 14  1  0
 10 15  1  0
 10 16  1  0
  9 17  2  0
  7 18  1  0
  6 19  1  0
  4 20  1  0
  3 21  1  0
 21 22  2  0
 22 23  1  0
 23 24  2  0
 24 25  1  0
 25 26  2  0
 26 27  1  0
 24 28  1  0
 23 29  1  0
 22 30  1  0
  3 31  1  0
  2 32  1  0
  2 33  1  0
  1 34  1  0
  1 35  1  0
  1 36  1  0
 17  5  1  0
 26 21  1  0
M  END
>  <cnnaffinity>  (1) 
-5.07091

>  <filename>  (1) 
CCC(Nc1ccnc(C(C)(F)F)n1)c1cccnc1

$$$$
