
     RDKit          3D

 41 43  0  0  0  0  0  0  0  0999 V2000
    5.6739   -2.5040   21.6775 C   0  0  0  0  0  0  0  0  0  0  0  0
    7.0301   -2.2749   21.0198 C   0  0  0  0  0  0  0  0  0  0  0  0
    7.4616   -0.8000   20.9361 C   0  0  0  0  0  0  0  0  0  0  0  0
    7.3824   -0.0884   22.2696 N   0  0  0  0  0  4  0  0  0  0  0  0
    8.3377   -0.5519   23.3169 C   0  0  0  0  0  0  0  0  0  0  0  0
    9.7713   -0.2664   22.9151 C   0  0  0  0  0  0  0  0  0  0  0  0
   10.5523   -1.2680   22.3614 C   0  0  0  0  0  0  0  0  0  0  0  0
   11.8946   -1.0459   21.9574 C   0  0  0  0  0  0  0  0  0  0  0  0
   12.4595    0.2001   22.1180 C   0  0  0  0  0  0  0  0  0  0  0  0
   11.6933    1.2761   22.6542 C   0  0  0  0  0  0  0  0  0  0  0  0
   12.2169    2.5932   22.8054 C   0  0  0  0  0  0  0  0  0  0  0  0
   11.4309    3.5808   23.3434 C   0  0  0  0  0  0  0  0  0  0  0  0
   10.1534    3.3838   23.7555 N   0  0  0  0  0  0  0  0  0  0  0  0
    9.6411    2.1741   23.6140 C   0  0  0  0  0  0  0  0  0  0  0  0
   10.3395    1.0466   23.0700 C   0  0  0  0  0  0  0  0  0  0  0  0
    8.6059    2.0641   23.9448 H   0  0  0  0  0  0  0  0  0  0  0  0
   11.8116    4.5949   23.4781 H   0  0  0  0  0  0  0  0  0  0  0  0
   13.2334    2.8134   22.4974 H   0  0  0  0  0  0  0  0  0  0  0  0
   13.4953    0.3942   21.8523 H   0  0  0  0  0  0  0  0  0  0  0  0
   12.4588   -1.8699   21.5226 H   0  0  0  0  0  0  0  0  0  0  0  0
   10.1230   -2.2580   22.2225 H   0  0  0  0  0  0  0  0  0  0  0  0
    8.1109   -0.1063   24.2890 H   0  0  0  0  0  0  0  0  0  0  0  0
    8.2408   -1.6351   23.4518 H   0  0  0  0  0  0  0  0  0  0  0  0
    7.5809    0.9114   22.0229 H   0  0  0  0  0  0  0  0  0  0  0  0
    6.3865   -0.1664   22.5530 H   0  0  0  0  0  0  0  0  0  0  0  0
    6.6726    0.0213   19.9408 C   0  0  0  0  0  0  0  0  0  0  0  0
    5.4464    0.6761   20.1712 C   0  0  0  0  0  0  0  0  0  0  0  0
    4.8069    1.3267   19.1092 C   0  0  0  0  0  0  0  0  0  0  0  0
    5.4013    1.3002   17.8464 C   0  0  0  0  0  0  0  0  0  0  0  0
    6.5608    0.6791   17.6002 N   0  0  0  0  0  0  0  0  0  0  0  0
    7.1658    0.0709   18.6250 C   0  0  0  0  0  0  0  0  0  0  0  0
    8.1142   -0.4057   18.3733 H   0  0  0  0  0  0  0  0  0  0  0  0
    4.9352    1.7948   16.9940 H   0  0  0  0  0  0  0  0  0  0  0  0
    3.8667    1.8542   19.2375 H   0  0  0  0  0  0  0  0  0  0  0  0
    4.9700    0.6901   21.1561 H   0  0  0  0  0  0  0  0  0  0  0  0
    8.5137   -0.7867   20.6379 H   0  0  0  0  0  0  0  0  0  0  0  0
    7.8150   -2.8482   21.5217 H   0  0  0  0  0  0  0  0  0  0  0  0
    6.9850   -2.6385   19.9953 H   0  0  0  0  0  0  0  0  0  0  0  0
    5.7133   -2.4415   22.7720 H   0  0  0  0  0  0  0  0  0  0  0  0
    4.9980   -1.7218   21.3308 H   0  0  0  0  0  0  0  0  0  0  0  0
    5.2185   -3.4599   21.4032 H   0  0  0  0  0  0  0  0  0  0  0  0
  1  2  1  0
  2  3  1  0
  3  4  1  0
  4  5  1  0
  5  6  1  0
  6  7  2  0
  7  8  1  0
  8  9  2  0
  9 10  1  0
 10 11  2  0
 11 12  1  0
 12 13  2  0
 13 14  1  0
 14 15  2  0
 14 16  1  0
 12 17  1  0
 11 18  1  0
  9 19  1  0
  8 20  1  0
  7 21  1  0
  5 22  1  0
  5 23  1  0
  4 24  1  0
  4 25  1  0
  3 26  1  0
 26 27  2  0
 27 28  1  0
 28 29  2  0
 29 30  1  0
 30 31  2  0
 31 32  1  0
 29 33  1  0
 28 34  1  0
 27 35  1  0
  3 36  1  0
  2 37  1  0
  2 38  1  0
  1 39  1  0
  1 40  1  0
  1 41  1  0
 15  6  1  0
 31 26  1  0
 15 10  1  0
M  CHG  1   4   1
M  END
>  <cnnaffinity>  (1) 
-5.55215

>  <filename>  (1) 
CCC([NH2+]Cc1cccc2ccncc12)c1cccnc1

$$$$
