
     RDKit          3D

 41 44  0  0  0  0  0  0  0  0999 V2000
    8.5153   -5.7793   23.4750 C   0  0  0  0  0  0  0  0  0  0  0  0
    7.9030   -4.4005   23.2238 C   0  0  0  0  0  0  0  0  0  0  0  0
    8.8008   -3.4958   22.3595 C   0  0  0  0  0  0  0  0  0  0  0  0
   10.1112   -3.3958   22.9276 O   0  0  0  0  0  0  0  0  0  0  0  0
   10.0793   -2.8125   23.7055 H   0  0  0  0  0  0  0  0  0  0  0  0
    8.1652   -2.1593   22.0230 C   0  0  0  0  0  0  0  0  0  0  0  0
    7.8418   -1.8135   20.7913 N   0  0  0  0  0  0  0  0  0  0  0  0
    7.3185   -0.5689   20.9409 N   0  0  0  0  0  0  0  0  0  0  0  0
    6.6192    0.0492   19.8697 C   0  0  0  0  0  0  0  0  0  0  0  0
    5.4053    0.7121   20.0897 C   0  0  0  0  0  0  0  0  0  0  0  0
    4.8061    1.3451   19.0000 C   0  0  0  0  0  0  0  0  0  0  0  0
    5.4334    1.2996   17.7509 C   0  0  0  0  0  0  0  0  0  0  0  0
    6.5748    0.6244   17.5279 N   0  0  0  0  0  0  0  0  0  0  0  0
    7.1389   -0.0027   18.5638 C   0  0  0  0  0  0  0  0  0  0  0  0
    8.0419   -0.5714   18.3614 H   0  0  0  0  0  0  0  0  0  0  0  0
    5.0043    1.8178   16.8955 H   0  0  0  0  0  0  0  0  0  0  0  0
    3.8610    1.8669   19.1057 H   0  0  0  0  0  0  0  0  0  0  0  0
    4.9424    0.7348   21.0788 H   0  0  0  0  0  0  0  0  0  0  0  0
    7.4119   -0.2032   22.2574 C   0  0  0  0  0  0  0  0  0  0  0  0
    7.1436    1.1317   22.8041 C   0  0  0  0  0  0  0  0  0  0  0  0
    6.5840    1.2223   24.0971 C   0  0  0  0  0  0  0  0  0  0  0  0
    6.2231    0.2128   24.9363 N   0  0  0  0  0  0  0  0  0  0  0  0
    5.6803    0.7432   26.0804 C   0  0  0  0  0  0  0  0  0  0  0  0
    5.6773    2.1058   25.9914 C   0  0  0  0  0  0  0  0  0  0  0  0
    6.2615    2.4561   24.7190 C   0  0  0  0  0  0  0  0  0  0  0  0
    6.5628    3.6608   24.0378 C   0  0  0  0  0  0  0  0  0  0  0  0
    7.1517    3.5611   22.7818 C   0  0  0  0  0  0  0  0  0  0  0  0
    7.4701    4.6877   22.1220 F   0  0  0  0  0  0  0  0  0  0  0  0
    7.4443    2.3368   22.1539 C   0  0  0  0  0  0  0  0  0  0  0  0
    7.8946    2.3430   21.1651 H   0  0  0  0  0  0  0  0  0  0  0  0
    6.3654    4.6452   24.4491 H   0  0  0  0  0  0  0  0  0  0  0  0
    5.3038    2.7799   26.7530 H   0  0  0  0  0  0  0  0  0  0  0  0
    5.3098    0.0869   26.8624 H   0  0  0  0  0  0  0  0  0  0  0  0
    6.5397   -0.7282   24.7527 H   0  0  0  0  0  0  0  0  0  0  0  0
    7.8770   -1.2279   22.9643 N   0  0  0  0  0  0  0  0  0  0  0  0
    8.8938   -3.9759   21.3782 H   0  0  0  0  0  0  0  0  0  0  0  0
    7.6859   -3.9023   24.1811 H   0  0  0  0  0  0  0  0  0  0  0  0
    6.9494   -4.5306   22.6936 H   0  0  0  0  0  0  0  0  0  0  0  0
    7.7580   -6.4416   23.8923 H   0  0  0  0  0  0  0  0  0  0  0  0
    8.8676   -6.2379   22.5421 H   0  0  0  0  0  0  0  0  0  0  0  0
    9.3533   -5.7350   24.1806 H   0  0  0  0  0  0  0  0  0  0  0  0
  1  2  1  0
  2  3  1  0
  3  4  1  0
  4  5  1  0
  3  6  1  0
  6  7  2  0
  7  8  1  0
  8  9  1  0
  9 10  2  0
 10 11  1  0
 11 12  2  0
 12 13  1  0
 13 14  2  0
 14 15  1  0
 12 16  1  0
 11 17  1  0
 10 18  1  0
  8 19  1  0
 19 20  1  0
 20 21  2  0
 21 22  1  0
 22 23  1  0
 23 24  2  0
 24 25  1  0
 25 26  2  0
 26 27  1  0
 27 28  1  0
 27 29  2  0
 29 30  1  0
 26 31  1  0
 24 32  1  0
 23 33  1  0
 22 34  1  0
 19 35  2  0
  3 36  1  0
  2 37  1  0
  2 38  1  0
  1 39  1  0
  1 40  1  0
  1 41  1  0
 35  6  1  0
 14  9  1  0
 29 20  1  0
 25 21  1  0
M  END
>  <cnnaffinity>  (1) 
-6.04553

>  <filename>  (1) 
CCC(O)c1nc(-c2cc(F)cc3cc[nH]c23)n(-c2cccnc2)n1

$$$$
