
     RDKit          3D

 33 34  0  0  0  0  0  0  0  0999 V2000
    6.1552   -2.8363   20.6435 C   0  0  0  0  0  0  0  0  0  0  0  0
    7.4359   -2.0922   20.9862 C   0  0  0  0  0  0  0  0  0  0  0  0
    7.3103   -0.5798   21.2142 C   0  0  0  0  0  0  0  0  0  0  0  0
    8.6387   -0.0269   21.3774 N   0  0  0  0  0  0  0  0  0  0  0  0
    9.3781   -0.2623   22.4603 C   0  0  0  0  0  0  0  0  0  0  0  0
    8.7910   -0.9915   23.4074 N   0  0  0  0  0  0  0  0  0  0  0  0
    9.4420   -1.1884   24.5459 C   0  0  0  0  0  0  0  0  0  0  0  0
    8.6247   -1.9124   25.6756 C   0  0  0  0  0  0  0  0  0  0  0  0
    7.6739   -2.7264   25.1785 F   0  0  0  0  0  0  0  0  0  0  0  0
    9.3791   -2.6623   26.4878 F   0  0  0  0  0  0  0  0  0  0  0  0
    7.9983   -1.0049   26.4480 F   0  0  0  0  0  0  0  0  0  0  0  0
   10.6767   -0.7465   24.7905 N   0  0  0  0  0  0  0  0  0  0  0  0
   11.2779   -0.0379   23.8163 C   0  0  0  0  0  0  0  0  0  0  0  0
   10.6791    0.2508   22.6087 C   0  0  0  0  0  0  0  0  0  0  0  0
   11.4582    1.2039   21.3754 Cl  0  0  0  0  0  0  0  0  0  0  0  0
   12.2854    0.3159   24.0370 H   0  0  0  0  0  0  0  0  0  0  0  0
    9.0601    0.4990   20.6377 H   0  0  0  0  0  0  0  0  0  0  0  0
    6.6300    0.1308   20.0848 C   0  0  0  0  0  0  0  0  0  0  0  0
    5.3912    0.7645   20.2257 C   0  0  0  0  0  0  0  0  0  0  0  0
    4.8065    1.3473   19.0996 C   0  0  0  0  0  0  0  0  0  0  0  0
    5.4875    1.2807   17.8781 C   0  0  0  0  0  0  0  0  0  0  0  0
    6.6765    0.6744   17.7301 N   0  0  0  0  0  0  0  0  0  0  0  0
    7.2206    0.1210   18.8197 C   0  0  0  0  0  0  0  0  0  0  0  0
    8.1772   -0.3894   18.6770 H   0  0  0  0  0  0  0  0  0  0  0  0
    5.0516    1.7240   16.9833 H   0  0  0  0  0  0  0  0  0  0  0  0
    3.8465    1.8468   19.1576 H   0  0  0  0  0  0  0  0  0  0  0  0
    4.9047    0.8042   21.2041 H   0  0  0  0  0  0  0  0  0  0  0  0
    6.7426   -0.4071   22.1362 H   0  0  0  0  0  0  0  0  0  0  0  0
    8.1667   -2.1719   20.1836 H   0  0  0  0  0  0  0  0  0  0  0  0
    7.9165   -2.5296   21.8631 H   0  0  0  0  0  0  0  0  0  0  0  0
    5.6622   -2.3884   19.7750 H   0  0  0  0  0  0  0  0  0  0  0  0
    5.4472   -2.8311   21.4799 H   0  0  0  0  0  0  0  0  0  0  0  0
    6.3902   -3.8771   20.4025 H   0  0  0  0  0  0  0  0  0  0  0  0
  1  2  1  0
  2  3  1  0
  3  4  1  0
  4  5  1  0
  5  6  2  0
  6  7  1  0
  7  8  1  0
  8  9  1  0
  8 10  1  0
  8 11  1  0
  7 12  2  0
 12 13  1  0
 13 14  2  0
 14 15  1  0
 13 16  1  0
  4 17  1  0
  3 18  1  0
 18 19  2  0
 19 20  1  0
 20 21  2  0
 21 22  1  0
 22 23  2  0
 23 24  1  0
 21 25  1  0
 20 26  1  0
 19 27  1  0
  3 28  1  0
  2 29  1  0
  2 30  1  0
  1 31  1  0
  1 32  1  0
  1 33  1  0
 14  5  1  0
 23 18  1  0
M  END
>  <cnnaffinity>  (1) 
-5.48862

>  <filename>  (1) 
CCC(Nc1nc(C(F)(F)F)ncc1Cl)c1cccnc1

$$$$
