
     RDKit          3D

 38 39  0  0  0  0  0  0  0  0999 V2000
    8.6523    1.3810   21.7983 C   0  0  0  0  0  0  0  0  0  0  0  0
    8.7709   -0.0694   21.3256 C   0  0  0  0  0  0  0  0  0  0  0  0
    7.3983   -0.7436   21.0607 C   0  0  0  0  0  0  0  0  0  0  0  0
    7.5231   -2.1534   20.7649 N   0  0  0  0  0  0  0  0  0  0  0  0
    7.8048   -3.1506   21.6865 C   0  0  0  0  0  0  0  0  0  0  0  0
    7.8969   -4.4954   21.2706 C   0  0  0  0  0  0  0  0  0  0  0  0
    8.2401   -5.4958   22.1858 C   0  0  0  0  0  0  0  0  0  0  0  0
    8.4540   -5.1796   23.5276 C   0  0  0  0  0  0  0  0  0  0  0  0
    8.3015   -3.8617   23.9631 C   0  0  0  0  0  0  0  0  0  0  0  0
    8.3242   -3.5792   25.4442 C   0  0  0  0  0  0  0  0  0  0  0  0
    6.9642   -3.7881   26.0838 C   0  0  0  0  0  0  0  0  0  0  0  0
    7.0273   -3.5725   27.4103 F   0  0  0  0  0  0  0  0  0  0  0  0
    6.0352   -2.9497   25.5884 F   0  0  0  0  0  0  0  0  0  0  0  0
    6.5126   -5.0458   25.9084 F   0  0  0  0  0  0  0  0  0  0  0  0
    8.6380   -2.5603   25.6822 H   0  0  0  0  0  0  0  0  0  0  0  0
    9.0097   -4.2584   25.9556 H   0  0  0  0  0  0  0  0  0  0  0  0
    7.9699   -2.8623   23.0491 C   0  0  0  0  0  0  0  0  0  0  0  0
    7.8029   -1.8482   23.3936 H   0  0  0  0  0  0  0  0  0  0  0  0
    8.6824   -5.9418   24.2690 H   0  0  0  0  0  0  0  0  0  0  0  0
    8.3173   -6.5368   21.8859 H   0  0  0  0  0  0  0  0  0  0  0  0
    7.6263   -4.7435   20.2518 H   0  0  0  0  0  0  0  0  0  0  0  0
    7.4632   -2.4303   19.8030 H   0  0  0  0  0  0  0  0  0  0  0  0
    6.6306   -0.0673   19.9403 C   0  0  0  0  0  0  0  0  0  0  0  0
    5.4232    0.6173   20.1534 C   0  0  0  0  0  0  0  0  0  0  0  0
    4.8209    1.2776   19.0803 C   0  0  0  0  0  0  0  0  0  0  0  0
    5.4489    1.2406   17.8343 C   0  0  0  0  0  0  0  0  0  0  0  0
    6.5917    0.5792   17.6045 N   0  0  0  0  0  0  0  0  0  0  0  0
    7.1584   -0.0548   18.6421 C   0  0  0  0  0  0  0  0  0  0  0  0
    8.1070   -0.5513   18.4179 H   0  0  0  0  0  0  0  0  0  0  0  0
    5.0310    1.7881   16.9906 H   0  0  0  0  0  0  0  0  0  0  0  0
    3.9023    1.8421   19.2052 H   0  0  0  0  0  0  0  0  0  0  0  0
    4.9638    0.6443   21.1429 H   0  0  0  0  0  0  0  0  0  0  0  0
    6.8018   -0.6443   21.9794 H   0  0  0  0  0  0  0  0  0  0  0  0
    9.3556   -0.1058   20.3991 H   0  0  0  0  0  0  0  0  0  0  0  0
    9.3277   -0.6674   22.0585 H   0  0  0  0  0  0  0  0  0  0  0  0
    8.1588    1.9948   21.0364 H   0  0  0  0  0  0  0  0  0  0  0  0
    8.0704    1.4596   22.7244 H   0  0  0  0  0  0  0  0  0  0  0  0
    9.6339    1.8231   21.9975 H   0  0  0  0  0  0  0  0  0  0  0  0
  1  2  1  0
  2  3  1  0
  3  4  1  0
  4  5  1  0
  5  6  2  0
  6  7  1  0
  7  8  2  0
  8  9  1  0
  9 10  1  0
 10 11  1  0
 11 12  1  0
 11 13  1  0
 11 14  1  0
 10 15  1  0
 10 16  1  0
  9 17  2  0
 17 18  1  0
  8 19  1  0
  7 20  1  0
  6 21  1  0
  4 22  1  0
  3 23  1  0
 23 24  2  0
 24 25  1  0
 25 26  2  0
 26 27  1  0
 27 28  2  0
 28 29  1  0
 26 30  1  0
 25 31  1  0
 24 32  1  0
  3 33  1  0
  2 34  1  0
  2 35  1  0
  1 36  1  0
  1 37  1  0
  1 38  1  0
 17  5  1  0
 28 23  1  0
M  END
>  <cnnaffinity>  (1) 
-5.27711

>  <filename>  (1) 
CCC(Nc1cccc(CC(F)(F)F)c1)c1cccnc1

$$$$
