
     RDKit          3D

 38 39  0  0  0  0  0  0  0  0999 V2000
    5.8194   -2.8434   20.7456 C   0  0  0  0  0  0  0  0  0  0  0  0
    7.1181   -2.1014   21.0677 C   0  0  0  0  0  0  0  0  0  0  0  0
    7.0398   -0.5693   21.2374 C   0  0  0  0  0  0  0  0  0  0  0  0
    8.4366    0.0008   21.3535 N   0  0  0  0  0  4  0  0  0  0  0  0
    9.1898   -0.2178   22.6266 C   0  0  0  0  0  0  0  0  0  0  0  0
   10.5976    0.3751   22.6446 C   0  0  0  0  0  0  0  0  0  0  0  0
   10.9330    1.6899   23.0125 C   0  0  0  0  0  0  0  0  0  0  0  0
   12.2835    2.0600   23.0198 C   0  0  0  0  0  0  0  0  0  0  0  0
   13.2600    1.1164   22.6894 C   0  0  0  0  0  0  0  0  0  0  0  0
   12.8313   -0.1698   22.3342 C   0  0  0  0  0  0  0  0  0  0  0  0
   13.8155   -1.2909   21.9623 C   0  0  0  0  0  0  0  0  0  0  0  0
   14.8617   -1.2958   22.8075 F   0  0  0  0  0  0  0  0  0  0  0  0
   13.2525   -2.4939   22.0253 F   0  0  0  0  0  0  0  0  0  0  0  0
   14.3270   -1.1559   20.7243 F   0  0  0  0  0  0  0  0  0  0  0  0
   11.5360   -0.5045   22.3025 N   0  0  0  0  0  0  0  0  0  0  0  0
   14.3151    1.3795   22.6825 H   0  0  0  0  0  0  0  0  0  0  0  0
   12.5862    3.0730   23.2868 H   0  0  0  0  0  0  0  0  0  0  0  0
   10.1658    2.3995   23.2981 H   0  0  0  0  0  0  0  0  0  0  0  0
    8.6230    0.1379   23.4918 H   0  0  0  0  0  0  0  0  0  0  0  0
    9.3717   -1.2892   22.7799 H   0  0  0  0  0  0  0  0  0  0  0  0
    8.3421    1.0235   21.1241 H   0  0  0  0  0  0  0  0  0  0  0  0
    8.9814   -0.4573   20.5724 H   0  0  0  0  0  0  0  0  0  0  0  0
    6.4502    0.1742   20.0624 C   0  0  0  0  0  0  0  0  0  0  0  0
    5.2173    0.8467   20.1324 C   0  0  0  0  0  0  0  0  0  0  0  0
    4.7108    1.4471   18.9736 C   0  0  0  0  0  0  0  0  0  0  0  0
    5.4568    1.3585   17.7952 C   0  0  0  0  0  0  0  0  0  0  0  0
    6.6350    0.7274   17.7088 N   0  0  0  0  0  0  0  0  0  0  0  0
    7.1140    0.1697   18.8271 C   0  0  0  0  0  0  0  0  0  0  0  0
    8.0801   -0.3226   18.7032 H   0  0  0  0  0  0  0  0  0  0  0  0
    5.0998    1.8119   16.8729 H   0  0  0  0  0  0  0  0  0  0  0  0
    3.7739    1.9965   18.9675 H   0  0  0  0  0  0  0  0  0  0  0  0
    4.6751    0.9204   21.0794 H   0  0  0  0  0  0  0  0  0  0  0  0
    6.4677   -0.3249   22.1441 H   0  0  0  0  0  0  0  0  0  0  0  0
    7.8616   -2.2658   20.2831 H   0  0  0  0  0  0  0  0  0  0  0  0
    7.5682   -2.5135   21.9798 H   0  0  0  0  0  0  0  0  0  0  0  0
    5.1156   -2.8284   21.5885 H   0  0  0  0  0  0  0  0  0  0  0  0
    6.0460   -3.9000   20.5476 H   0  0  0  0  0  0  0  0  0  0  0  0
    5.3232   -2.4100   19.8651 H   0  0  0  0  0  0  0  0  0  0  0  0
  1  2  1  0
  2  3  1  0
  3  4  1  0
  4  5  1  0
  5  6  1  0
  6  7  2  0
  7  8  1  0
  8  9  2  0
  9 10  1  0
 10 11  1  0
 11 12  1  0
 11 13  1  0
 11 14  1  0
 10 15  2  0
  9 16  1  0
  8 17  1  0
  7 18  1  0
  5 19  1  0
  5 20  1  0
  4 21  1  0
  4 22  1  0
  3 23  1  0
 23 24  2  0
 24 25  1  0
 25 26  2  0
 26 27  1  0
 27 28  2  0
 28 29  1  0
 26 30  1  0
 25 31  1  0
 24 32  1  0
  3 33  1  0
  2 34  1  0
  2 35  1  0
  1 36  1  0
  1 37  1  0
  1 38  1  0
 15  6  1  0
 28 23  1  0
M  CHG  1   4   1
M  END
>  <cnnaffinity>  (1) 
-5.24641

>  <filename>  (1) 
CCC([NH2+]Cc1cccc(C(F)(F)F)n1)c1cccnc1

$$$$
