
     RDKit          3D

 44 46  0  0  0  0  0  0  0  0999 V2000
    8.8220   -5.3606   23.9854 C   0  0  0  0  0  0  0  0  0  0  0  0
    8.2831   -3.9355   23.7780 C   0  0  0  0  0  0  0  0  0  0  0  0
    9.0358   -3.1908   22.6329 C   0  0  0  0  0  0  0  0  0  0  0  0
   10.4966   -2.8682   23.0255 C   0  0  0  0  0  0  0  0  0  0  0  0
   10.5375   -2.0167   23.7161 H   0  0  0  0  0  0  0  0  0  0  0  0
   10.9538   -3.7132   23.5446 H   0  0  0  0  0  0  0  0  0  0  0  0
   11.1250   -2.6436   22.1539 H   0  0  0  0  0  0  0  0  0  0  0  0
    8.3192   -1.9612   22.1385 C   0  0  0  0  0  0  0  0  0  0  0  0
    8.1513   -0.9213   22.9270 N   0  0  0  0  0  0  0  0  0  0  0  0
    7.4810   -0.0487   22.1454 N   0  0  0  0  0  0  0  0  0  0  0  0
    7.2374    1.2542   22.7303 C   0  0  0  0  0  0  0  0  0  0  0  0
    6.2423    1.1288   23.8924 C   0  0  0  0  0  0  0  0  0  0  0  0
    5.9026    2.4800   24.4458 C   0  0  0  0  0  0  0  0  0  0  0  0
    6.5939    3.0660   25.5119 C   0  0  0  0  0  0  0  0  0  0  0  0
    6.2797    4.3784   25.8813 C   0  0  0  0  0  0  0  0  0  0  0  0
    5.3395    5.1178   25.2760 N   0  0  0  0  0  0  0  0  0  0  0  0
    4.6740    4.5483   24.2614 C   0  0  0  0  0  0  0  0  0  0  0  0
    4.9187    3.2498   23.8160 C   0  0  0  0  0  0  0  0  0  0  0  0
    4.3573    2.8423   22.9802 H   0  0  0  0  0  0  0  0  0  0  0  0
    3.9134    5.1623   23.7809 H   0  0  0  0  0  0  0  0  0  0  0  0
    6.8080    4.8662   26.6998 H   0  0  0  0  0  0  0  0  0  0  0  0
    7.3589    2.5235   26.0614 H   0  0  0  0  0  0  0  0  0  0  0  0
    5.3282    0.6421   23.5256 H   0  0  0  0  0  0  0  0  0  0  0  0
    6.6796    0.4681   24.6517 H   0  0  0  0  0  0  0  0  0  0  0  0
    6.8843    1.9424   21.9580 H   0  0  0  0  0  0  0  0  0  0  0  0
    8.2025    1.6199   23.0990 H   0  0  0  0  0  0  0  0  0  0  0  0
    7.2503   -0.6058   20.9344 C   0  0  0  0  0  0  0  0  0  0  0  0
    6.5297    0.0711   19.8388 C   0  0  0  0  0  0  0  0  0  0  0  0
    5.3414    0.8025   20.0060 C   0  0  0  0  0  0  0  0  0  0  0  0
    4.7798    1.4367   18.8979 C   0  0  0  0  0  0  0  0  0  0  0  0
    5.4265    1.3328   17.6631 C   0  0  0  0  0  0  0  0  0  0  0  0
    6.5378    0.6043   17.4768 N   0  0  0  0  0  0  0  0  0  0  0  0
    7.0586   -0.0210   18.5408 C   0  0  0  0  0  0  0  0  0  0  0  0
    7.9491   -0.6176   18.3553 H   0  0  0  0  0  0  0  0  0  0  0  0
    5.0356    1.8458   16.7828 H   0  0  0  0  0  0  0  0  0  0  0  0
    3.8677    2.0191   18.9784 H   0  0  0  0  0  0  0  0  0  0  0  0
    4.8431    0.8651   20.9770 H   0  0  0  0  0  0  0  0  0  0  0  0
    7.8053   -1.8096   20.8889 N   0  0  0  0  0  0  0  0  0  0  0  0
    9.0197   -3.8503   21.7627 H   0  0  0  0  0  0  0  0  0  0  0  0
    8.3254   -3.3614   24.7170 H   0  0  0  0  0  0  0  0  0  0  0  0
    7.2159   -4.0072   23.5303 H   0  0  0  0  0  0  0  0  0  0  0  0
    8.8777   -5.8949   23.0258 H   0  0  0  0  0  0  0  0  0  0  0  0
    9.8211   -5.3743   24.4389 H   0  0  0  0  0  0  0  0  0  0  0  0
    8.1740   -5.9458   24.6460 H   0  0  0  0  0  0  0  0  0  0  0  0
  1  2  1  0
  2  3  1  0
  3  4  1  0
  4  5  1  0
  4  6  1  0
  4  7  1  0
  3  8  1  0
  8  9  2  0
  9 10  1  0
 10 11  1  0
 11 12  1  0
 12 13  1  0
 13 14  2  0
 14 15  1  0
 15 16  2  0
 16 17  1  0
 17 18  2  0
 18 19  1  0
 17 20  1  0
 15 21  1  0
 14 22  1  0
 12 23  1  0
 12 24  1  0
 11 25  1  0
 11 26  1  0
 10 27  1  0
 27 28  1  0
 28 29  2  0
 29 30  1  0
 30 31  2  0
 31 32  1  0
 32 33  2  0
 33 34  1  0
 31 35  1  0
 30 36  1  0
 29 37  1  0
 27 38  2  0
  3 39  1  0
  2 40  1  0
  2 41  1  0
  1 42  1  0
  1 43  1  0
  1 44  1  0
 38  8  1  0
 18 13  1  0
 33 28  1  0
M  END
>  <cnnaffinity>  (1) 
-5.88551

>  <filename>  (1) 
CCC(C)c1nc(-c2cccnc2)n(CCc2ccncc2)n1

$$$$
