
     RDKit          3D

 49 52  0  0  0  0  0  0  0  0999 V2000
   12.2451    0.1400   23.6475 C   0  0  0  0  0  0  0  0  0  0  0  0
   12.1426    1.6515   23.4411 C   0  0  0  0  0  0  0  0  0  0  0  0
   11.4042    2.0212   22.1388 C   0  0  0  0  0  0  0  0  0  0  0  0
   11.4206    3.4349   22.0013 O   0  0  0  0  0  0  0  0  0  0  0  0
   12.4208    3.9485   21.1501 C   0  0  0  0  0  0  0  0  0  0  0  0
   13.4355    3.6882   21.4849 H   0  0  0  0  0  0  0  0  0  0  0  0
   12.2802    3.5973   20.1180 H   0  0  0  0  0  0  0  0  0  0  0  0
   12.3185    5.0324   21.1709 H   0  0  0  0  0  0  0  0  0  0  0  0
    9.9938    1.4879   22.0854 C   0  0  0  0  0  0  0  0  0  0  0  0
    9.5750    0.5190   21.2820 N   0  0  0  0  0  0  0  0  0  0  0  0
    8.3092    0.2867   21.7112 C   0  0  0  0  0  0  0  0  0  0  0  0
    7.4042   -0.6848   21.0197 C   0  0  0  0  0  0  0  0  0  0  0  0
    6.6313   -0.0320   19.8777 C   0  0  0  0  0  0  0  0  0  0  0  0
    5.4281    0.6405   20.1248 C   0  0  0  0  0  0  0  0  0  0  0  0
    4.7880    1.3131   19.0801 C   0  0  0  0  0  0  0  0  0  0  0  0
    5.3844    1.3018   17.8174 C   0  0  0  0  0  0  0  0  0  0  0  0
    6.5434    0.6770   17.5583 N   0  0  0  0  0  0  0  0  0  0  0  0
    7.1464    0.0423   18.5710 C   0  0  0  0  0  0  0  0  0  0  0  0
    8.1055   -0.4221   18.3325 H   0  0  0  0  0  0  0  0  0  0  0  0
    4.9208    1.8186   16.9763 H   0  0  0  0  0  0  0  0  0  0  0  0
    3.8621    1.8581   19.2317 H   0  0  0  0  0  0  0  0  0  0  0  0
    5.0160    0.6488   21.1343 H   0  0  0  0  0  0  0  0  0  0  0  0
    6.7185   -1.0967   21.7689 H   0  0  0  0  0  0  0  0  0  0  0  0
    8.0340   -1.5027   20.6562 H   0  0  0  0  0  0  0  0  0  0  0  0
    7.9339    1.0100   22.7434 N   0  0  0  0  0  0  0  0  0  0  0  0
    9.0055    1.8127   22.9591 N   0  0  0  0  0  0  0  0  0  0  0  0
    9.0047    2.7670   24.0216 C   0  0  0  0  0  0  0  0  0  0  0  0
    8.8748    2.2839   25.3427 C   0  0  0  0  0  0  0  0  0  0  0  0
    8.8318    3.1558   26.4245 C   0  0  0  0  0  0  0  0  0  0  0  0
    8.9850    4.5236   26.1645 C   0  0  0  0  0  0  0  0  0  0  0  0
    9.0291    5.6546   26.9571 N   0  0  0  0  0  0  0  0  0  0  0  0
    9.1386    6.7377   26.1182 C   0  0  0  0  0  0  0  0  0  0  0  0
    9.1360    8.1330   26.6468 C   0  0  0  0  0  0  0  0  0  0  0  0
    8.1135    8.4884   26.8171 H   0  0  0  0  0  0  0  0  0  0  0  0
    9.6020    8.7993   25.9203 H   0  0  0  0  0  0  0  0  0  0  0  0
    9.6724    8.2157   27.5965 H   0  0  0  0  0  0  0  0  0  0  0  0
    9.1962    6.3967   24.8601 N   0  0  0  0  0  0  0  0  0  0  0  0
    9.1046    5.0146   24.8487 C   0  0  0  0  0  0  0  0  0  0  0  0
    9.1050    4.1318   23.7584 C   0  0  0  0  0  0  0  0  0  0  0  0
    9.1745    4.5260   22.7520 H   0  0  0  0  0  0  0  0  0  0  0  0
    8.9406    5.7015   27.9560 H   0  0  0  0  0  0  0  0  0  0  0  0
    8.6463    2.7595   27.4159 H   0  0  0  0  0  0  0  0  0  0  0  0
    8.8096    1.2107   25.4964 H   0  0  0  0  0  0  0  0  0  0  0  0
   11.9017    1.5373   21.2806 H   0  0  0  0  0  0  0  0  0  0  0  0
   11.6343    2.1446   24.2813 H   0  0  0  0  0  0  0  0  0  0  0  0
   13.1394    2.1056   23.3782 H   0  0  0  0  0  0  0  0  0  0  0  0
   11.2513   -0.3131   23.7622 H   0  0  0  0  0  0  0  0  0  0  0  0
   12.7278   -0.3463   22.7886 H   0  0  0  0  0  0  0  0  0  0  0  0
   12.8320   -0.0940   24.5416 H   0  0  0  0  0  0  0  0  0  0  0  0
  1  2  1  0
  2  3  1  0
  3  4  1  0
  4  5  1  0
  5  6  1  0
  5  7  1  0
  5  8  1  0
  3  9  1  0
  9 10  2  0
 10 11  1  0
 11 12  1  0
 12 13  1  0
 13 14  2  0
 14 15  1  0
 15 16  2  0
 16 17  1  0
 17 18  2  0
 18 19  1  0
 16 20  1  0
 15 21  1  0
 14 22  1  0
 12 23  1  0
 12 24  1  0
 11 25  2  0
 25 26  1  0
 26 27  1  0
 27 28  2  0
 28 29  1  0
 29 30  2  0
 30 31  1  0
 31 32  1  0
 32 33  1  0
 33 34  1  0
 33 35  1  0
 33 36  1  0
 32 37  2  0
 37 38  1  0
 38 39  2  0
 39 40  1  0
 31 41  1  0
 29 42  1  0
 28 43  1  0
  3 44  1  0
  2 45  1  0
  2 46  1  0
  1 47  1  0
  1 48  1  0
  1 49  1  0
 26  9  1  0
 39 27  1  0
 18 13  1  0
 38 30  1  0
M  END
>  <cnnaffinity>  (1) 
-5.82789

>  <filename>  (1) 
CCC(OC)c1nc(Cc2cccnc2)nn1-c1ccc2[nH]c(C)nc2c1

$$$$
