
     RDKit          3D

 49 52  0  0  0  0  0  0  0  0999 V2000
    9.1586    0.1651   25.9770 C   0  0  0  0  0  0  0  0  0  0  0  0
    9.8709    1.4173   25.4510 C   0  0  0  0  0  0  0  0  0  0  0  0
    8.9616    2.5991   25.1258 C   0  0  0  0  0  0  0  0  0  0  0  0
    8.5133    3.4558   26.1430 C   0  0  0  0  0  0  0  0  0  0  0  0
    7.8830    4.6729   25.8627 C   0  0  0  0  0  0  0  0  0  0  0  0
    7.6684    5.0441   24.5312 C   0  0  0  0  0  0  0  0  0  0  0  0
    8.0350    4.1727   23.4999 C   0  0  0  0  0  0  0  0  0  0  0  0
    8.5852    2.9256   23.8084 C   0  0  0  0  0  0  0  0  0  0  0  0
    8.7565    1.9758   22.7469 N   0  0  0  0  0  0  0  0  0  0  0  0
    7.7470    1.1447   22.3924 N   0  0  0  0  0  0  0  0  0  0  0  0
    8.3144    0.3529   21.5033 C   0  0  0  0  0  0  0  0  0  0  0  0
    7.5175   -0.7004   20.7766 C   0  0  0  0  0  0  0  0  0  0  0  0
    6.6821   -0.1119   19.6425 C   0  0  0  0  0  0  0  0  0  0  0  0
    5.5020    0.5933   19.9249 C   0  0  0  0  0  0  0  0  0  0  0  0
    4.8588    1.2727   18.8882 C   0  0  0  0  0  0  0  0  0  0  0  0
    5.4184    1.2260   17.6088 C   0  0  0  0  0  0  0  0  0  0  0  0
    6.5330    0.5411   17.3114 N   0  0  0  0  0  0  0  0  0  0  0  0
    7.1360   -0.1088   18.3141 C   0  0  0  0  0  0  0  0  0  0  0  0
    8.0505   -0.6471   18.0609 H   0  0  0  0  0  0  0  0  0  0  0  0
    4.9599    1.7667   16.7838 H   0  0  0  0  0  0  0  0  0  0  0  0
    3.9555    1.8490   19.0580 H   0  0  0  0  0  0  0  0  0  0  0  0
    5.1168    0.6279   20.9461 H   0  0  0  0  0  0  0  0  0  0  0  0
    8.2134   -1.4644   20.4140 H   0  0  0  0  0  0  0  0  0  0  0  0
    6.8592   -1.1705   21.5159 H   0  0  0  0  0  0  0  0  0  0  0  0
    9.6303    0.6000   21.2781 N   0  0  0  0  0  0  0  0  0  0  0  0
    9.8873    1.6392   22.0682 C   0  0  0  0  0  0  0  0  0  0  0  0
   11.1610    2.3471   22.2743 C   0  0  0  0  0  0  0  0  0  0  0  0
   13.1067    0.4583   22.5407 C   0  0  0  0  0  0  0  0  0  0  0  0
   12.6472    1.7056   22.4878 C   0  0  0  0  0  0  0  0  0  0  0  0
   13.5306    2.8276   22.6737 N   0  0  0  0  0  0  0  0  0  0  0  0
   12.8012    3.9250   22.5920 C   0  0  0  0  0  0  0  0  0  0  0  0
   13.4427    5.2966   22.7798 C   0  0  0  0  0  0  0  0  0  0  0  0
   13.5280    6.1432   21.6333 O   0  0  0  0  0  0  0  0  0  0  0  0
   12.7176    6.0912   21.1125 H   0  0  0  0  0  0  0  0  0  0  0  0
   12.8995    5.8136   23.5917 H   0  0  0  0  0  0  0  0  0  0  0  0
   14.4766    5.1371   23.1027 H   0  0  0  0  0  0  0  0  0  0  0  0
   11.3662    3.7477   22.4060 C   0  0  0  0  0  0  0  0  0  0  0  0
   10.6182    4.5329   22.4488 H   0  0  0  0  0  0  0  0  0  0  0  0
   14.1890    0.3241   22.6431 H   0  0  0  0  0  0  0  0  0  0  0  0
   12.4403   -0.4029   22.5005 H   0  0  0  0  0  0  0  0  0  0  0  0
    7.9214    4.4487   22.4539 H   0  0  0  0  0  0  0  0  0  0  0  0
    7.2056    5.9957   24.2872 H   0  0  0  0  0  0  0  0  0  0  0  0
    7.5786    5.3307   26.6760 H   0  0  0  0  0  0  0  0  0  0  0  0
    8.7006    3.1584   27.1692 H   0  0  0  0  0  0  0  0  0  0  0  0
   10.6097    1.7453   26.1909 H   0  0  0  0  0  0  0  0  0  0  0  0
   10.4540    1.1493   24.5620 H   0  0  0  0  0  0  0  0  0  0  0  0
    9.8952   -0.6273   26.1563 H   0  0  0  0  0  0  0  0  0  0  0  0
    8.6311    0.3547   26.9199 H   0  0  0  0  0  0  0  0  0  0  0  0
    8.4308   -0.2130   25.2496 H   0  0  0  0  0  0  0  0  0  0  0  0
  1  2  1  0
  2  3  1  0
  3  4  2  0
  4  5  1  0
  5  6  2  0
  6  7  1  0
  7  8  2  0
  8  9  1  0
  9 10  1  0
 10 11  2  0
 11 12  1  0
 12 13  1  0
 13 14  2  0
 14 15  1  0
 15 16  2  0
 16 17  1  0
 17 18  2  0
 18 19  1  0
 16 20  1  0
 15 21  1  0
 14 22  1  0
 12 23  1  0
 12 24  1  0
 11 25  1  0
 25 26  2  0
 26 27  1  0
 27 28  2  0
 28 29  1  0
 29 30  2  0
 30 31  1  0
 31 32  1  0
 32 33  1  0
 33 34  1  0
 32 35  1  0
 32 36  1  0
 31 37  2  0
 37 38  1  0
 29 39  1  0
 28 40  1  0
  7 41  1  0
  6 42  1  0
  5 43  1  0
  4 44  1  0
  2 45  1  0
  2 46  1  0
  1 47  1  0
  1 48  1  0
  1 49  1  0
  8  3  1  0
 26  9  1  0
 37 27  1  0
 18 13  1  0
M  END
>  <cnnaffinity>  (1) 
-6.01594

>  <filename>  (1) 
CCc1ccccc1-n1nc(Cc2cccnc2)nc1-c1ccnc(CO)c1

$$$$
