
     RDKit          3D

 35 36  0  0  0  0  0  0  0  0999 V2000
    9.6739    1.8826   21.2554 C   0  0  0  0  0  0  0  0  0  0  0  0
   10.6974    1.6084   22.3701 C   0  0  0  0  0  0  0  0  0  0  0  0
   10.7948    0.1426   22.6765 C   0  0  0  0  0  0  0  0  0  0  0  0
   11.8287   -0.5783   22.3214 N   0  0  0  0  0  0  0  0  0  0  0  0
   11.5062   -1.8783   22.6510 O   0  0  0  0  0  0  0  0  0  0  0  0
   10.2895   -1.9191   23.2189 C   0  0  0  0  0  0  0  0  0  0  0  0
    9.7669   -3.2538   23.6389 C   0  0  0  0  0  0  0  0  0  0  0  0
   10.5699   -3.9893   23.6513 H   0  0  0  0  0  0  0  0  0  0  0  0
    9.3152   -3.2022   24.6357 H   0  0  0  0  0  0  0  0  0  0  0  0
    8.9857   -3.5813   22.9433 H   0  0  0  0  0  0  0  0  0  0  0  0
    9.7746   -0.6640   23.2557 C   0  0  0  0  0  0  0  0  0  0  0  0
    8.3984   -0.2888   23.6886 C   0  0  0  0  0  0  0  0  0  0  0  0
    7.4305   -1.2552   23.2060 N   0  0  0  0  0  0  0  0  0  0  0  0
    6.9570   -1.4443   21.9563 C   0  0  0  0  0  0  0  0  0  0  0  0
    5.8687   -2.6702   21.6699 S   0  0  0  0  0  0  0  0  0  0  0  0
    7.4784   -0.6069   21.0101 N   0  0  0  0  0  0  0  0  0  0  0  0
    6.7839    0.0044   19.9162 C   0  0  0  0  0  0  0  0  0  0  0  0
    5.5314    0.5953   20.1279 C   0  0  0  0  0  0  0  0  0  0  0  0
    4.8837    1.2171   19.0560 C   0  0  0  0  0  0  0  0  0  0  0  0
    5.5019    1.2225   17.8004 C   0  0  0  0  0  0  0  0  0  0  0  0
    6.6883    0.6414   17.5678 N   0  0  0  0  0  0  0  0  0  0  0  0
    7.3114    0.0581   18.6049 C   0  0  0  0  0  0  0  0  0  0  0  0
    8.2743   -0.4035   18.3957 H   0  0  0  0  0  0  0  0  0  0  0  0
    5.0220    1.7005   16.9494 H   0  0  0  0  0  0  0  0  0  0  0  0
    3.9276    1.7119   19.1892 H   0  0  0  0  0  0  0  0  0  0  0  0
    5.1011    0.5776   21.1310 H   0  0  0  0  0  0  0  0  0  0  0  0
    8.3805   -0.2507   21.2771 H   0  0  0  0  0  0  0  0  0  0  0  0
    7.0638   -1.9525   23.8288 H   0  0  0  0  0  0  0  0  0  0  0  0
    8.1349    0.7161   23.3344 H   0  0  0  0  0  0  0  0  0  0  0  0
    8.3104   -0.2583   24.7806 H   0  0  0  0  0  0  0  0  0  0  0  0
   10.4113    2.1494   23.2811 H   0  0  0  0  0  0  0  0  0  0  0  0
   11.6855    1.9832   22.0780 H   0  0  0  0  0  0  0  0  0  0  0  0
    9.6181    2.9440   21.0233 H   0  0  0  0  0  0  0  0  0  0  0  0
    9.9546    1.3301   20.3525 H   0  0  0  0  0  0  0  0  0  0  0  0
    8.6598    1.5783   21.5294 H   0  0  0  0  0  0  0  0  0  0  0  0
  1  2  1  0
  2  3  1  0
  3  4  2  0
  4  5  1  0
  5  6  1  0
  6  7  1  0
  7  8  1  0
  7  9  1  0
  7 10  1  0
  6 11  2  0
 11 12  1  0
 12 13  1  0
 13 14  1  0
 14 15  2  0
 14 16  1  0
 16 17  1  0
 17 18  2  0
 18 19  1  0
 19 20  2  0
 20 21  1  0
 21 22  2  0
 22 23  1  0
 20 24  1  0
 19 25  1  0
 18 26  1  0
 16 27  1  0
 13 28  1  0
 12 29  1  0
 12 30  1  0
  2 31  1  0
  2 32  1  0
  1 33  1  0
  1 34  1  0
  1 35  1  0
 11  3  1  0
 22 17  1  0
M  END
>  <cnnaffinity>  (1) 
-5.21597

>  <filename>  (1) 
CCc1noc(C)c1CNC(=S)Nc1cccnc1

$$$$
