
     RDKit          3D

 46 50  0  0  0  0  0  0  0  0999 V2000
    6.2979    4.3762   22.2214 C   0  0  0  0  0  0  0  0  0  0  0  0
    6.2284    3.8671   23.6727 C   0  0  0  0  0  0  0  0  0  0  0  0
    7.5759    3.7610   24.3140 C   0  0  0  0  0  0  0  0  0  0  0  0
    8.6847    3.0233   24.0131 C   0  0  0  0  0  0  0  0  0  0  0  0
    8.7249    1.9769   23.0063 C   0  0  0  0  0  0  0  0  0  0  0  0
    7.7045    1.2226   22.6278 N   0  0  0  0  0  0  0  0  0  0  0  0
    8.2557    0.3499   21.7481 C   0  0  0  0  0  0  0  0  0  0  0  0
    7.4340   -0.6437   20.9663 C   0  0  0  0  0  0  0  0  0  0  0  0
    6.6598   -0.0225   19.8035 C   0  0  0  0  0  0  0  0  0  0  0  0
    5.4485    0.6360   20.0503 C   0  0  0  0  0  0  0  0  0  0  0  0
    4.8080    1.3032   19.0036 C   0  0  0  0  0  0  0  0  0  0  0  0
    5.4029    1.2860   17.7405 C   0  0  0  0  0  0  0  0  0  0  0  0
    6.5377    0.6227   17.4672 N   0  0  0  0  0  0  0  0  0  0  0  0
    7.1383   -0.0164   18.4799 C   0  0  0  0  0  0  0  0  0  0  0  0
    8.0549   -0.5547   18.2275 H   0  0  0  0  0  0  0  0  0  0  0  0
    4.9492    1.8216   16.9081 H   0  0  0  0  0  0  0  0  0  0  0  0
    3.8807    1.8435   19.1582 H   0  0  0  0  0  0  0  0  0  0  0  0
    5.0363    0.6280   21.0605 H   0  0  0  0  0  0  0  0  0  0  0  0
    8.1099   -1.4278   20.6132 H   0  0  0  0  0  0  0  0  0  0  0  0
    6.7287   -1.1118   21.6638 H   0  0  0  0  0  0  0  0  0  0  0  0
    9.5593    0.4873   21.5722 N   0  0  0  0  0  0  0  0  0  0  0  0
    9.8570    1.5675   22.3488 N   0  0  0  0  0  0  0  0  0  0  0  0
   11.1354    2.1827   22.3449 C   0  0  0  0  0  0  0  0  0  0  0  0
   11.2962    3.5688   22.2949 C   0  0  0  0  0  0  0  0  0  0  0  0
   12.5671    4.1576   22.4787 C   0  0  0  0  0  0  0  0  0  0  0  0
   13.6996    3.3821   22.7268 C   0  0  0  0  0  0  0  0  0  0  0  0
   13.5516    1.9796   22.7530 C   0  0  0  0  0  0  0  0  0  0  0  0
   12.2957    1.4072   22.4872 C   0  0  0  0  0  0  0  0  0  0  0  0
   12.5019    0.0515   22.5023 N   0  0  0  0  0  0  0  0  0  0  0  0
   13.8242   -0.1315   22.7818 C   0  0  0  0  0  0  0  0  0  0  0  0
   14.4883    0.9754   22.9511 N   0  0  0  0  0  0  0  0  0  0  0  0
   14.2491   -1.1206   22.8430 H   0  0  0  0  0  0  0  0  0  0  0  0
   11.8145   -0.6100   22.1693 H   0  0  0  0  0  0  0  0  0  0  0  0
   14.6781    3.8339   22.8620 H   0  0  0  0  0  0  0  0  0  0  0  0
   12.6581    5.2359   22.4312 H   0  0  0  0  0  0  0  0  0  0  0  0
   10.4124    4.1990   22.2312 H   0  0  0  0  0  0  0  0  0  0  0  0
    9.7421    3.5050   24.8630 C   0  0  0  0  0  0  0  0  0  0  0  0
    9.1950    4.4688   25.6267 C   0  0  0  0  0  0  0  0  0  0  0  0
    7.8890    4.6403   25.3026 O   0  0  0  0  0  0  0  0  0  0  0  0
    9.5810    5.1354   26.3853 H   0  0  0  0  0  0  0  0  0  0  0  0
   10.7725    3.1884   24.8223 H   0  0  0  0  0  0  0  0  0  0  0  0
    5.5976    4.5224   24.2794 H   0  0  0  0  0  0  0  0  0  0  0  0
    5.7750    2.8689   23.6861 H   0  0  0  0  0  0  0  0  0  0  0  0
    5.2969    4.4279   21.7793 H   0  0  0  0  0  0  0  0  0  0  0  0
    6.9064    3.7074   21.6006 H   0  0  0  0  0  0  0  0  0  0  0  0
    6.7332    5.3828   22.1681 H   0  0  0  0  0  0  0  0  0  0  0  0
  1  2  1  0
  2  3  1  0
  3  4  2  0
  4  5  1  0
  5  6  2  0
  6  7  1  0
  7  8  1  0
  8  9  1  0
  9 10  2  0
 10 11  1  0
 11 12  2  0
 12 13  1  0
 13 14  2  0
 14 15  1  0
 12 16  1  0
 11 17  1  0
 10 18  1  0
  8 19  1  0
  8 20  1  0
  7 21  2  0
 21 22  1  0
 22 23  1  0
 23 24  2  0
 24 25  1  0
 25 26  2  0
 26 27  1  0
 27 28  2  0
 28 29  1  0
 29 30  1  0
 30 31  2  0
 30 32  1  0
 29 33  1  0
 26 34  1  0
 25 35  1  0
 24 36  1  0
  4 37  1  0
 37 38  2  0
 38 39  1  0
 38 40  1  0
 37 41  1  0
  2 42  1  0
  2 43  1  0
  1 44  1  0
  1 45  1  0
  1 46  1  0
 39  3  1  0
 22  5  1  0
 28 23  1  0
 14  9  1  0
 31 27  1  0
M  END
>  <cnnaffinity>  (1) 
-6.61438

>  <filename>  (1) 
CCc1occc1-c1nc(Cc2cccnc2)nn1-c1cccc2nc[nH]c12

$$$$
