
     RDKit          3D

 35 37  0  0  0  0  0  0  0  0999 V2000
    4.7029   -0.6153   29.4295 C   0  0  0  0  0  0  0  0  0  0  0  0
    3.9819   -1.0127   28.1352 C   0  0  0  0  0  0  0  0  0  0  0  0
    4.9580   -1.3492   27.0325 C   0  0  0  0  0  0  0  0  0  0  0  0
    5.4574   -0.3476   26.1877 C   0  0  0  0  0  0  0  0  0  0  0  0
    6.3934   -0.6327   25.1959 C   0  0  0  0  0  0  0  0  0  0  0  0
    6.8561   -1.9445   25.0322 C   0  0  0  0  0  0  0  0  0  0  0  0
    7.7650   -2.2633   24.0213 N   0  0  0  0  0  0  0  0  0  0  0  0
    7.8991   -1.6995   22.7900 C   0  0  0  0  0  0  0  0  0  0  0  0
    8.9557   -1.7741   22.0325 N   0  0  0  0  0  0  0  0  0  0  0  0
    8.6387   -1.1289   20.8492 N   0  0  0  0  0  0  0  0  0  0  0  0
    7.4081   -0.7074   20.9330 C   0  0  0  0  0  0  0  0  0  0  0  0
    6.6523    0.0084   19.9070 C   0  0  0  0  0  0  0  0  0  0  0  0
    5.4324    0.6539   20.1613 C   0  0  0  0  0  0  0  0  0  0  0  0
    4.8031    1.3118   19.1069 C   0  0  0  0  0  0  0  0  0  0  0  0
    5.4025    1.2901   17.8419 C   0  0  0  0  0  0  0  0  0  0  0  0
    6.5665    0.6739   17.5844 N   0  0  0  0  0  0  0  0  0  0  0  0
    7.1745    0.0612   18.6036 C   0  0  0  0  0  0  0  0  0  0  0  0
    8.1227   -0.4255   18.3836 H   0  0  0  0  0  0  0  0  0  0  0  0
    4.9204    1.7783   16.9985 H   0  0  0  0  0  0  0  0  0  0  0  0
    3.8717    1.8446   19.2590 H   0  0  0  0  0  0  0  0  0  0  0  0
    4.9908    0.6530   21.1626 H   0  0  0  0  0  0  0  0  0  0  0  0
    6.9010   -1.0369   22.1599 N   0  0  0  0  0  0  0  0  0  0  0  0
    5.9694   -0.9594   22.5173 H   0  0  0  0  0  0  0  0  0  0  0  0
    8.4705   -2.9556   24.1873 H   0  0  0  0  0  0  0  0  0  0  0  0
    6.4079   -2.9511   25.8987 C   0  0  0  0  0  0  0  0  0  0  0  0
    5.4628   -2.6501   26.8807 C   0  0  0  0  0  0  0  0  0  0  0  0
    5.1155   -3.4298   27.5538 H   0  0  0  0  0  0  0  0  0  0  0  0
    6.7803   -3.9649   25.7835 H   0  0  0  0  0  0  0  0  0  0  0  0
    6.7867    0.1509   24.5576 H   0  0  0  0  0  0  0  0  0  0  0  0
    5.1115    0.6738   26.3100 H   0  0  0  0  0  0  0  0  0  0  0  0
    3.3251   -1.8694   28.3309 H   0  0  0  0  0  0  0  0  0  0  0  0
    3.3236   -0.1936   27.8183 H   0  0  0  0  0  0  0  0  0  0  0  0
    3.9934   -0.3730   30.2270 H   0  0  0  0  0  0  0  0  0  0  0  0
    5.3432    0.2573   29.2620 H   0  0  0  0  0  0  0  0  0  0  0  0
    5.3462   -1.4302   29.7783 H   0  0  0  0  0  0  0  0  0  0  0  0
  1  2  1  0
  2  3  1  0
  3  4  2  0
  4  5  1  0
  5  6  2  0
  6  7  1  0
  7  8  1  0
  8  9  2  0
  9 10  1  0
 10 11  2  0
 11 12  1  0
 12 13  2  0
 13 14  1  0
 14 15  2  0
 15 16  1  0
 16 17  2  0
 17 18  1  0
 15 19  1  0
 14 20  1  0
 13 21  1  0
 11 22  1  0
 22 23  1  0
  7 24  1  0
  6 25  1  0
 25 26  2  0
 26 27  1  0
 25 28  1  0
  5 29  1  0
  4 30  1  0
  2 31  1  0
  2 32  1  0
  1 33  1  0
  1 34  1  0
  1 35  1  0
 26  3  1  0
 22  8  1  0
 17 12  1  0
M  END
>  <cnnaffinity>  (1) 
-5.16841

>  <filename>  (1) 
CCc1ccc(Nc2nnc(-c3cccnc3)[nH]2)cc1

$$$$
