
     RDKit          3D

 48 52  0  0  0  0  0  0  0  0999 V2000
   12.5750   -1.1597   21.6236 C   0  0  0  0  0  0  0  0  0  0  0  0
   12.4836   -0.3215   22.9091 C   0  0  0  0  0  0  0  0  0  0  0  0
   12.5089    1.1745   22.6765 C   0  0  0  0  0  0  0  0  0  0  0  0
   13.7173    1.8898   22.8213 C   0  0  0  0  0  0  0  0  0  0  0  0
   13.7753    3.2754   22.6366 C   0  0  0  0  0  0  0  0  0  0  0  0
   12.6314    3.9708   22.2400 C   0  0  0  0  0  0  0  0  0  0  0  0
   11.4459    3.2751   22.0533 C   0  0  0  0  0  0  0  0  0  0  0  0
   11.3554    1.9154   22.3439 C   0  0  0  0  0  0  0  0  0  0  0  0
   10.0292    1.3610   22.3594 N   0  0  0  0  0  0  0  0  0  0  0  0
    9.6459    0.3801   21.5096 N   0  0  0  0  0  0  0  0  0  0  0  0
    8.3485    0.2637   21.7199 C   0  0  0  0  0  0  0  0  0  0  0  0
    7.4951   -0.6918   20.9145 C   0  0  0  0  0  0  0  0  0  0  0  0
    6.7093   -0.0495   19.7676 C   0  0  0  0  0  0  0  0  0  0  0  0
    5.5102    0.6264   20.0361 C   0  0  0  0  0  0  0  0  0  0  0  0
    4.8581    1.2960   18.9980 C   0  0  0  0  0  0  0  0  0  0  0  0
    5.4280    1.2680   17.7229 C   0  0  0  0  0  0  0  0  0  0  0  0
    6.5590    0.6060   17.4328 N   0  0  0  0  0  0  0  0  0  0  0  0
    7.1703   -0.0351   18.4376 C   0  0  0  0  0  0  0  0  0  0  0  0
    8.0931   -0.5584   18.1796 H   0  0  0  0  0  0  0  0  0  0  0  0
    4.9639    1.8069   16.8982 H   0  0  0  0  0  0  0  0  0  0  0  0
    3.9418    1.8520   19.1667 H   0  0  0  0  0  0  0  0  0  0  0  0
    5.1146    0.6411   21.0537 H   0  0  0  0  0  0  0  0  0  0  0  0
    8.1482   -1.4859   20.5350 H   0  0  0  0  0  0  0  0  0  0  0  0
    6.7926   -1.1621   21.6119 H   0  0  0  0  0  0  0  0  0  0  0  0
    7.8669    1.0979   22.6699 N   0  0  0  0  0  0  0  0  0  0  0  0
    8.9287    1.8045   23.0499 C   0  0  0  0  0  0  0  0  0  0  0  0
    8.9592    2.8899   24.1006 C   0  0  0  0  0  0  0  0  0  0  0  0
    7.8186    3.2075   24.8381 C   0  0  0  0  0  0  0  0  0  0  0  0
    7.9134    4.2658   25.7919 C   0  0  0  0  0  0  0  0  0  0  0  0
    9.1209    4.9939   25.8746 C   0  0  0  0  0  0  0  0  0  0  0  0
   10.2180    4.6271   25.0602 C   0  0  0  0  0  0  0  0  0  0  0  0
   10.1427    3.5573   24.3053 N   0  0  0  0  0  0  0  0  0  0  0  0
   11.1557    5.1764   25.1007 H   0  0  0  0  0  0  0  0  0  0  0  0
    8.9552    5.9247   26.8472 N   0  0  0  0  0  0  0  0  0  0  0  0
    7.7349    5.8491   27.4124 N   0  0  0  0  0  0  0  0  0  0  0  0
    7.0950    4.8765   26.7954 C   0  0  0  0  0  0  0  0  0  0  0  0
    6.0833    4.6206   27.0769 H   0  0  0  0  0  0  0  0  0  0  0  0
    9.6101    6.6292   27.1618 H   0  0  0  0  0  0  0  0  0  0  0  0
    6.9120    2.6497   24.6450 H   0  0  0  0  0  0  0  0  0  0  0  0
   10.5337    3.8296   21.9226 H   0  0  0  0  0  0  0  0  0  0  0  0
   12.6402    5.0487   22.0957 H   0  0  0  0  0  0  0  0  0  0  0  0
   14.7091    3.8091   22.7690 H   0  0  0  0  0  0  0  0  0  0  0  0
   14.6253    1.3345   23.0564 H   0  0  0  0  0  0  0  0  0  0  0  0
   11.5651   -0.5847   23.4508 H   0  0  0  0  0  0  0  0  0  0  0  0
   13.3303   -0.5471   23.5659 H   0  0  0  0  0  0  0  0  0  0  0  0
   12.3975   -2.2221   21.8268 H   0  0  0  0  0  0  0  0  0  0  0  0
   11.8128   -0.8327   20.9069 H   0  0  0  0  0  0  0  0  0  0  0  0
   13.5665   -1.0734   21.1622 H   0  0  0  0  0  0  0  0  0  0  0  0
  1  2  1  0
  2  3  1  0
  3  4  2  0
  4  5  1  0
  5  6  2  0
  6  7  1  0
  7  8  2  0
  8  9  1  0
  9 10  1  0
 10 11  2  0
 11 12  1  0
 12 13  1  0
 13 14  2  0
 14 15  1  0
 15 16  2  0
 16 17  1  0
 17 18  2  0
 18 19  1  0
 16 20  1  0
 15 21  1  0
 14 22  1  0
 12 23  1  0
 12 24  1  0
 11 25  1  0
 25 26  2  0
 26 27  1  0
 27 28  2  0
 28 29  1  0
 29 30  2  0
 30 31  1  0
 31 32  2  0
 31 33  1  0
 30 34  1  0
 34 35  1  0
 35 36  2  0
 36 37  1  0
 34 38  1  0
 28 39  1  0
  7 40  1  0
  6 41  1  0
  5 42  1  0
  4 43  1  0
  2 44  1  0
  2 45  1  0
  1 46  1  0
  1 47  1  0
  1 48  1  0
  8  3  1  0
 26  9  1  0
 32 27  1  0
 18 13  1  0
 36 29  1  0
M  END
>  <cnnaffinity>  (1) 
-6.11298

>  <filename>  (1) 
CCc1ccccc1-n1nc(Cc2cccnc2)nc1-c1cc2cn[nH]c2cn1

$$$$
