
     RDKit          3D

 51 55  0  0  0  0  0  0  0  0999 V2000
   14.2148   -1.8286   20.4627 C   0  0  0  0  0  0  0  0  0  0  0  0
   14.0237   -1.5923   21.9733 C   0  0  0  0  0  0  0  0  0  0  0  0
   13.5384   -0.2296   22.3252 C   0  0  0  0  0  0  0  0  0  0  0  0
   12.2699    0.0583   22.2616 N   0  0  0  0  0  0  0  0  0  0  0  0
   12.2135    1.4234   22.3988 C   0  0  0  0  0  0  0  0  0  0  0  0
   11.1265    2.3046   22.3048 C   0  0  0  0  0  0  0  0  0  0  0  0
    9.7760    1.7120   22.1292 C   0  0  0  0  0  0  0  0  0  0  0  0
    9.3494    0.8678   21.1975 N   0  0  0  0  0  0  0  0  0  0  0  0
    8.1649    0.4350   21.6954 C   0  0  0  0  0  0  0  0  0  0  0  0
    7.3493   -0.6038   20.9820 C   0  0  0  0  0  0  0  0  0  0  0  0
    6.5757   -0.0267   19.8082 C   0  0  0  0  0  0  0  0  0  0  0  0
    5.3673    0.6453   20.0309 C   0  0  0  0  0  0  0  0  0  0  0  0
    4.7663    1.3322   18.9750 C   0  0  0  0  0  0  0  0  0  0  0  0
    5.3916    1.3128   17.7253 C   0  0  0  0  0  0  0  0  0  0  0  0
    6.5202    0.6308   17.4739 N   0  0  0  0  0  0  0  0  0  0  0  0
    7.0835   -0.0228   18.4973 C   0  0  0  0  0  0  0  0  0  0  0  0
    7.9972   -0.5734   18.2628 H   0  0  0  0  0  0  0  0  0  0  0  0
    4.9638    1.8529   16.8826 H   0  0  0  0  0  0  0  0  0  0  0  0
    3.8458    1.8915   19.1090 H   0  0  0  0  0  0  0  0  0  0  0  0
    4.9173    0.6321   21.0251 H   0  0  0  0  0  0  0  0  0  0  0  0
    8.0431   -1.3789   20.6428 H   0  0  0  0  0  0  0  0  0  0  0  0
    6.6752   -1.0665   21.7100 H   0  0  0  0  0  0  0  0  0  0  0  0
    7.8135    0.9819   22.8435 N   0  0  0  0  0  0  0  0  0  0  0  0
    8.8343    1.8397   23.0973 N   0  0  0  0  0  0  0  0  0  0  0  0
    8.8625    2.6675   24.3161 C   0  0  0  0  0  0  0  0  0  0  0  0
    9.1197    1.8256   25.5677 C   0  0  0  0  0  0  0  0  0  0  0  0
    8.3415    1.0674   25.7094 H   0  0  0  0  0  0  0  0  0  0  0  0
    9.1411    2.4757   26.4496 H   0  0  0  0  0  0  0  0  0  0  0  0
   10.0852    1.3135   25.4823 H   0  0  0  0  0  0  0  0  0  0  0  0
    7.6002    3.5167   24.3925 C   0  0  0  0  0  0  0  0  0  0  0  0
    7.4454    4.7022   23.4802 C   0  0  0  0  0  0  0  0  0  0  0  0
    7.6399    4.9030   24.9621 C   0  0  0  0  0  0  0  0  0  0  0  0
    6.8005    5.2459   25.5627 H   0  0  0  0  0  0  0  0  0  0  0  0
    8.6042    5.2821   25.2960 H   0  0  0  0  0  0  0  0  0  0  0  0
    6.4709    4.8959   23.0329 H   0  0  0  0  0  0  0  0  0  0  0  0
    8.2816    4.9421   22.8209 H   0  0  0  0  0  0  0  0  0  0  0  0
    6.6988    2.9321   24.5695 H   0  0  0  0  0  0  0  0  0  0  0  0
    9.7143    3.3453   24.1976 H   0  0  0  0  0  0  0  0  0  0  0  0
   11.4505    3.6744   22.4631 C   0  0  0  0  0  0  0  0  0  0  0  0
   12.7780    4.0772   22.7070 C   0  0  0  0  0  0  0  0  0  0  0  0
   13.8292    3.2353   22.7849 N   0  0  0  0  0  0  0  0  0  0  0  0
   13.4990    1.9614   22.6238 C   0  0  0  0  0  0  0  0  0  0  0  0
   14.3272    0.8609   22.6091 N   0  0  0  0  0  0  0  0  0  0  0  0
   15.3268    0.9372   22.5715 H   0  0  0  0  0  0  0  0  0  0  0  0
   12.9920    5.1340   22.8421 H   0  0  0  0  0  0  0  0  0  0  0  0
   10.6936    4.4470   22.3766 H   0  0  0  0  0  0  0  0  0  0  0  0
   14.9277   -1.7953   22.5448 H   0  0  0  0  0  0  0  0  0  0  0  0
   13.2340   -2.2685   22.3120 H   0  0  0  0  0  0  0  0  0  0  0  0
   14.9919   -1.1949   20.0225 H   0  0  0  0  0  0  0  0  0  0  0  0
   13.2718   -1.6327   19.9371 H   0  0  0  0  0  0  0  0  0  0  0  0
   14.4817   -2.8741   20.2773 H   0  0  0  0  0  0  0  0  0  0  0  0
  1  2  1  0
  2  3  1  0
  3  4  2  0
  4  5  1  0
  5  6  2  0
  6  7  1  0
  7  8  2  0
  8  9  1  0
  9 10  1  0
 10 11  1  0
 11 12  2  0
 12 13  1  0
 13 14  2  0
 14 15  1  0
 15 16  2  0
 16 17  1  0
 14 18  1  0
 13 19  1  0
 12 20  1  0
 10 21  1  0
 10 22  1  0
  9 23  2  0
 23 24  1  0
 24 25  1  0
 25 26  1  0
 26 27  1  0
 26 28  1  0
 26 29  1  0
 25 30  1  0
 30 31  1  0
 31 32  1  0
 32 33  1  0
 32 34  1  0
 31 35  1  0
 31 36  1  0
 30 37  1  0
 25 38  1  0
  6 39  1  0
 39 40  2  0
 40 41  1  0
 41 42  2  0
 42 43  1  0
 43 44  1  0
 40 45  1  0
 39 46  1  0
  2 47  1  0
  2 48  1  0
  1 49  1  0
  1 50  1  0
  1 51  1  0
 43  3  1  0
 42  5  1  0
 24  7  1  0
 32 30  1  0
 16 11  1  0
M  END
>  <cnnaffinity>  (1) 
-7.23731

>  <filename>  (1) 
CCc1nc2c(-c3nc(Cc4cccnc4)nn3C(C)C3CC3)ccnc2[nH]1

$$$$
