
     RDKit          3D

 48 52  0  0  0  0  0  0  0  0999 V2000
    6.4957    4.7092   21.7138 C   0  0  0  0  0  0  0  0  0  0  0  0
    7.9944    4.5951   22.0433 C   0  0  0  0  0  0  0  0  0  0  0  0
    8.2574    4.2789   23.5037 C   0  0  0  0  0  0  0  0  0  0  0  0
    8.3047    5.3557   24.4055 C   0  0  0  0  0  0  0  0  0  0  0  0
    8.4102    5.1588   25.7824 C   0  0  0  0  0  0  0  0  0  0  0  0
    8.4592    3.8549   26.2832 C   0  0  0  0  0  0  0  0  0  0  0  0
    8.4451    2.7624   25.4104 C   0  0  0  0  0  0  0  0  0  0  0  0
    8.3833    2.9732   24.0273 C   0  0  0  0  0  0  0  0  0  0  0  0
    8.5902    1.8472   23.1544 N   0  0  0  0  0  0  0  0  0  0  0  0
    7.5994    0.9825   22.8126 N   0  0  0  0  0  0  0  0  0  0  0  0
    8.1342    0.2976   21.8195 C   0  0  0  0  0  0  0  0  0  0  0  0
    7.3375   -0.6939   21.0138 C   0  0  0  0  0  0  0  0  0  0  0  0
    6.5947   -0.0384   19.8522 C   0  0  0  0  0  0  0  0  0  0  0  0
    5.4147    0.6762   20.0887 C   0  0  0  0  0  0  0  0  0  0  0  0
    4.8042    1.3418   19.0215 C   0  0  0  0  0  0  0  0  0  0  0  0
    5.4098    1.2904   17.7626 C   0  0  0  0  0  0  0  0  0  0  0  0
    6.5434    0.6176   17.5148 N   0  0  0  0  0  0  0  0  0  0  0  0
    7.1092   -0.0267   18.5442 C   0  0  0  0  0  0  0  0  0  0  0  0
    8.0320   -0.5638   18.3223 H   0  0  0  0  0  0  0  0  0  0  0  0
    4.9700    1.8111   16.9134 H   0  0  0  0  0  0  0  0  0  0  0  0
    3.8888    1.9072   19.1510 H   0  0  0  0  0  0  0  0  0  0  0  0
    5.0013    0.7175   21.0995 H   0  0  0  0  0  0  0  0  0  0  0  0
    6.6228   -1.1678   21.6951 H   0  0  0  0  0  0  0  0  0  0  0  0
    8.0182   -1.4725   20.6548 H   0  0  0  0  0  0  0  0  0  0  0  0
    9.4112    0.6431   21.5106 N   0  0  0  0  0  0  0  0  0  0  0  0
    9.6841    1.6021   22.3760 C   0  0  0  0  0  0  0  0  0  0  0  0
   10.9323    2.3730   22.4430 C   0  0  0  0  0  0  0  0  0  0  0  0
   11.4868    2.8037   23.6947 C   0  0  0  0  0  0  0  0  0  0  0  0
   12.4734    3.6722   23.8415 N   0  0  0  0  0  0  0  0  0  0  0  0
   12.9934    4.1644   22.6835 C   0  0  0  0  0  0  0  0  0  0  0  0
   13.9884    5.1460   22.3863 C   0  0  0  0  0  0  0  0  0  0  0  0
   14.1461    5.2876   21.0846 N   0  0  0  0  0  0  0  0  0  0  0  0
   13.2811    4.4299   20.5062 N   0  0  0  0  0  0  0  0  0  0  0  0
   12.5625    3.7235   21.4045 C   0  0  0  0  0  0  0  0  0  0  0  0
   11.5387    2.7880   21.2645 C   0  0  0  0  0  0  0  0  0  0  0  0
   11.2098    2.4399   20.2912 H   0  0  0  0  0  0  0  0  0  0  0  0
   13.2348    4.3453   19.5006 H   0  0  0  0  0  0  0  0  0  0  0  0
   14.5818    5.7409   23.0612 H   0  0  0  0  0  0  0  0  0  0  0  0
   11.0736    2.4262   24.6235 H   0  0  0  0  0  0  0  0  0  0  0  0
    8.5392    1.7454   25.7825 H   0  0  0  0  0  0  0  0  0  0  0  0
    8.5081    3.6801   27.3516 H   0  0  0  0  0  0  0  0  0  0  0  0
    8.4385    6.0141   26.4530 H   0  0  0  0  0  0  0  0  0  0  0  0
    8.2500    6.3605   23.9915 H   0  0  0  0  0  0  0  0  0  0  0  0
    8.4874    5.5506   21.8284 H   0  0  0  0  0  0  0  0  0  0  0  0
    8.4750    3.8641   21.3826 H   0  0  0  0  0  0  0  0  0  0  0  0
    6.3594    5.2915   20.7996 H   0  0  0  0  0  0  0  0  0  0  0  0
    5.9408    5.2151   22.5129 H   0  0  0  0  0  0  0  0  0  0  0  0
    6.0190    3.7320   21.5708 H   0  0  0  0  0  0  0  0  0  0  0  0
  1  2  1  0
  2  3  1  0
  3  4  2  0
  4  5  1  0
  5  6  2  0
  6  7  1  0
  7  8  2  0
  8  9  1  0
  9 10  1  0
 10 11  2  0
 11 12  1  0
 12 13  1  0
 13 14  2  0
 14 15  1  0
 15 16  2  0
 16 17  1  0
 17 18  2  0
 18 19  1  0
 16 20  1  0
 15 21  1  0
 14 22  1  0
 12 23  1  0
 12 24  1  0
 11 25  1  0
 25 26  2  0
 26 27  1  0
 27 28  2  0
 28 29  1  0
 29 30  2  0
 30 31  1  0
 31 32  2  0
 32 33  1  0
 33 34  1  0
 34 35  2  0
 35 36  1  0
 33 37  1  0
 31 38  1  0
 28 39  1  0
  7 40  1  0
  6 41  1  0
  5 42  1  0
  4 43  1  0
  2 44  1  0
  2 45  1  0
  1 46  1  0
  1 47  1  0
  1 48  1  0
  8  3  1  0
 26  9  1  0
 35 27  1  0
 18 13  1  0
 34 30  1  0
M  END
>  <cnnaffinity>  (1) 
-6.4406

>  <filename>  (1) 
CCc1ccccc1-n1nc(Cc2cccnc2)nc1-c1cnc2cn[nH]c2c1

$$$$
