
     RDKit          3D

 48 52  0  0  0  0  0  0  0  0999 V2000
    8.4998    0.5187   25.9185 C   0  0  0  0  0  0  0  0  0  0  0  0
    7.6030    1.7307   25.6479 C   0  0  0  0  0  0  0  0  0  0  0  0
    8.3689    2.9238   25.1149 C   0  0  0  0  0  0  0  0  0  0  0  0
    8.5783    4.0190   25.9757 C   0  0  0  0  0  0  0  0  0  0  0  0
    9.2833    5.1381   25.5426 C   0  0  0  0  0  0  0  0  0  0  0  0
    9.8031    5.1176   24.2432 C   0  0  0  0  0  0  0  0  0  0  0  0
    9.6593    4.0812   23.4169 N   0  0  0  0  0  0  0  0  0  0  0  0
    8.9579    2.9904   23.8190 C   0  0  0  0  0  0  0  0  0  0  0  0
    8.8108    1.8741   22.7939 C   0  0  0  0  0  0  0  0  0  0  0  0
    7.7948    1.0375   22.5892 N   0  0  0  0  0  0  0  0  0  0  0  0
    8.1227    0.3907   21.4443 C   0  0  0  0  0  0  0  0  0  0  0  0
    7.2435   -0.6494   20.7997 C   0  0  0  0  0  0  0  0  0  0  0  0
    6.4370   -0.1052   19.6276 C   0  0  0  0  0  0  0  0  0  0  0  0
    5.2479    0.6017   19.8498 C   0  0  0  0  0  0  0  0  0  0  0  0
    4.6719    1.3038   18.7896 C   0  0  0  0  0  0  0  0  0  0  0  0
    5.2997    1.2636   17.5409 C   0  0  0  0  0  0  0  0  0  0  0  0
    6.3904    0.5255   17.2861 N   0  0  0  0  0  0  0  0  0  0  0  0
    6.9239   -0.1507   18.3100 C   0  0  0  0  0  0  0  0  0  0  0  0
    7.7979   -0.7622   18.0779 H   0  0  0  0  0  0  0  0  0  0  0  0
    4.9158    1.8434   16.7042 H   0  0  0  0  0  0  0  0  0  0  0  0
    3.7783    1.9022   18.9245 H   0  0  0  0  0  0  0  0  0  0  0  0
    4.7946    0.6092   20.8437 H   0  0  0  0  0  0  0  0  0  0  0  0
    6.5757   -1.0263   21.5784 H   0  0  0  0  0  0  0  0  0  0  0  0
    7.8862   -1.4775   20.4774 H   0  0  0  0  0  0  0  0  0  0  0  0
    9.2885    0.7349   20.9377 N   0  0  0  0  0  0  0  0  0  0  0  0
    9.7445    1.6553   21.8105 N   0  0  0  0  0  0  0  0  0  0  0  0
   11.1108    2.0689   21.8251 C   0  0  0  0  0  0  0  0  0  0  0  0
   11.6774    2.9671   20.9242 C   0  0  0  0  0  0  0  0  0  0  0  0
   12.8620    3.6527   21.2737 C   0  0  0  0  0  0  0  0  0  0  0  0
   13.6029    3.3063   22.4049 C   0  0  0  0  0  0  0  0  0  0  0  0
   13.1184    2.2551   23.2067 C   0  0  0  0  0  0  0  0  0  0  0  0
   11.8713    1.6883   22.9342 C   0  0  0  0  0  0  0  0  0  0  0  0
   11.6259    0.8065   23.9675 N   0  0  0  0  0  0  0  0  0  0  0  0
   12.7450    0.8166   24.7441 C   0  0  0  0  0  0  0  0  0  0  0  0
   13.6462    1.6443   24.3231 N   0  0  0  0  0  0  0  0  0  0  0  0
   12.8367    0.2085   25.6384 H   0  0  0  0  0  0  0  0  0  0  0  0
   10.8711    0.1445   24.0316 H   0  0  0  0  0  0  0  0  0  0  0  0
   14.5564    3.7699   22.6367 H   0  0  0  0  0  0  0  0  0  0  0  0
   13.2269    4.4249   20.6033 H   0  0  0  0  0  0  0  0  0  0  0  0
   11.2156    3.1638   19.9664 H   0  0  0  0  0  0  0  0  0  0  0  0
   10.3821    5.9609   23.8689 H   0  0  0  0  0  0  0  0  0  0  0  0
    9.4392    6.0015   26.1828 H   0  0  0  0  0  0  0  0  0  0  0  0
    8.1879    3.9729   26.9947 H   0  0  0  0  0  0  0  0  0  0  0  0
    7.1108    2.0259   26.5829 H   0  0  0  0  0  0  0  0  0  0  0  0
    6.8023    1.4570   24.9520 H   0  0  0  0  0  0  0  0  0  0  0  0
    9.3712    0.7986   26.5250 H   0  0  0  0  0  0  0  0  0  0  0  0
    8.8575    0.0924   24.9761 H   0  0  0  0  0  0  0  0  0  0  0  0
    7.9430   -0.2593   26.4523 H   0  0  0  0  0  0  0  0  0  0  0  0
  1  2  1  0
  2  3  1  0
  3  4  2  0
  4  5  1  0
  5  6  2  0
  6  7  1  0
  7  8  2  0
  8  9  1  0
  9 10  2  0
 10 11  1  0
 11 12  1  0
 12 13  1  0
 13 14  2  0
 14 15  1  0
 15 16  2  0
 16 17  1  0
 17 18  2  0
 18 19  1  0
 16 20  1  0
 15 21  1  0
 14 22  1  0
 12 23  1  0
 12 24  1  0
 11 25  2  0
 25 26  1  0
 26 27  1  0
 27 28  2  0
 28 29  1  0
 29 30  2  0
 30 31  1  0
 31 32  2  0
 32 33  1  0
 33 34  1  0
 34 35  2  0
 34 36  1  0
 33 37  1  0
 30 38  1  0
 29 39  1  0
 28 40  1  0
  6 41  1  0
  5 42  1  0
  4 43  1  0
  2 44  1  0
  2 45  1  0
  1 46  1  0
  1 47  1  0
  1 48  1  0
  8  3  1  0
 26  9  1  0
 32 27  1  0
 18 13  1  0
 35 31  1  0
M  END
>  <cnnaffinity>  (1) 
-6.38828

>  <filename>  (1) 
CCc1cccnc1-c1nc(Cc2cccnc2)nn1-c1cccc2nc[nH]c12

$$$$
