
     RDKit          3D

 52 55  0  0  0  0  0  0  0  0999 V2000
   12.7435    6.1033   24.0666 C   0  0  0  0  0  0  0  0  0  0  0  0
   12.8239    5.5726   22.6252 C   0  0  0  0  0  0  0  0  0  0  0  0
   12.6699    4.0723   22.5502 C   0  0  0  0  0  0  0  0  0  0  0  0
   13.7459    3.1881   22.6339 C   0  0  0  0  0  0  0  0  0  0  0  0
   13.5022    1.8120   22.6491 C   0  0  0  0  0  0  0  0  0  0  0  0
   12.2829    1.2814   22.5477 N   0  0  0  0  0  0  0  0  0  0  0  0
   11.2290    2.1131   22.4481 C   0  0  0  0  0  0  0  0  0  0  0  0
    9.8654    1.4967   22.2940 C   0  0  0  0  0  0  0  0  0  0  0  0
    9.4843    0.5597   21.4353 N   0  0  0  0  0  0  0  0  0  0  0  0
    8.1913    0.3383   21.7559 C   0  0  0  0  0  0  0  0  0  0  0  0
    7.3625   -0.6731   21.0114 C   0  0  0  0  0  0  0  0  0  0  0  0
    6.5921   -0.0446   19.8469 C   0  0  0  0  0  0  0  0  0  0  0  0
    5.3824    0.6278   20.0820 C   0  0  0  0  0  0  0  0  0  0  0  0
    4.7630    1.3103   19.0324 C   0  0  0  0  0  0  0  0  0  0  0  0
    5.3818    1.3094   17.7804 C   0  0  0  0  0  0  0  0  0  0  0  0
    6.5282    0.6641   17.5211 N   0  0  0  0  0  0  0  0  0  0  0  0
    7.1111    0.0123   18.5374 C   0  0  0  0  0  0  0  0  0  0  0  0
    8.0593   -0.4728   18.2978 H   0  0  0  0  0  0  0  0  0  0  0  0
    4.9492    1.8663   16.9524 H   0  0  0  0  0  0  0  0  0  0  0  0
    3.8410    1.8631   19.1726 H   0  0  0  0  0  0  0  0  0  0  0  0
    4.9492    0.6523   21.0844 H   0  0  0  0  0  0  0  0  0  0  0  0
    6.6748   -1.1278   21.7337 H   0  0  0  0  0  0  0  0  0  0  0  0
    8.0532   -1.4613   20.6779 H   0  0  0  0  0  0  0  0  0  0  0  0
    7.7380    1.0930   22.7363 N   0  0  0  0  0  0  0  0  0  0  0  0
    8.8016    1.8645   23.0633 N   0  0  0  0  0  0  0  0  0  0  0  0
    8.6750    2.8421   24.1546 C   0  0  0  0  0  0  0  0  0  0  0  0
    8.1219    2.2095   25.4388 C   0  0  0  0  0  0  0  0  0  0  0  0
    6.6190    2.4849   25.3542 C   0  0  0  0  0  0  0  0  0  0  0  0
    6.4655    3.6415   24.5518 O   0  0  0  0  0  0  0  0  0  0  0  0
    7.6782    4.0156   23.8885 C   0  0  0  0  0  0  0  0  0  0  0  0
    8.1640    5.3051   24.5637 C   0  0  0  0  0  0  0  0  0  0  0  0
    8.3623    5.1562   25.6304 H   0  0  0  0  0  0  0  0  0  0  0  0
    9.0768    5.6833   24.0891 H   0  0  0  0  0  0  0  0  0  0  0  0
    7.3822    6.0646   24.4700 H   0  0  0  0  0  0  0  0  0  0  0  0
    7.3187    4.2796   22.4336 C   0  0  0  0  0  0  0  0  0  0  0  0
    6.8915    3.3780   21.9894 H   0  0  0  0  0  0  0  0  0  0  0  0
    8.1911    4.5902   21.8453 H   0  0  0  0  0  0  0  0  0  0  0  0
    6.5647    5.0724   22.4025 H   0  0  0  0  0  0  0  0  0  0  0  0
    6.0914    1.6453   24.8830 H   0  0  0  0  0  0  0  0  0  0  0  0
    6.1624    2.6909   26.3296 H   0  0  0  0  0  0  0  0  0  0  0  0
    8.3430    1.1423   25.4965 H   0  0  0  0  0  0  0  0  0  0  0  0
    8.5725    2.6988   26.3114 H   0  0  0  0  0  0  0  0  0  0  0  0
    9.6770    3.2258   24.3064 H   0  0  0  0  0  0  0  0  0  0  0  0
   11.3947    3.5066   22.4612 C   0  0  0  0  0  0  0  0  0  0  0  0
   10.5416    4.1627   22.3335 H   0  0  0  0  0  0  0  0  0  0  0  0
   14.3232    1.0982   22.7209 H   0  0  0  0  0  0  0  0  0  0  0  0
   14.7681    3.5441   22.6477 H   0  0  0  0  0  0  0  0  0  0  0  0
   12.0196    5.9998   22.0209 H   0  0  0  0  0  0  0  0  0  0  0  0
   13.7645    5.8838   22.1537 H   0  0  0  0  0  0  0  0  0  0  0  0
   13.5140    5.6255   24.6801 H   0  0  0  0  0  0  0  0  0  0  0  0
   12.8891    7.1888   24.1321 H   0  0  0  0  0  0  0  0  0  0  0  0
   11.7681    5.8731   24.5154 H   0  0  0  0  0  0  0  0  0  0  0  0
  1  2  1  0
  2  3  1  0
  3  4  2  0
  4  5  1  0
  5  6  2  0
  6  7  1  0
  7  8  1  0
  8  9  2  0
  9 10  1  0
 10 11  1  0
 11 12  1  0
 12 13  2  0
 13 14  1  0
 14 15  2  0
 15 16  1  0
 16 17  2  0
 17 18  1  0
 15 19  1  0
 14 20  1  0
 13 21  1  0
 11 22  1  0
 11 23  1  0
 10 24  2  0
 24 25  1  0
 25 26  1  0
 26 27  1  0
 27 28  1  0
 28 29  1  0
 29 30  1  0
 30 31  1  0
 31 32  1  0
 31 33  1  0
 31 34  1  0
 30 35  1  0
 35 36  1  0
 35 37  1  0
 35 38  1  0
 28 39  1  0
 28 40  1  0
 27 41  1  0
 27 42  1  0
 26 43  1  0
  7 44  2  0
 44 45  1  0
  5 46  1  0
  4 47  1  0
  2 48  1  0
  2 49  1  0
  1 50  1  0
  1 51  1  0
  1 52  1  0
 44  3  1  0
 25  8  1  0
 30 26  1  0
 17 12  1  0
M  END
>  <cnnaffinity>  (1) 
-6.40544

>  <filename>  (1) 
CCc1ccnc(-c2nc(Cc3cccnc3)nn2C2CCOC2(C)C)c1

$$$$
