
     RDKit          3D

 41 44  0  0  0  0  0  0  0  0999 V2000
    7.8036   -4.5841   22.7499 C   0  0  0  0  0  0  0  0  0  0  0  0
    8.7555   -3.5563   22.1255 C   0  0  0  0  0  0  0  0  0  0  0  0
    8.2001   -2.1895   21.9443 C   0  0  0  0  0  0  0  0  0  0  0  0
    7.8300   -1.7903   20.7477 N   0  0  0  0  0  0  0  0  0  0  0  0
    7.3258   -0.5597   20.9736 N   0  0  0  0  0  0  0  0  0  0  0  0
    6.6182    0.0812   19.9297 C   0  0  0  0  0  0  0  0  0  0  0  0
    5.3842    0.7057   20.1477 C   0  0  0  0  0  0  0  0  0  0  0  0
    4.7770    1.3234   19.0528 C   0  0  0  0  0  0  0  0  0  0  0  0
    5.4187    1.2841   17.8093 C   0  0  0  0  0  0  0  0  0  0  0  0
    6.5692    0.6197   17.5865 N   0  0  0  0  0  0  0  0  0  0  0  0
    7.1445    0.0166   18.6272 C   0  0  0  0  0  0  0  0  0  0  0  0
    8.0613   -0.5461   18.4466 H   0  0  0  0  0  0  0  0  0  0  0  0
    5.0055    1.8146   16.9569 H   0  0  0  0  0  0  0  0  0  0  0  0
    3.8346    1.8522   19.1616 H   0  0  0  0  0  0  0  0  0  0  0  0
    4.9345    0.7023   21.1433 H   0  0  0  0  0  0  0  0  0  0  0  0
    7.4559   -0.2654   22.3129 C   0  0  0  0  0  0  0  0  0  0  0  0
    7.1928    1.0518   22.8721 C   0  0  0  0  0  0  0  0  0  0  0  0
    7.4893    2.2223   22.1785 C   0  0  0  0  0  0  0  0  0  0  0  0
    7.2013    3.4902   22.7240 C   0  0  0  0  0  0  0  0  0  0  0  0
    6.6088    3.6038   23.9700 C   0  0  0  0  0  0  0  0  0  0  0  0
    6.2916    2.4264   24.7163 C   0  0  0  0  0  0  0  0  0  0  0  0
    5.6661    2.4384   26.0068 C   0  0  0  0  0  0  0  0  0  0  0  0
    5.3853    1.2480   26.6294 C   0  0  0  0  0  0  0  0  0  0  0  0
    5.7086    0.0144   25.9770 C   0  0  0  0  0  0  0  0  0  0  0  0
    5.4166   -1.2972   26.6547 C   0  0  0  0  0  0  0  0  0  0  0  0
    5.7972   -2.1301   26.0624 H   0  0  0  0  0  0  0  0  0  0  0  0
    4.3419   -1.4356   26.7929 H   0  0  0  0  0  0  0  0  0  0  0  0
    5.8877   -1.3324   27.6394 H   0  0  0  0  0  0  0  0  0  0  0  0
    6.2725   -0.0412   24.8013 N   0  0  0  0  0  0  0  0  0  0  0  0
    6.5961    1.1229   24.1628 C   0  0  0  0  0  0  0  0  0  0  0  0
    4.9264    1.1951   27.6129 H   0  0  0  0  0  0  0  0  0  0  0  0
    5.4174    3.3914   26.4801 H   0  0  0  0  0  0  0  0  0  0  0  0
    6.3695    4.5909   24.3760 H   0  0  0  0  0  0  0  0  0  0  0  0
    7.4465    4.3740   22.1347 H   0  0  0  0  0  0  0  0  0  0  0  0
    7.9322    2.1561   21.1840 H   0  0  0  0  0  0  0  0  0  0  0  0
    8.0116   -1.2939   22.9311 N   0  0  0  0  0  0  0  0  0  0  0  0
    9.6831   -3.4629   22.7006 H   0  0  0  0  0  0  0  0  0  0  0  0
    8.9830   -3.8771   21.1106 H   0  0  0  0  0  0  0  0  0  0  0  0
    8.3517   -5.5189   22.9014 H   0  0  0  0  0  0  0  0  0  0  0  0
    6.9574   -4.8010   22.0869 H   0  0  0  0  0  0  0  0  0  0  0  0
    7.4022   -4.2493   23.7134 H   0  0  0  0  0  0  0  0  0  0  0  0
  1  2  1  0
  2  3  1  0
  3  4  2  0
  4  5  1  0
  5  6  1  0
  6  7  2  0
  7  8  1  0
  8  9  2  0
  9 10  1  0
 10 11  2  0
 11 12  1  0
  9 13  1  0
  8 14  1  0
  7 15  1  0
  5 16  1  0
 16 17  1  0
 17 18  2  0
 18 19  1  0
 19 20  2  0
 20 21  1  0
 21 22  2  0
 22 23  1  0
 23 24  2  0
 24 25  1  0
 25 26  1  0
 25 27  1  0
 25 28  1  0
 24 29  1  0
 29 30  2  0
 23 31  1  0
 22 32  1  0
 20 33  1  0
 19 34  1  0
 18 35  1  0
 16 36  2  0
  2 37  1  0
  2 38  1  0
  1 39  1  0
  1 40  1  0
  1 41  1  0
 36  3  1  0
 11  6  1  0
 30 17  1  0
 30 21  1  0
M  END
>  <cnnaffinity>  (1) 
-5.5512

>  <filename>  (1) 
CCc1nc(-c2cccc3ccc(C)nc23)n(-c2cccnc2)n1

$$$$
