
     RDKit          3D

 48 50  0  0  0  0  0  0  0  0999 V2000
    2.7433   -6.9246   25.9205 C   0  0  0  0  0  0  0  0  0  0  0  0
    2.8977   -5.3990   26.0625 C   0  0  0  0  0  0  0  0  0  0  0  0
    3.7961   -4.7356   25.0280 C   0  0  0  0  0  0  0  0  0  0  0  0
    3.4927   -4.8438   23.6649 C   0  0  0  0  0  0  0  0  0  0  0  0
    4.2631   -4.1955   22.7045 C   0  0  0  0  0  0  0  0  0  0  0  0
    5.3069   -3.3210   23.0548 C   0  0  0  0  0  0  0  0  0  0  0  0
    5.9326   -2.4841   21.9551 C   0  0  0  0  0  0  0  0  0  0  0  0
    5.8726   -2.8431   20.7867 O   0  0  0  0  0  0  0  0  0  0  0  0
    6.4836   -1.2888   22.3088 N   0  0  0  0  0  0  0  0  0  0  0  0
    7.3663   -0.5295   21.4291 C   0  0  0  0  0  0  0  0  0  0  0  0
    6.6055    0.0219   20.2078 C   0  0  0  0  0  0  0  0  0  0  0  0
    5.3815    0.6966   20.3620 C   0  0  0  0  0  0  0  0  0  0  0  0
    4.8107    1.3499   19.2653 C   0  0  0  0  0  0  0  0  0  0  0  0
    5.4595    1.2877   18.0276 C   0  0  0  0  0  0  0  0  0  0  0  0
    6.5831    0.5897   17.8298 N   0  0  0  0  0  0  0  0  0  0  0  0
    7.1137   -0.0356   18.8953 C   0  0  0  0  0  0  0  0  0  0  0  0
    8.0083   -0.6082   18.6622 H   0  0  0  0  0  0  0  0  0  0  0  0
    5.0541    1.8098   17.1610 H   0  0  0  0  0  0  0  0  0  0  0  0
    3.8880    1.9121   19.3555 H   0  0  0  0  0  0  0  0  0  0  0  0
    4.8824    0.6965   21.3322 H   0  0  0  0  0  0  0  0  0  0  0  0
    8.6098   -1.3688   21.0635 C   0  0  0  0  0  0  0  0  0  0  0  0
    9.7382   -0.3729   20.7591 C   0  0  0  0  0  0  0  0  0  0  0  0
    9.3447    0.9397   21.4821 C   0  0  0  0  0  0  0  0  0  0  0  0
    8.0463    0.6035   22.2421 C   0  0  0  0  0  0  0  0  0  0  0  0
    7.3949    1.4745   22.3837 H   0  0  0  0  0  0  0  0  0  0  0  0
    8.2960    0.2146   23.2399 H   0  0  0  0  0  0  0  0  0  0  0  0
   10.1308    1.3080   22.1517 H   0  0  0  0  0  0  0  0  0  0  0  0
    9.1392    1.7358   20.7579 H   0  0  0  0  0  0  0  0  0  0  0  0
    9.7974   -0.2238   19.6790 H   0  0  0  0  0  0  0  0  0  0  0  0
   10.7088   -0.7691   21.0740 H   0  0  0  0  0  0  0  0  0  0  0  0
    8.3802   -2.0532   20.2487 H   0  0  0  0  0  0  0  0  0  0  0  0
    8.8676   -1.9840   21.9336 H   0  0  0  0  0  0  0  0  0  0  0  0
    6.6367   -1.1875   23.2934 H   0  0  0  0  0  0  0  0  0  0  0  0
    5.6849   -3.2949   24.4149 C   0  0  0  0  0  0  0  0  0  0  0  0
    6.8018   -2.5727   24.7601 O   0  0  0  0  0  0  0  0  0  0  0  0
    7.5565   -2.9957   25.8873 C   0  0  0  0  0  0  0  0  0  0  0  0
    8.5515   -2.5551   25.7942 H   0  0  0  0  0  0  0  0  0  0  0  0
    7.1161   -2.6564   26.8334 H   0  0  0  0  0  0  0  0  0  0  0  0
    7.6431   -4.0894   25.9127 H   0  0  0  0  0  0  0  0  0  0  0  0
    4.9300   -3.9904   25.3835 C   0  0  0  0  0  0  0  0  0  0  0  0
    5.2458   -3.9410   26.4199 H   0  0  0  0  0  0  0  0  0  0  0  0
    4.0734   -4.3964   21.6590 H   0  0  0  0  0  0  0  0  0  0  0  0
    2.6511   -5.4478   23.3416 H   0  0  0  0  0  0  0  0  0  0  0  0
    3.2674   -5.1630   27.0671 H   0  0  0  0  0  0  0  0  0  0  0  0
    1.9068   -4.9246   26.0071 H   0  0  0  0  0  0  0  0  0  0  0  0
    1.9750   -7.3101   26.6014 H   0  0  0  0  0  0  0  0  0  0  0  0
    2.4459   -7.2094   24.9037 H   0  0  0  0  0  0  0  0  0  0  0  0
    3.6853   -7.4343   26.1554 H   0  0  0  0  0  0  0  0  0  0  0  0
  1  2  1  0
  2  3  1  0
  3  4  2  0
  4  5  1  0
  5  6  2  0
  6  7  1  0
  7  8  2  0
  7  9  1  0
  9 10  1  0
 10 11  1  0
 11 12  2  0
 12 13  1  0
 13 14  2  0
 14 15  1  0
 15 16  2  0
 16 17  1  0
 14 18  1  0
 13 19  1  0
 12 20  1  0
 10 21  1  0
 21 22  1  0
 22 23  1  0
 23 24  1  0
 24 25  1  0
 24 26  1  0
 23 27  1  0
 23 28  1  0
 22 29  1  0
 22 30  1  0
 21 31  1  0
 21 32  1  0
  9 33  1  0
  6 34  1  0
 34 35  1  0
 35 36  1  0
 36 37  1  0
 36 38  1  0
 36 39  1  0
 34 40  2  0
 40 41  1  0
  5 42  1  0
  4 43  1  0
  2 44  1  0
  2 45  1  0
  1 46  1  0
  1 47  1  0
  1 48  1  0
 40  3  1  0
 24 10  1  0
 16 11  1  0
M  END
>  <cnnaffinity>  (1) 
-5.60473

>  <filename>  (1) 
CCc1ccc(C(=O)NC2(c3cccnc3)CCCC2)c(OC)c1

$$$$
