
     RDKit          3D

 47 51  0  0  0  0  0  0  0  0999 V2000
    6.2141    4.3577   22.3405 C   0  0  0  0  0  0  0  0  0  0  0  0
    6.1320    3.8043   23.7682 C   0  0  0  0  0  0  0  0  0  0  0  0
    7.4663    3.7779   24.4677 C   0  0  0  0  0  0  0  0  0  0  0  0
    7.8849    4.6131   25.4702 C   0  0  0  0  0  0  0  0  0  0  0  0
    9.1975    4.3364   25.7510 N   0  0  0  0  0  0  0  0  0  0  0  0
    9.6446    3.3465   24.9325 C   0  0  0  0  0  0  0  0  0  0  0  0
    8.5954    2.9588   24.1265 C   0  0  0  0  0  0  0  0  0  0  0  0
    8.6485    1.9362   23.0814 C   0  0  0  0  0  0  0  0  0  0  0  0
    7.6584    1.1470   22.6829 N   0  0  0  0  0  0  0  0  0  0  0  0
    8.2335    0.3378   21.7625 C   0  0  0  0  0  0  0  0  0  0  0  0
    7.4473   -0.6581   20.9548 C   0  0  0  0  0  0  0  0  0  0  0  0
    6.6779   -0.0278   19.7997 C   0  0  0  0  0  0  0  0  0  0  0  0
    5.4730    0.6370   20.0578 C   0  0  0  0  0  0  0  0  0  0  0  0
    4.8275    1.3027   19.0137 C   0  0  0  0  0  0  0  0  0  0  0  0
    5.4150    1.2805   17.7451 C   0  0  0  0  0  0  0  0  0  0  0  0
    6.5502    0.6196   17.4646 N   0  0  0  0  0  0  0  0  0  0  0  0
    7.1531   -0.0187   18.4766 C   0  0  0  0  0  0  0  0  0  0  0  0
    8.0663   -0.5630   18.2286 H   0  0  0  0  0  0  0  0  0  0  0  0
    4.9518    1.8082   16.9130 H   0  0  0  0  0  0  0  0  0  0  0  0
    3.9003    1.8431   19.1750 H   0  0  0  0  0  0  0  0  0  0  0  0
    5.0691    0.6318   21.0729 H   0  0  0  0  0  0  0  0  0  0  0  0
    8.1420   -1.4197   20.5906 H   0  0  0  0  0  0  0  0  0  0  0  0
    6.7380   -1.1473   21.6310 H   0  0  0  0  0  0  0  0  0  0  0  0
    9.5239    0.5362   21.5754 N   0  0  0  0  0  0  0  0  0  0  0  0
    9.7841    1.6038   22.3819 N   0  0  0  0  0  0  0  0  0  0  0  0
   11.0527    2.2551   22.3802 C   0  0  0  0  0  0  0  0  0  0  0  0
   11.1974    3.6439   22.3417 C   0  0  0  0  0  0  0  0  0  0  0  0
   12.4707    4.2463   22.4866 C   0  0  0  0  0  0  0  0  0  0  0  0
   13.6227    3.4829   22.6885 C   0  0  0  0  0  0  0  0  0  0  0  0
   13.4901    2.0794   22.7183 C   0  0  0  0  0  0  0  0  0  0  0  0
   12.2285    1.4958   22.4987 C   0  0  0  0  0  0  0  0  0  0  0  0
   12.4472    0.1421   22.5290 N   0  0  0  0  0  0  0  0  0  0  0  0
   13.7774   -0.0308   22.7772 C   0  0  0  0  0  0  0  0  0  0  0  0
   14.4397    1.0827   22.9100 N   0  0  0  0  0  0  0  0  0  0  0  0
   14.2115   -1.0173   22.8564 H   0  0  0  0  0  0  0  0  0  0  0  0
   11.7657   -0.5256   22.2014 H   0  0  0  0  0  0  0  0  0  0  0  0
   14.6024    3.9367   22.8076 H   0  0  0  0  0  0  0  0  0  0  0  0
   12.5522    5.3280   22.4520 H   0  0  0  0  0  0  0  0  0  0  0  0
   10.3052    4.2621   22.2735 H   0  0  0  0  0  0  0  0  0  0  0  0
   10.6723    2.9925   24.9321 H   0  0  0  0  0  0  0  0  0  0  0  0
    9.7726    4.8470   26.3969 H   0  0  0  0  0  0  0  0  0  0  0  0
    7.3430    5.3955   25.9888 H   0  0  0  0  0  0  0  0  0  0  0  0
    5.7256    2.7851   23.7316 H   0  0  0  0  0  0  0  0  0  0  0  0
    5.4200    4.3991   24.3537 H   0  0  0  0  0  0  0  0  0  0  0  0
    6.5946    5.3857   22.3309 H   0  0  0  0  0  0  0  0  0  0  0  0
    6.8802    3.7458   21.7204 H   0  0  0  0  0  0  0  0  0  0  0  0
    5.2264    4.3644   21.8665 H   0  0  0  0  0  0  0  0  0  0  0  0
  1  2  1  0
  2  3  1  0
  3  4  2  0
  4  5  1  0
  5  6  1  0
  6  7  2  0
  7  8  1  0
  8  9  2  0
  9 10  1  0
 10 11  1  0
 11 12  1  0
 12 13  2  0
 13 14  1  0
 14 15  2  0
 15 16  1  0
 16 17  2  0
 17 18  1  0
 15 19  1  0
 14 20  1  0
 13 21  1  0
 11 22  1  0
 11 23  1  0
 10 24  2  0
 24 25  1  0
 25 26  1  0
 26 27  2  0
 27 28  1  0
 28 29  2  0
 29 30  1  0
 30 31  2  0
 31 32  1  0
 32 33  1  0
 33 34  2  0
 33 35  1  0
 32 36  1  0
 29 37  1  0
 28 38  1  0
 27 39  1  0
  6 40  1  0
  5 41  1  0
  4 42  1  0
  2 43  1  0
  2 44  1  0
  1 45  1  0
  1 46  1  0
  1 47  1  0
  7  3  1  0
 25  8  1  0
 31 26  1  0
 17 12  1  0
 34 30  1  0
M  END
>  <cnnaffinity>  (1) 
-6.47584

>  <filename>  (1) 
CCc1c[nH]cc1-c1nc(Cc2cccnc2)nn1-c1cccc2nc[nH]c12

$$$$
