
     RDKit          3D

 41 42  0  0  0  0  0  0  0  0999 V2000
    5.3867   -3.3285   21.6767 C   0  0  0  0  0  0  0  0  0  0  0  0
    6.5069   -3.0843   20.6715 C   0  0  0  0  0  0  0  0  0  0  0  0
    7.5834   -2.1239   21.1827 C   0  0  0  0  0  0  0  0  0  0  0  0
    7.1743   -0.6485   21.2885 C   0  0  0  0  0  0  0  0  0  0  0  0
    8.3857    0.2774   21.5974 N   0  0  0  0  0  4  0  0  0  0  0  0
    9.4297   -0.1707   22.5949 C   0  0  0  0  0  0  0  0  0  0  0  0
   10.7748    0.5505   22.6420 C   0  0  0  0  0  0  0  0  0  0  0  0
   10.9080    1.9463   22.7478 C   0  0  0  0  0  0  0  0  0  0  0  0
   12.1927    2.5201   22.8103 C   0  0  0  0  0  0  0  0  0  0  0  0
   12.3954    4.0256   22.9984 C   0  0  0  0  0  0  0  0  0  0  0  0
   11.8783    4.7426   21.9863 F   0  0  0  0  0  0  0  0  0  0  0  0
   11.7953    4.4635   24.1232 F   0  0  0  0  0  0  0  0  0  0  0  0
   13.6992    4.3504   23.0936 F   0  0  0  0  0  0  0  0  0  0  0  0
   13.2864    1.6434   22.7358 C   0  0  0  0  0  0  0  0  0  0  0  0
   13.0560    0.2675   22.6817 C   0  0  0  0  0  0  0  0  0  0  0  0
   11.8377   -0.2760   22.6534 N   0  0  0  0  0  0  0  0  0  0  0  0
   13.9027   -0.4148   22.6791 H   0  0  0  0  0  0  0  0  0  0  0  0
   14.3032    2.0194   22.7114 H   0  0  0  0  0  0  0  0  0  0  0  0
   10.0127    2.5566   22.7832 H   0  0  0  0  0  0  0  0  0  0  0  0
    9.7084   -1.2010   22.3641 H   0  0  0  0  0  0  0  0  0  0  0  0
    9.0115   -0.1954   23.6112 H   0  0  0  0  0  0  0  0  0  0  0  0
    7.9478    1.1937   21.8636 H   0  0  0  0  0  0  0  0  0  0  0  0
    8.8142    0.4195   20.6513 H   0  0  0  0  0  0  0  0  0  0  0  0
    6.5913    0.0121   20.0717 C   0  0  0  0  0  0  0  0  0  0  0  0
    5.3587    0.6798   20.1531 C   0  0  0  0  0  0  0  0  0  0  0  0
    4.8857    1.3679   19.0341 C   0  0  0  0  0  0  0  0  0  0  0  0
    5.6490    1.3436   17.8634 C   0  0  0  0  0  0  0  0  0  0  0  0
    6.8106    0.6838   17.7529 N   0  0  0  0  0  0  0  0  0  0  0  0
    7.2695    0.0505   18.8413 C   0  0  0  0  0  0  0  0  0  0  0  0
    8.2194   -0.4658   18.6907 H   0  0  0  0  0  0  0  0  0  0  0  0
    5.3164    1.8795   16.9750 H   0  0  0  0  0  0  0  0  0  0  0  0
    3.9613    1.9375   19.0623 H   0  0  0  0  0  0  0  0  0  0  0  0
    4.8049    0.6748   21.0931 H   0  0  0  0  0  0  0  0  0  0  0  0
    6.4560   -0.5464   22.1099 H   0  0  0  0  0  0  0  0  0  0  0  0
    7.8781   -2.4323   22.1940 H   0  0  0  0  0  0  0  0  0  0  0  0
    8.4923   -2.2205   20.5765 H   0  0  0  0  0  0  0  0  0  0  0  0
    6.1212   -2.7193   19.7077 H   0  0  0  0  0  0  0  0  0  0  0  0
    6.9745   -4.0520   20.4600 H   0  0  0  0  0  0  0  0  0  0  0  0
    5.7924   -3.5350   22.6762 H   0  0  0  0  0  0  0  0  0  0  0  0
    4.7735   -4.1827   21.3811 H   0  0  0  0  0  0  0  0  0  0  0  0
    4.7358   -2.4605   21.7641 H   0  0  0  0  0  0  0  0  0  0  0  0
  1  2  1  0
  2  3  1  0
  3  4  1  0
  4  5  1  0
  5  6  1  0
  6  7  1  0
  7  8  2  0
  8  9  1  0
  9 10  1  0
 10 11  1  0
 10 12  1  0
 10 13  1  0
  9 14  2  0
 14 15  1  0
 15 16  2  0
 15 17  1  0
 14 18  1  0
  8 19  1  0
  6 20  1  0
  6 21  1  0
  5 22  1  0
  5 23  1  0
  4 24  1  0
 24 25  2  0
 25 26  1  0
 26 27  2  0
 27 28  1  0
 28 29  2  0
 29 30  1  0
 27 31  1  0
 26 32  1  0
 25 33  1  0
  4 34  1  0
  3 35  1  0
  3 36  1  0
  2 37  1  0
  2 38  1  0
  1 39  1  0
  1 40  1  0
  1 41  1  0
 16  7  1  0
 29 24  1  0
M  CHG  1   5   1
M  END
>  <cnnaffinity>  (1) 
-4.37383

>  <filename>  (1) 
CCCC([NH2+]Cc1cc(C(F)(F)F)ccn1)c1cccnc1

$$$$
