
     RDKit          3D

 41 44  0  0  0  0  0  0  0  0999 V2000
    8.2331   -5.9126   23.1923 C   0  0  0  0  0  0  0  0  0  0  0  0
    7.4937   -4.6046   22.9583 C   0  0  0  0  0  0  0  0  0  0  0  0
    8.4358   -3.4953   22.4654 C   0  0  0  0  0  0  0  0  0  0  0  0
    7.7547   -2.1958   22.2312 C   0  0  0  0  0  0  0  0  0  0  0  0
    7.3549   -1.4209   23.2182 N   0  0  0  0  0  0  0  0  0  0  0  0
    6.7966   -0.3663   22.5675 N   0  0  0  0  0  0  0  0  0  0  0  0
    6.4016    0.7970   23.2946 C   0  0  0  0  0  0  0  0  0  0  0  0
    5.4960    0.6753   24.3302 C   0  0  0  0  0  0  0  0  0  0  0  0
    4.9830    1.8321   24.9654 C   0  0  0  0  0  0  0  0  0  0  0  0
    5.3797    3.0903   24.5531 C   0  0  0  0  0  0  0  0  0  0  0  0
    6.3674    3.2375   23.5330 C   0  0  0  0  0  0  0  0  0  0  0  0
    6.8480    4.4972   23.0684 C   0  0  0  0  0  0  0  0  0  0  0  0
    7.8940    4.5451   22.1781 C   0  0  0  0  0  0  0  0  0  0  0  0
    8.5408    3.4478   21.7132 N   0  0  0  0  0  0  0  0  0  0  0  0
    8.0914    2.2710   22.0946 C   0  0  0  0  0  0  0  0  0  0  0  0
    6.9545    2.0772   22.9501 C   0  0  0  0  0  0  0  0  0  0  0  0
    8.6463    1.4066   21.7316 H   0  0  0  0  0  0  0  0  0  0  0  0
    8.2823    5.4952   21.8182 H   0  0  0  0  0  0  0  0  0  0  0  0
    6.3945    5.4135   23.4211 H   0  0  0  0  0  0  0  0  0  0  0  0
    4.9776    3.9863   25.0155 H   0  0  0  0  0  0  0  0  0  0  0  0
    4.2657    1.7115   25.7773 H   0  0  0  0  0  0  0  0  0  0  0  0
    5.1760   -0.3159   24.6400 H   0  0  0  0  0  0  0  0  0  0  0  0
    6.8413   -0.5981   21.2202 C   0  0  0  0  0  0  0  0  0  0  0  0
    6.3141    0.2220   20.1248 C   0  0  0  0  0  0  0  0  0  0  0  0
    5.1917    1.0682   20.1606 C   0  0  0  0  0  0  0  0  0  0  0  0
    4.7736    1.6501   18.9594 C   0  0  0  0  0  0  0  0  0  0  0  0
    5.4863    1.3813   17.7873 C   0  0  0  0  0  0  0  0  0  0  0  0
    6.5868    0.6186   17.7542 N   0  0  0  0  0  0  0  0  0  0  0  0
    6.9855    0.0663   18.9010 C   0  0  0  0  0  0  0  0  0  0  0  0
    7.8969   -0.5280   18.8660 H   0  0  0  0  0  0  0  0  0  0  0  0
    5.1653    1.7866   16.8265 H   0  0  0  0  0  0  0  0  0  0  0  0
    3.9189    2.3148   18.9076 H   0  0  0  0  0  0  0  0  0  0  0  0
    4.6514    1.2660   21.0898 H   0  0  0  0  0  0  0  0  0  0  0  0
    7.4659   -1.7422   20.9947 N   0  0  0  0  0  0  0  0  0  0  0  0
    8.8788   -3.7892   21.5119 H   0  0  0  0  0  0  0  0  0  0  0  0
    9.2506   -3.3313   23.1795 H   0  0  0  0  0  0  0  0  0  0  0  0
    7.0024   -4.2904   23.8892 H   0  0  0  0  0  0  0  0  0  0  0  0
    6.6964   -4.7487   22.2159 H   0  0  0  0  0  0  0  0  0  0  0  0
    7.5221   -6.6896   23.4687 H   0  0  0  0  0  0  0  0  0  0  0  0
    8.7700   -6.2470   22.2950 H   0  0  0  0  0  0  0  0  0  0  0  0
    8.9589   -5.8045   24.0073 H   0  0  0  0  0  0  0  0  0  0  0  0
  1  2  1  0
  2  3  1  0
  3  4  1  0
  4  5  2  0
  5  6  1  0
  6  7  1  0
  7  8  2  0
  8  9  1  0
  9 10  2  0
 10 11  1  0
 11 12  2  0
 12 13  1  0
 13 14  2  0
 14 15  1  0
 15 16  2  0
 15 17  1  0
 13 18  1  0
 12 19  1  0
 10 20  1  0
  9 21  1  0
  8 22  1  0
  6 23  1  0
 23 24  1  0
 24 25  2  0
 25 26  1  0
 26 27  2  0
 27 28  1  0
 28 29  2  0
 29 30  1  0
 27 31  1  0
 26 32  1  0
 25 33  1  0
 23 34  2  0
  3 35  1  0
  3 36  1  0
  2 37  1  0
  2 38  1  0
  1 39  1  0
  1 40  1  0
  1 41  1  0
 34  4  1  0
 16  7  1  0
 29 24  1  0
 16 11  1  0
M  END
>  <cnnaffinity>  (1) 
-5.77242

>  <filename>  (1) 
CCCc1nc(-c2cccnc2)n(-c2cccc3ccncc23)n1

$$$$
