
     RDKit          3D

 31 32  0  0  0  0  0  0  0  0999 V2000
    4.9408    1.7842   16.9961 H   0  0  0  0  0  0  0  0  0  0  0  0
    5.4085    1.2888   17.8425 C   0  0  0  0  0  0  0  0  0  0  0  0
    6.5746    0.6658   17.5981 N   0  0  0  0  0  0  0  0  0  0  0  0
    7.1736    0.0350   18.6113 C   0  0  0  0  0  0  0  0  0  0  0  0
    8.1201   -0.4460   18.3769 H   0  0  0  0  0  0  0  0  0  0  0  0
    6.6485    0.0086   19.9151 C   0  0  0  0  0  0  0  0  0  0  0  0
    7.3631   -0.6522   20.9468 N   0  0  0  0  0  0  0  0  0  0  0  0
    7.9361   -1.8544   20.7059 N   0  0  0  0  0  0  0  0  0  0  0  0
    8.4640   -2.2224   21.8649 C   0  0  0  0  0  0  0  0  0  0  0  0
    8.9803   -3.1708   21.9160 H   0  0  0  0  0  0  0  0  0  0  0  0
    8.2611   -1.2684   22.8827 C   0  0  0  0  0  0  0  0  0  0  0  0
    8.5588   -1.2679   23.9179 H   0  0  0  0  0  0  0  0  0  0  0  0
    7.5569   -0.2750   22.2526 C   0  0  0  0  0  0  0  0  0  0  0  0
    7.1419    0.9537   22.7763 N   0  0  0  0  0  0  0  0  0  0  0  0
    7.0935    1.7439   22.1518 H   0  0  0  0  0  0  0  0  0  0  0  0
    6.9744    1.1755   24.1231 C   0  0  0  0  0  0  0  0  0  0  0  0
    6.9285    0.2681   24.9301 O   0  0  0  0  0  0  0  0  0  0  0  0
    6.8685    2.6247   24.5794 C   0  0  0  0  0  0  0  0  0  0  0  0
    6.1369    2.6076   25.3915 H   0  0  0  0  0  0  0  0  0  0  0  0
    6.4737    3.2798   23.7901 H   0  0  0  0  0  0  0  0  0  0  0  0
    8.2131    3.1704   25.1148 C   0  0  0  0  0  0  0  0  0  0  0  0
    8.5951    2.4964   25.8943 H   0  0  0  0  0  0  0  0  0  0  0  0
    8.0392    4.1285   25.6236 H   0  0  0  0  0  0  0  0  0  0  0  0
    9.2508    3.3494   24.0088 C   0  0  0  0  0  0  0  0  0  0  0  0
   10.1753    3.8008   24.3842 H   0  0  0  0  0  0  0  0  0  0  0  0
    9.5102    2.3913   23.5433 H   0  0  0  0  0  0  0  0  0  0  0  0
    8.8640    4.0034   23.2175 H   0  0  0  0  0  0  0  0  0  0  0  0
    5.4307    0.6456   20.1679 C   0  0  0  0  0  0  0  0  0  0  0  0
    4.9926    0.6266   21.1697 H   0  0  0  0  0  0  0  0  0  0  0  0
    4.8078    1.3006   19.1048 C   0  0  0  0  0  0  0  0  0  0  0  0
    3.8806    1.8344   19.2534 H   0  0  0  0  0  0  0  0  0  0  0  0
  1  2  1  0
  2  3  2  0
  3  4  1  0
  4  5  1  0
  4  6  2  0
  6  7  1  0
  7  8  1  0
  8  9  2  0
  9 10  1  0
  9 11  1  0
 11 12  1  0
 11 13  2  0
 13 14  1  0
 14 15  1  0
 14 16  1  0
 16 17  2  0
 16 18  1  0
 18 19  1  0
 18 20  1  0
 18 21  1  0
 21 22  1  0
 21 23  1  0
 21 24  1  0
 24 25  1  0
 24 26  1  0
 24 27  1  0
  6 28  1  0
 28 29  1  0
 28 30  2  0
 30 31  1  0
 30  2  1  0
 13  7  1  0
M  END
>  <cnnaffinity>  (1) 
-4.8401

>  <filename>  (1) 
CCCC(=O)Nc1ccnn1-c1cccnc1

$$$$
