
     RDKit          3D

 31 32  0  0  0  0  0  0  0  0999 V2000
    4.9268    1.8856   16.8594 H   0  0  0  0  0  0  0  0  0  0  0  0
    5.4297    1.4539   17.7233 C   0  0  0  0  0  0  0  0  0  0  0  0
    6.6371    0.9086   17.4978 N   0  0  0  0  0  0  0  0  0  0  0  0
    7.2541    0.3241   18.5297 C   0  0  0  0  0  0  0  0  0  0  0  0
    8.2270   -0.1227   18.3320 H   0  0  0  0  0  0  0  0  0  0  0  0
    6.7116    0.2146   19.8422 C   0  0  0  0  0  0  0  0  0  0  0  0
    7.3534   -0.6018   20.8041 N   0  0  0  0  0  0  0  0  0  0  0  0
    7.5284   -0.1778   21.9988 C   0  0  0  0  0  0  0  0  0  0  0  0
    7.1962    1.0369   22.5828 N   0  0  0  0  0  0  0  0  0  0  0  0
    7.3115    0.8991   23.5702 H   0  0  0  0  0  0  0  0  0  0  0  0
    7.6205    2.2193   21.9976 C   0  0  0  0  0  0  0  0  0  0  0  0
    8.3173    2.2445   21.0040 O   0  0  0  0  0  0  0  0  0  0  0  0
    7.0377    3.4660   22.6363 C   0  0  0  0  0  0  0  0  0  0  0  0
    7.7146    4.2871   22.3875 H   0  0  0  0  0  0  0  0  0  0  0  0
    7.0221    3.3497   23.7272 H   0  0  0  0  0  0  0  0  0  0  0  0
    5.6122    3.7548   22.1073 C   0  0  0  0  0  0  0  0  0  0  0  0
    4.9469    2.9291   22.3984 H   0  0  0  0  0  0  0  0  0  0  0  0
    5.6290    3.7546   21.0061 H   0  0  0  0  0  0  0  0  0  0  0  0
    5.0073    5.0720   22.5946 C   0  0  0  0  0  0  0  0  0  0  0  0
    4.9206    5.1083   23.6873 H   0  0  0  0  0  0  0  0  0  0  0  0
    5.6076    5.9336   22.2777 H   0  0  0  0  0  0  0  0  0  0  0  0
    3.9993    5.2010   22.1816 H   0  0  0  0  0  0  0  0  0  0  0  0
    8.0297   -0.9808   23.0467 N   0  0  0  0  0  0  0  0  0  0  0  0
    8.6787   -1.9563   22.6627 N   0  0  0  0  0  0  0  0  0  0  0  0
    8.6562   -2.7415   23.3330 H   0  0  0  0  0  0  0  0  0  0  0  0
    6.7988   -3.0194   21.4838 C   0  0  0  0  0  0  0  0  0  0  0  0
    6.5865   -3.3440   21.4415 O   0  0  0  0  0  0  0  0  0  0  0  0
    5.4683    0.8509   20.0522 C   0  0  0  0  0  0  0  0  0  0  0  0
    5.0302    0.8482   21.0499 H   0  0  0  0  0  0  0  0  0  0  0  0
    4.8123    1.4568   18.9751 C   0  0  0  0  0  0  0  0  0  0  0  0
    3.8514    1.9474   19.1045 H   0  0  0  0  0  0  0  0  0  0  0  0
  1  2  1  0
  2  3  2  0
  3  4  1  0
  4  5  1  0
  4  6  2  0
  6  7  1  0
  7  8  1  0
  8  9  1  0
  9 10  1  0
  9 11  1  0
 11 12  2  0
 11 13  1  0
 13 14  1  0
 13 15  1  0
 13 16  1  0
 16 17  1  0
 16 18  1  0
 16 19  1  0
 19 20  1  0
 19 21  1  0
 19 22  1  0
  8 23  2  0
 23 24  1  0
 24 25  1  0
 24 26  1  0
 26 27  2  0
  6 28  1  0
 28 29  1  0
 28 30  2  0
 30 31  1  0
 30  2  1  0
 26  7  1  0
M  END
>  <cnnaffinity>  (1) 
-4.95225

>  <filename>  (1) 
CCCC(=O)Nc1n[nH]c(=O)n1-c1cccnc1

$$$$
