
     RDKit          3D

 44 45  0  0  0  0  0  0  0  0999 V2000
    4.9191    1.7789   16.8970 H   0  0  0  0  0  0  0  0  0  0  0  0
    5.3658    1.3725   17.8021 C   0  0  0  0  0  0  0  0  0  0  0  0
    6.5787    0.8258   17.6472 N   0  0  0  0  0  0  0  0  0  0  0  0
    7.1595    0.3205   18.7410 C   0  0  0  0  0  0  0  0  0  0  0  0
    8.1485   -0.1027   18.5740 H   0  0  0  0  0  0  0  0  0  0  0  0
    6.5852    0.3251   20.0293 C   0  0  0  0  0  0  0  0  0  0  0  0
    7.2698   -0.4303   21.1195 C   0  0  0  0  0  0  0  0  0  0  0  0
    7.5296    0.3830   22.6454 S   0  0  0  0  0  0  0  0  0  0  0  0
    8.3107   -0.8616   23.6112 C   0  0  0  0  0  0  0  0  0  0  0  0
    8.4561   -0.5547   25.0878 C   0  0  0  0  0  0  0  0  0  0  0  0
    8.4798    0.5266   25.2503 H   0  0  0  0  0  0  0  0  0  0  0  0
    9.4216   -0.9538   25.4328 H   0  0  0  0  0  0  0  0  0  0  0  0
    7.3222   -1.2176   25.9092 C   0  0  0  0  0  0  0  0  0  0  0  0
    6.3533   -0.8877   25.5059 H   0  0  0  0  0  0  0  0  0  0  0  0
    7.3587   -2.3061   25.7557 H   0  0  0  0  0  0  0  0  0  0  0  0
    7.3685   -0.9407   27.4167 C   0  0  0  0  0  0  0  0  0  0  0  0
    6.6061   -1.5668   27.9032 H   0  0  0  0  0  0  0  0  0  0  0  0
    8.3386   -1.2723   27.8215 H   0  0  0  0  0  0  0  0  0  0  0  0
    7.1315    0.5314   27.7797 C   0  0  0  0  0  0  0  0  0  0  0  0
    7.8760    1.1539   27.2649 H   0  0  0  0  0  0  0  0  0  0  0  0
    6.1510    0.8385   27.3803 H   0  0  0  0  0  0  0  0  0  0  0  0
    7.1928    0.8494   29.2816 C   0  0  0  0  0  0  0  0  0  0  0  0
    7.1605    1.9419   29.4092 H   0  0  0  0  0  0  0  0  0  0  0  0
    8.1718    0.5337   29.6799 H   0  0  0  0  0  0  0  0  0  0  0  0
    6.0687    0.2209   30.1162 C   0  0  0  0  0  0  0  0  0  0  0  0
    5.0971    0.5932   29.7526 H   0  0  0  0  0  0  0  0  0  0  0  0
    6.0395   -0.8677   29.9594 H   0  0  0  0  0  0  0  0  0  0  0  0
    6.1966    0.5032   31.6176 C   0  0  0  0  0  0  0  0  0  0  0  0
    7.1746    0.1386   31.9687 H   0  0  0  0  0  0  0  0  0  0  0  0
    6.2005    1.5913   31.7830 H   0  0  0  0  0  0  0  0  0  0  0  0
    5.0825   -0.1443   32.4437 C   0  0  0  0  0  0  0  0  0  0  0  0
    5.1637    0.1182   33.5038 H   0  0  0  0  0  0  0  0  0  0  0  0
    5.1195   -1.2385   32.3685 H   0  0  0  0  0  0  0  0  0  0  0  0
    4.0915    0.1757   32.0970 H   0  0  0  0  0  0  0  0  0  0  0  0
    8.6703   -2.0692   23.1402 C   0  0  0  0  0  0  0  0  0  0  0  0
    9.2043   -2.7654   23.7826 H   0  0  0  0  0  0  0  0  0  0  0  0
    8.3201   -2.6038   21.8249 C   0  0  0  0  0  0  0  0  0  0  0  0
    8.5561   -3.7647   21.5215 O   0  0  0  0  0  0  0  0  0  0  0  0
    7.6453   -1.7034   20.8918 C   0  0  0  0  0  0  0  0  0  0  0  0
    7.4218   -2.1501   19.9379 H   0  0  0  0  0  0  0  0  0  0  0  0
    5.3301    0.9395   20.1746 C   0  0  0  0  0  0  0  0  0  0  0  0
    4.8614    1.0114   21.1576 H   0  0  0  0  0  0  0  0  0  0  0  0
    4.7003    1.4513   19.0319 C   0  0  0  0  0  0  0  0  0  0  0  0
    3.7309    1.9370   19.0851 H   0  0  0  0  0  0  0  0  0  0  0  0
  1  2  1  0
  2  3  2  0
  3  4  1  0
  4  5  1  0
  4  6  2  0
  6  7  1  0
  7  8  1  0
  8  9  1  0
  9 10  1  0
 10 11  1  0
 10 12  1  0
 10 13  1  0
 13 14  1  0
 13 15  1  0
 13 16  1  0
 16 17  1  0
 16 18  1  0
 16 19  1  0
 19 20  1  0
 19 21  1  0
 19 22  1  0
 22 23  1  0
 22 24  1  0
 22 25  1  0
 25 26  1  0
 25 27  1  0
 25 28  1  0
 28 29  1  0
 28 30  1  0
 28 31  1  0
 31 32  1  0
 31 33  1  0
 31 34  1  0
  9 35  2  0
 35 36  1  0
 35 37  1  0
 37 38  2  0
 37 39  1  0
 39 40  1  0
  6 41  1  0
 41 42  1  0
 41 43  2  0
 43 44  1  0
 43  2  1  0
 39  7  2  0
M  END
>  <cnnaffinity>  (1) 
-5.4982

>  <filename>  (1) 
CCCCCCCCc1cc(=O)cc(-c2cccnc2)s1

$$$$
