
     RDKit          3D

 32 33  0  0  0  0  0  0  0  0999 V2000
    4.9768    1.8238   16.9583 H   0  0  0  0  0  0  0  0  0  0  0  0
    5.4274    1.3017   17.8005 C   0  0  0  0  0  0  0  0  0  0  0  0
    6.5813    0.6630   17.5558 N   0  0  0  0  0  0  0  0  0  0  0  0
    7.1502    0.0126   18.5775 C   0  0  0  0  0  0  0  0  0  0  0  0
    8.0841   -0.5021   18.3594 H   0  0  0  0  0  0  0  0  0  0  0  0
    6.6212   -0.0116   19.8780 C   0  0  0  0  0  0  0  0  0  0  0  0
    7.3822   -0.7011   20.9327 C   0  0  0  0  0  0  0  0  0  0  0  0
    8.0288   -1.8068   20.7267 N   0  0  0  0  0  0  0  0  0  0  0  0
    8.5400   -2.1230   21.9532 N   0  0  0  0  0  0  0  0  0  0  0  0
    9.0216   -2.9777   22.1618 H   0  0  0  0  0  0  0  0  0  0  0  0
    8.2582   -1.2416   22.9442 C   0  0  0  0  0  0  0  0  0  0  0  0
    8.6008   -1.3445   24.1129 O   0  0  0  0  0  0  0  0  0  0  0  0
    7.5060   -0.2533   22.2501 N   0  0  0  0  0  0  0  0  0  0  0  0
    6.8956    0.9328   22.7732 N   0  0  0  0  0  0  0  0  0  0  0  0
    7.3617    1.7396   22.3496 H   0  0  0  0  0  0  0  0  0  0  0  0
    6.9365    1.0983   24.2271 C   0  0  0  0  0  0  0  0  0  0  0  0
    6.0762    1.7233   24.4970 H   0  0  0  0  0  0  0  0  0  0  0  0
    6.7986    0.1234   24.7081 H   0  0  0  0  0  0  0  0  0  0  0  0
    8.2211    1.7810   24.7124 C   0  0  0  0  0  0  0  0  0  0  0  0
    9.0704    1.1278   24.4730 H   0  0  0  0  0  0  0  0  0  0  0  0
    8.3753    2.7221   24.1543 H   0  0  0  0  0  0  0  0  0  0  0  0
    8.1805    2.0824   26.2156 C   0  0  0  0  0  0  0  0  0  0  0  0
    9.0227    2.7345   26.4748 H   0  0  0  0  0  0  0  0  0  0  0  0
    7.2704    2.6591   26.4420 H   0  0  0  0  0  0  0  0  0  0  0  0
    8.2252    0.8381   27.1082 C   0  0  0  0  0  0  0  0  0  0  0  0
    8.2289    1.1240   28.1656 H   0  0  0  0  0  0  0  0  0  0  0  0
    7.3633    0.1775   26.9531 H   0  0  0  0  0  0  0  0  0  0  0  0
    9.1274    0.2442   26.9154 H   0  0  0  0  0  0  0  0  0  0  0  0
    5.4074    0.6512   20.1200 C   0  0  0  0  0  0  0  0  0  0  0  0
    4.9657    0.6648   21.1215 H   0  0  0  0  0  0  0  0  0  0  0  0
    4.8037    1.3110   19.0532 C   0  0  0  0  0  0  0  0  0  0  0  0
    3.8673    1.8387   19.1815 H   0  0  0  0  0  0  0  0  0  0  0  0
  1  2  1  0
  2  3  2  0
  3  4  1  0
  4  5  1  0
  4  6  2  0
  6  7  1  0
  7  8  2  0
  8  9  1  0
  9 10  1  0
  9 11  1  0
 11 12  2  0
 11 13  1  0
 13 14  1  0
 14 15  1  0
 14 16  1  0
 16 17  1  0
 16 18  1  0
 16 19  1  0
 19 20  1  0
 19 21  1  0
 19 22  1  0
 22 23  1  0
 22 24  1  0
 22 25  1  0
 25 26  1  0
 25 27  1  0
 25 28  1  0
  6 29  1  0
 29 30  1  0
 29 31  2  0
 31 32  1  0
 31  2  1  0
 13  7  1  0
M  END
>  <cnnaffinity>  (1) 
-4.69986

>  <filename>  (1) 
CCCCNn1c(-c2cccnc2)n[nH]c1=O

$$$$
