
     RDKit          3D

 43 44  0  0  0  0  0  0  0  0999 V2000
    8.9922   -2.7675   23.7090 H   0  0  0  0  0  0  0  0  0  0  0  0
    8.4782   -2.1894   22.9402 C   0  0  0  0  0  0  0  0  0  0  0  0
    7.9854   -2.8641   21.9036 N   0  0  0  0  0  0  0  0  0  0  0  0
    7.3934   -2.1197   20.9674 C   0  0  0  0  0  0  0  0  0  0  0  0
    6.9482   -2.6585   20.1305 H   0  0  0  0  0  0  0  0  0  0  0  0
    7.2829   -0.7305   21.0159 C   0  0  0  0  0  0  0  0  0  0  0  0
    6.6418    0.0265   19.8878 C   0  0  0  0  0  0  0  0  0  0  0  0
    7.1648    0.0441   18.5735 C   0  0  0  0  0  0  0  0  0  0  0  0
    8.0977   -0.4800   18.3549 H   0  0  0  0  0  0  0  0  0  0  0  0
    6.5870    0.6718   17.5413 N   0  0  0  0  0  0  0  0  0  0  0  0
    5.4338    1.3167   17.7822 C   0  0  0  0  0  0  0  0  0  0  0  0
    4.9846    1.8198   16.9302 H   0  0  0  0  0  0  0  0  0  0  0  0
    4.8180    1.3595   19.0388 C   0  0  0  0  0  0  0  0  0  0  0  0
    3.8930    1.9073   19.1740 H   0  0  0  0  0  0  0  0  0  0  0  0
    5.4402    0.7101   20.1061 C   0  0  0  0  0  0  0  0  0  0  0  0
    5.0192    0.7186   21.1144 H   0  0  0  0  0  0  0  0  0  0  0  0
    7.7650   -0.1391   22.2071 C   0  0  0  0  0  0  0  0  0  0  0  0
    7.5878    1.3252   22.5781 C   0  0  0  0  0  0  0  0  0  0  0  0
    7.1026    1.8817   21.7705 H   0  0  0  0  0  0  0  0  0  0  0  0
    6.8905    1.3384   23.4234 H   0  0  0  0  0  0  0  0  0  0  0  0
    8.8684    2.0620   23.0109 C   0  0  0  0  0  0  0  0  0  0  0  0
    9.4366    1.4211   23.6996 H   0  0  0  0  0  0  0  0  0  0  0  0
    8.5763    2.9467   23.5865 H   0  0  0  0  0  0  0  0  0  0  0  0
    9.7472    2.5684   21.8653 C   0  0  0  0  0  0  0  0  0  0  0  0
    9.1285    3.2143   21.2243 H   0  0  0  0  0  0  0  0  0  0  0  0
   10.5335    3.2163   22.2739 H   0  0  0  0  0  0  0  0  0  0  0  0
   10.4124    1.5186   20.9752 C   0  0  0  0  0  0  0  0  0  0  0  0
    9.6284    0.9998   20.4051 H   0  0  0  0  0  0  0  0  0  0  0  0
   11.0255    2.0568   20.2378 H   0  0  0  0  0  0  0  0  0  0  0  0
   11.2905    0.4673   21.6685 C   0  0  0  0  0  0  0  0  0  0  0  0
   10.6786   -0.0952   22.3880 H   0  0  0  0  0  0  0  0  0  0  0  0
   11.5901   -0.2487   20.8890 H   0  0  0  0  0  0  0  0  0  0  0  0
   12.5341    1.0291   22.3834 C   0  0  0  0  0  0  0  0  0  0  0  0
   12.9890    1.8097   21.7573 H   0  0  0  0  0  0  0  0  0  0  0  0
   12.1999    1.5409   23.3008 H   0  0  0  0  0  0  0  0  0  0  0  0
   13.5971   -0.0158   22.7935 C   0  0  0  0  0  0  0  0  0  0  0  0
   13.2189   -0.5257   23.6845 H   0  0  0  0  0  0  0  0  0  0  0  0
   14.5050    0.5081   23.1217 H   0  0  0  0  0  0  0  0  0  0  0  0
   14.0049   -1.0526   21.7371 C   0  0  0  0  0  0  0  0  0  0  0  0
   14.7012   -1.7834   22.1604 H   0  0  0  0  0  0  0  0  0  0  0  0
   13.1450   -1.6202   21.3639 H   0  0  0  0  0  0  0  0  0  0  0  0
   14.5031   -0.5958   20.8738 H   0  0  0  0  0  0  0  0  0  0  0  0
    8.3993   -0.8749   23.1291 N   0  0  0  0  0  0  0  0  0  0  0  0
  1  2  1  0
  2  3  2  0
  3  4  1  0
  4  5  1  0
  4  6  2  0
  6  7  1  0
  7  8  2  0
  8  9  1  0
  8 10  1  0
 10 11  2  0
 11 12  1  0
 11 13  1  0
 13 14  1  0
 13 15  2  0
 15 16  1  0
  6 17  1  0
 17 18  1  0
 18 19  1  0
 18 20  1  0
 18 21  1  0
 21 22  1  0
 21 23  1  0
 21 24  1  0
 24 25  1  0
 24 26  1  0
 24 27  1  0
 27 28  1  0
 27 29  1  0
 27 30  1  0
 30 31  1  0
 30 32  1  0
 30 33  1  0
 33 34  1  0
 33 35  1  0
 33 36  1  0
 36 37  1  0
 36 38  1  0
 36 39  1  0
 39 40  1  0
 39 41  1  0
 39 42  1  0
 17 43  2  0
 43  2  1  0
 15  7  1  0
M  END
>  <cnnaffinity>  (1) 
-5.46886

>  <filename>  (1) 
CCCCCCCCc1ncncc1-c1cccnc1

$$$$
