
     RDKit          3D

 46 47  0  0  0  0  0  0  0  0999 V2000
    5.0226    1.8294   16.9799 H   0  0  0  0  0  0  0  0  0  0  0  0
    5.4895    1.2648   17.7866 C   0  0  0  0  0  0  0  0  0  0  0  0
    6.6236    0.6233   17.4785 N   0  0  0  0  0  0  0  0  0  0  0  0
    7.2399   -0.0490   18.4629 C   0  0  0  0  0  0  0  0  0  0  0  0
    8.1461   -0.5792   18.1745 H   0  0  0  0  0  0  0  0  0  0  0  0
    6.7792   -0.0948   19.7862 C   0  0  0  0  0  0  0  0  0  0  0  0
    7.5550   -0.8076   20.8494 C   0  0  0  0  0  0  0  0  0  0  0  0
    7.3930   -2.2282   20.8759 N   0  0  0  0  0  0  0  0  0  0  0  0
    8.1066   -2.8165   20.4955 H   0  0  0  0  0  0  0  0  0  0  0  0
    6.1946   -2.7884   21.1795 C   0  0  0  0  0  0  0  0  0  0  0  0
    5.2449   -2.1153   21.5137 O   0  0  0  0  0  0  0  0  0  0  0  0
    6.1645   -4.2918   21.1817 C   0  0  0  0  0  0  0  0  0  0  0  0
    5.1171   -4.5872   21.0878 H   0  0  0  0  0  0  0  0  0  0  0  0
    6.7084   -4.6795   20.3127 H   0  0  0  0  0  0  0  0  0  0  0  0
    6.7816   -4.8356   22.4765 C   0  0  0  0  0  0  0  0  0  0  0  0
    7.8387   -4.5333   22.5143 H   0  0  0  0  0  0  0  0  0  0  0  0
    6.3024   -4.3642   23.3498 H   0  0  0  0  0  0  0  0  0  0  0  0
    6.7010   -6.3538   22.5919 C   0  0  0  0  0  0  0  0  0  0  0  0
    7.3752   -6.6464   23.4008 H   0  0  0  0  0  0  0  0  0  0  0  0
    7.1340   -6.7949   21.6798 H   0  0  0  0  0  0  0  0  0  0  0  0
    5.2999   -6.9574   22.8073 C   0  0  0  0  0  0  0  0  0  0  0  0
    4.7296   -6.8601   21.8724 H   0  0  0  0  0  0  0  0  0  0  0  0
    5.4479   -8.0346   22.9698 H   0  0  0  0  0  0  0  0  0  0  0  0
    4.4311   -6.4028   23.9577 C   0  0  0  0  0  0  0  0  0  0  0  0
    4.2146   -5.3383   23.7756 H   0  0  0  0  0  0  0  0  0  0  0  0
    3.4566   -6.9126   23.9040 H   0  0  0  0  0  0  0  0  0  0  0  0
    5.0452   -6.6017   25.3538 C   0  0  0  0  0  0  0  0  0  0  0  0
    5.8924   -5.9062   25.4674 H   0  0  0  0  0  0  0  0  0  0  0  0
    5.4712   -7.6126   25.4009 H   0  0  0  0  0  0  0  0  0  0  0  0
    4.1198   -6.4442   26.5777 C   0  0  0  0  0  0  0  0  0  0  0  0
    3.8037   -5.3966   26.6929 H   0  0  0  0  0  0  0  0  0  0  0  0
    4.7229   -6.6809   27.4673 H   0  0  0  0  0  0  0  0  0  0  0  0
    2.8834   -7.3554   26.5916 C   0  0  0  0  0  0  0  0  0  0  0  0
    2.1340   -7.0486   25.8528 H   0  0  0  0  0  0  0  0  0  0  0  0
    2.3900   -7.3377   27.5715 H   0  0  0  0  0  0  0  0  0  0  0  0
    3.1469   -8.3989   26.3770 H   0  0  0  0  0  0  0  0  0  0  0  0
    7.7067   -0.1816   22.2091 C   0  0  0  0  0  0  0  0  0  0  0  0
    7.6498   -0.8706   23.0438 H   0  0  0  0  0  0  0  0  0  0  0  0
    7.2450    0.7862   22.3826 H   0  0  0  0  0  0  0  0  0  0  0  0
    8.8884   -0.2945   21.2935 C   0  0  0  0  0  0  0  0  0  0  0  0
    9.2478    0.6077   20.8138 H   0  0  0  0  0  0  0  0  0  0  0  0
    9.6563   -1.0264   21.5224 H   0  0  0  0  0  0  0  0  0  0  0  0
    5.5579    0.5275   20.0725 C   0  0  0  0  0  0  0  0  0  0  0  0
    5.1274    0.4146   21.0697 H   0  0  0  0  0  0  0  0  0  0  0  0
    4.9102    1.2378   19.0607 C   0  0  0  0  0  0  0  0  0  0  0  0
    3.9904    1.7789   19.2410 H   0  0  0  0  0  0  0  0  0  0  0  0
  1  2  1  0
  2  3  2  0
  3  4  1  0
  4  5  1  0
  4  6  2  0
  6  7  1  0
  7  8  1  0
  8  9  1  0
  8 10  1  0
 10 11  2  0
 10 12  1  0
 12 13  1  0
 12 14  1  0
 12 15  1  0
 15 16  1  0
 15 17  1  0
 15 18  1  0
 18 19  1  0
 18 20  1  0
 18 21  1  0
 21 22  1  0
 21 23  1  0
 21 24  1  0
 24 25  1  0
 24 26  1  0
 24 27  1  0
 27 28  1  0
 27 29  1  0
 27 30  1  0
 30 31  1  0
 30 32  1  0
 30 33  1  0
 33 34  1  0
 33 35  1  0
 33 36  1  0
  7 37  1  0
 37 38  1  0
 37 39  1  0
 37 40  1  0
 40 41  1  0
 40 42  1  0
  6 43  1  0
 43 44  1  0
 43 45  2  0
 45 46  1  0
 45  2  1  0
 40  7  1  0
M  END
>  <cnnaffinity>  (1) 
-5.11919

>  <filename>  (1) 
CCCCCCCCC(=O)NC1(c2cccnc2)CC1

$$$$
