
     RDKit          3D

 50 50  0  0  0  0  0  0  0  0999 V2000
    2.2656    3.3163   31.3386 C   0  0  0  0  0  0  0  0  0  0  0  0
    2.8444    2.5982   30.1199 C   0  0  0  0  0  0  0  0  0  0  0  0
    3.9283    3.4235   29.4175 C   0  0  0  0  0  0  0  0  0  0  0  0
    4.4562    2.7866   28.1281 C   0  0  0  0  0  0  0  0  0  0  0  0
    5.2858    1.5199   28.3562 C   0  0  0  0  0  0  0  0  0  0  0  0
    5.8885    0.9799   27.0595 C   0  0  0  0  0  0  0  0  0  0  0  0
    6.7363   -0.2744   27.2681 C   0  0  0  0  0  0  0  0  0  0  0  0
    7.3237   -0.8544   25.9862 C   0  0  0  0  0  0  0  0  0  0  0  0
    8.3696    0.0084   25.4216 N   0  0  0  0  0  0  0  0  0  0  0  0
    9.0203   -0.1783   24.2717 C   0  0  0  0  0  0  0  0  0  0  0  0
    8.8103   -1.2947   23.5612 N   0  0  0  0  0  4  0  0  0  0  0  0
    9.2975   -1.5576   22.1982 C   0  0  0  0  0  0  0  0  0  0  0  0
    8.7412   -0.6458   21.0850 C   0  0  0  0  0  0  0  0  0  0  0  0
    9.4886    0.0690   20.4427 O   0  0  0  0  0  0  0  0  0  0  0  0
    7.3799   -0.6867   20.9118 N   0  0  0  0  0  0  0  0  0  0  0  0
    6.6696    0.0005   19.8924 C   0  0  0  0  0  0  0  0  0  0  0  0
    5.4488    0.6311   20.1616 C   0  0  0  0  0  0  0  0  0  0  0  0
    4.8120    1.3024   19.1116 C   0  0  0  0  0  0  0  0  0  0  0  0
    5.3914    1.2962   17.8393 C   0  0  0  0  0  0  0  0  0  0  0  0
    6.5516    0.6789   17.5656 N   0  0  0  0  0  0  0  0  0  0  0  0
    7.1751    0.0625   18.5732 C   0  0  0  0  0  0  0  0  0  0  0  0
    8.1254   -0.4183   18.3544 H   0  0  0  0  0  0  0  0  0  0  0  0
    4.9147    1.7928   16.9986 H   0  0  0  0  0  0  0  0  0  0  0  0
    3.8837    1.8358   19.2651 H   0  0  0  0  0  0  0  0  0  0  0  0
    5.0261    0.6203   21.1677 H   0  0  0  0  0  0  0  0  0  0  0  0
    6.8494   -1.1030   21.6607 H   0  0  0  0  0  0  0  0  0  0  0  0
    9.0850   -2.6034   21.9626 H   0  0  0  0  0  0  0  0  0  0  0  0
   10.3849   -1.4363   22.1325 H   0  0  0  0  0  0  0  0  0  0  0  0
    8.1413   -1.9094   24.0054 H   0  0  0  0  0  0  0  0  0  0  0  0
    9.8872    0.7461   23.8494 N   0  0  0  0  0  0  0  0  0  0  0  0
   10.0330    1.6014   24.3549 H   0  0  0  0  0  0  0  0  0  0  0  0
   10.3128    0.6298   22.9441 H   0  0  0  0  0  0  0  0  0  0  0  0
    8.6877    0.7983   25.9615 H   0  0  0  0  0  0  0  0  0  0  0  0
    6.5100   -0.9718   25.2490 H   0  0  0  0  0  0  0  0  0  0  0  0
    7.7197   -1.8615   26.1935 H   0  0  0  0  0  0  0  0  0  0  0  0
    6.1039   -1.0508   27.7160 H   0  0  0  0  0  0  0  0  0  0  0  0
    7.5342   -0.0830   28.0011 H   0  0  0  0  0  0  0  0  0  0  0  0
    6.4969    1.7669   26.5885 H   0  0  0  0  0  0  0  0  0  0  0  0
    5.0754    0.7587   26.3489 H   0  0  0  0  0  0  0  0  0  0  0  0
    4.6657    0.7451   28.8349 H   0  0  0  0  0  0  0  0  0  0  0  0
    6.0925    1.7403   29.0745 H   0  0  0  0  0  0  0  0  0  0  0  0
    5.0675    3.5232   27.5872 H   0  0  0  0  0  0  0  0  0  0  0  0
    3.6069    2.5513   27.4653 H   0  0  0  0  0  0  0  0  0  0  0  0
    4.7677    3.5862   30.1134 H   0  0  0  0  0  0  0  0  0  0  0  0
    3.5265    4.4214   29.1896 H   0  0  0  0  0  0  0  0  0  0  0  0
    2.0401    2.3778   29.4016 H   0  0  0  0  0  0  0  0  0  0  0  0
    3.2525    1.6234   30.4230 H   0  0  0  0  0  0  0  0  0  0  0  0
    3.0490    3.5277   32.0778 H   0  0  0  0  0  0  0  0  0  0  0  0
    1.4912    2.7171   31.8288 H   0  0  0  0  0  0  0  0  0  0  0  0
    1.8186    4.2763   31.0499 H   0  0  0  0  0  0  0  0  0  0  0  0
  1  2  1  0
  2  3  1  0
  3  4  1  0
  4  5  1  0
  5  6  1  0
  6  7  1  0
  7  8  1  0
  8  9  1  0
  9 10  1  0
 10 11  2  3
 11 12  1  0
 12 13  1  0
 13 14  2  0
 13 15  1  0
 15 16  1  0
 16 17  2  0
 17 18  1  0
 18 19  2  0
 19 20  1  0
 20 21  2  0
 21 22  1  0
 19 23  1  0
 18 24  1  0
 17 25  1  0
 15 26  1  0
 12 27  1  0
 12 28  1  0
 11 29  1  0
 10 30  1  0
 30 31  1  0
 30 32  1  0
  9 33  1  0
  8 34  1  0
  8 35  1  0
  7 36  1  0
  7 37  1  0
  6 38  1  0
  6 39  1  0
  5 40  1  0
  5 41  1  0
  4 42  1  0
  4 43  1  0
  3 44  1  0
  3 45  1  0
  2 46  1  0
  2 47  1  0
  1 48  1  0
  1 49  1  0
  1 50  1  0
 21 16  1  0
M  CHG  1  11   1
M  END
>  <cnnaffinity>  (1) 
-4.93006

>  <filename>  (1) 
CCCCCCCCNC(N)=[NH+]CC(=O)Nc1cccnc1

$$$$
