
     RDKit          3D

 32 33  0  0  0  0  0  0  0  0999 V2000
    4.9291    1.8265   16.9525 H   0  0  0  0  0  0  0  0  0  0  0  0
    5.3897    1.3251   17.8017 C   0  0  0  0  0  0  0  0  0  0  0  0
    6.5534    0.7020   17.5666 N   0  0  0  0  0  0  0  0  0  0  0  0
    7.1331    0.0814   18.6026 C   0  0  0  0  0  0  0  0  0  0  0  0
    8.0887   -0.3952   18.3851 H   0  0  0  0  0  0  0  0  0  0  0  0
    6.5950    0.0322   19.9133 C   0  0  0  0  0  0  0  0  0  0  0  0
    7.2499   -0.7322   21.0135 C   0  0  0  0  0  0  0  0  0  0  0  0
    7.6932   -2.0262   21.0831 C   0  0  0  0  0  0  0  0  0  0  0  0
    7.5299   -2.8114   20.3620 H   0  0  0  0  0  0  0  0  0  0  0  0
    8.2740   -2.3156   22.2891 N   0  0  0  0  0  0  0  0  0  0  0  0
    8.1516   -1.2116   22.9833 C   0  0  0  0  0  0  0  0  0  0  0  0
    8.4651   -1.0696   24.0146 H   0  0  0  0  0  0  0  0  0  0  0  0
    7.5350   -0.2119   22.2691 N   0  0  0  0  0  0  0  0  0  0  0  0
    7.0921    1.0305   22.7768 N   0  0  0  0  0  0  0  0  0  0  0  0
    7.2967    1.0508   23.7754 H   0  0  0  0  0  0  0  0  0  0  0  0
    7.7196    2.2038   22.1489 C   0  0  0  0  0  0  0  0  0  0  0  0
    7.1914    2.4226   21.2138 H   0  0  0  0  0  0  0  0  0  0  0  0
    7.4980    3.0524   22.8053 H   0  0  0  0  0  0  0  0  0  0  0  0
    9.2166    2.0908   21.8730 C   0  0  0  0  0  0  0  0  0  0  0  0
    9.3667    1.2196   21.2240 H   0  0  0  0  0  0  0  0  0  0  0  0
    9.4903    2.9788   21.2933 H   0  0  0  0  0  0  0  0  0  0  0  0
   10.1268    1.9779   23.0976 C   0  0  0  0  0  0  0  0  0  0  0  0
    9.8887    1.0652   23.6680 H   0  0  0  0  0  0  0  0  0  0  0  0
    9.9286    2.8235   23.7718 H   0  0  0  0  0  0  0  0  0  0  0  0
   11.6127    1.9540   22.7241 C   0  0  0  0  0  0  0  0  0  0  0  0
   12.2440    1.8726   23.6158 H   0  0  0  0  0  0  0  0  0  0  0  0
   11.9044    2.8689   22.1925 H   0  0  0  0  0  0  0  0  0  0  0  0
   11.8493    1.1026   22.0722 H   0  0  0  0  0  0  0  0  0  0  0  0
    5.3864    0.7153   20.1354 C   0  0  0  0  0  0  0  0  0  0  0  0
    4.9765    0.7588   21.1454 H   0  0  0  0  0  0  0  0  0  0  0  0
    4.7692    1.3526   19.0559 C   0  0  0  0  0  0  0  0  0  0  0  0
    3.8285    1.8727   19.1793 H   0  0  0  0  0  0  0  0  0  0  0  0
  1  2  1  0
  2  3  2  0
  3  4  1  0
  4  5  1  0
  4  6  2  0
  6  7  1  0
  7  8  2  0
  8  9  1  0
  8 10  1  0
 10 11  2  0
 11 12  1  0
 11 13  1  0
 13 14  1  0
 14 15  1  0
 14 16  1  0
 16 17  1  0
 16 18  1  0
 16 19  1  0
 19 20  1  0
 19 21  1  0
 19 22  1  0
 22 23  1  0
 22 24  1  0
 22 25  1  0
 25 26  1  0
 25 27  1  0
 25 28  1  0
  6 29  1  0
 29 30  1  0
 29 31  2  0
 31 32  1  0
 31  2  1  0
 13  7  1  0
M  END
>  <cnnaffinity>  (1) 
-4.8838

>  <filename>  (1) 
CCCCNn1cncc1-c1cccnc1

$$$$
