
     RDKit          3D

 45 45  0  0  0  0  0  0  0  0999 V2000
    7.0257    1.7466   22.0231 H   0  0  0  0  0  0  0  0  0  0  0  0
    7.3334    1.0733   22.6522 O   0  0  0  0  0  0  0  0  0  0  0  0
    8.2132    0.2222   21.9253 C   0  0  2  0  0  0  0  0  0  0  0  0
    8.6881   -0.4003   22.7004 H   0  0  0  0  0  0  0  0  0  0  0  0
    9.2774    1.0348   21.2016 C   0  0  0  0  0  0  0  0  0  0  0  0
    9.8563    0.3514   20.5630 H   0  0  0  0  0  0  0  0  0  0  0  0
    8.7627    1.7372   20.5291 H   0  0  0  0  0  0  0  0  0  0  0  0
   10.2033    1.8173   22.1325 C   0  0  0  0  0  0  0  0  0  0  0  0
    9.6259    2.5998   22.6429 H   0  0  0  0  0  0  0  0  0  0  0  0
   10.5916    1.1524   22.9195 H   0  0  0  0  0  0  0  0  0  0  0  0
   11.3797    2.4409   21.3878 C   0  0  0  0  0  0  0  0  0  0  0  0
   12.0217    1.6237   21.0294 H   0  0  0  0  0  0  0  0  0  0  0  0
   11.0256    2.9297   20.4737 H   0  0  0  0  0  0  0  0  0  0  0  0
   12.2456    3.3903   22.2295 C   0  0  0  0  0  0  0  0  0  0  0  0
   12.7237    2.7638   22.9941 H   0  0  0  0  0  0  0  0  0  0  0  0
   13.0509    3.7851   21.5936 H   0  0  0  0  0  0  0  0  0  0  0  0
   11.5723    4.5688   22.9507 C   0  0  0  0  0  0  0  0  0  0  0  0
   11.0856    5.2433   22.2302 H   0  0  0  0  0  0  0  0  0  0  0  0
   10.7688    4.2068   23.6087 H   0  0  0  0  0  0  0  0  0  0  0  0
   12.5797    5.3728   23.7861 C   0  0  0  0  0  0  0  0  0  0  0  0
   13.0976    4.7083   24.4883 H   0  0  0  0  0  0  0  0  0  0  0  0
   13.3661    5.7588   23.1215 H   0  0  0  0  0  0  0  0  0  0  0  0
   11.9525    6.5432   24.5400 C   0  0  0  0  0  0  0  0  0  0  0  0
   11.1759    6.1719   25.2208 H   0  0  0  0  0  0  0  0  0  0  0  0
   11.4258    7.1428   23.7940 H   0  0  0  0  0  0  0  0  0  0  0  0
   12.9511    7.3978   25.3226 C   0  0  0  0  0  0  0  0  0  0  0  0
   12.4662    8.2182   25.8616 H   0  0  0  0  0  0  0  0  0  0  0  0
   13.4825    6.7947   26.0668 H   0  0  0  0  0  0  0  0  0  0  0  0
   13.7012    7.8469   24.6637 H   0  0  0  0  0  0  0  0  0  0  0  0
    7.4648   -0.7428   20.9574 C   0  0  2  0  0  0  0  0  0  0  0  0
    8.2537   -1.3149   20.4492 H   0  0  0  0  0  0  0  0  0  0  0  0
    6.6757   -0.0210   19.8601 C   0  0  0  0  0  0  0  0  0  0  0  0
    7.1609    0.0500   18.5382 C   0  0  0  0  0  0  0  0  0  0  0  0
    8.1019   -0.4368   18.2756 H   0  0  0  0  0  0  0  0  0  0  0  0
    6.5491    0.6847   17.5275 N   0  0  0  0  0  0  0  0  0  0  0  0
    5.3958    1.3063   17.8053 C   0  0  0  0  0  0  0  0  0  0  0  0
    4.9205    1.8308   16.9767 H   0  0  0  0  0  0  0  0  0  0  0  0
    4.8069    1.3049   19.0724 C   0  0  0  0  0  0  0  0  0  0  0  0
    3.8757    1.8403   19.2340 H   0  0  0  0  0  0  0  0  0  0  0  0
    5.4603    0.6365   20.1145 C   0  0  0  0  0  0  0  0  0  0  0  0
    5.0308    0.6440   21.1192 H   0  0  0  0  0  0  0  0  0  0  0  0
    6.5935   -1.6992   21.7786 C   0  0  0  0  0  0  0  0  0  0  0  0
    5.9479   -2.3200   21.1535 H   0  0  0  0  0  0  0  0  0  0  0  0
    5.9820   -1.1008   22.4509 H   0  0  0  0  0  0  0  0  0  0  0  0
    7.2000   -2.3622   22.4050 H   0  0  0  0  0  0  0  0  0  0  0  0
  1  2  1  0
  2  3  1  0
  3  4  1  1
  3  5  1  0
  5  6  1  0
  5  7  1  0
  5  8  1  0
  8  9  1  0
  8 10  1  0
  8 11  1  0
 11 12  1  0
 11 13  1  0
 11 14  1  0
 14 15  1  0
 14 16  1  0
 14 17  1  0
 17 18  1  0
 17 19  1  0
 17 20  1  0
 20 21  1  0
 20 22  1  0
 20 23  1  0
 23 24  1  0
 23 25  1  0
 23 26  1  0
 26 27  1  0
 26 28  1  0
 26 29  1  0
  3 30  1  0
 30 31  1  6
 30 32  1  0
 32 33  2  0
 33 34  1  0
 33 35  1  0
 35 36  2  0
 36 37  1  0
 36 38  1  0
 38 39  1  0
 38 40  2  0
 40 41  1  0
 30 42  1  0
 42 43  1  0
 42 44  1  0
 42 45  1  0
 40 32  1  0
M  END
>  <cnnaffinity>  (1) 
-4.27442

>  <filename>  (1) 
CCCCCCCC[C@@H](O)[C@@H](C)c1cccnc1

$$$$
