
     RDKit          3D

 38 39  0  0  0  0  0  0  0  0999 V2000
    4.9774    1.8394   16.9455 H   0  0  0  0  0  0  0  0  0  0  0  0
    5.4217    1.3117   17.7884 C   0  0  0  0  0  0  0  0  0  0  0  0
    6.5722    0.6666   17.5466 N   0  0  0  0  0  0  0  0  0  0  0  0
    7.1551    0.0359   18.5701 C   0  0  0  0  0  0  0  0  0  0  0  0
    8.0838   -0.4751   18.3159 H   0  0  0  0  0  0  0  0  0  0  0  0
    6.6421    0.0062   19.8733 C   0  0  0  0  0  0  0  0  0  0  0  0
    7.3602   -0.6933   20.9533 C   0  0  0  0  0  0  0  0  0  0  0  0
    6.8368   -1.0162   22.1227 N   0  0  0  0  0  0  0  0  0  0  0  0
    7.8553   -1.6223   22.7929 C   0  0  0  0  0  0  0  0  0  0  0  0
    7.7099   -2.1978   24.1742 C   0  0  0  0  0  0  0  0  0  0  0  0
    8.6233   -1.9857   24.7400 H   0  0  0  0  0  0  0  0  0  0  0  0
    6.8890   -1.6561   24.6584 H   0  0  0  0  0  0  0  0  0  0  0  0
    7.4018   -3.7124   24.1836 C   0  0  0  0  0  0  0  0  0  0  0  0
    7.4089   -4.0780   25.2204 H   0  0  0  0  0  0  0  0  0  0  0  0
    8.1991   -4.2670   23.6651 H   0  0  0  0  0  0  0  0  0  0  0  0
    6.0471   -4.0086   23.5302 C   0  0  0  0  0  0  0  0  0  0  0  0
    6.0232   -3.5341   22.5428 H   0  0  0  0  0  0  0  0  0  0  0  0
    5.2553   -3.5033   24.1051 H   0  0  0  0  0  0  0  0  0  0  0  0
    5.7207   -5.4998   23.3839 C   0  0  0  0  0  0  0  0  0  0  0  0
    6.5239   -5.9774   22.7933 H   0  0  0  0  0  0  0  0  0  0  0  0
    4.7997   -5.6179   22.7905 H   0  0  0  0  0  0  0  0  0  0  0  0
    5.6252   -6.2744   24.7122 C   0  0  0  0  0  0  0  0  0  0  0  0
    5.4013   -7.3309   24.4980 H   0  0  0  0  0  0  0  0  0  0  0  0
    6.6356   -6.2721   25.1457 H   0  0  0  0  0  0  0  0  0  0  0  0
    4.6350   -5.8391   25.8041 C   0  0  0  0  0  0  0  0  0  0  0  0
    3.6173   -5.7882   25.3967 H   0  0  0  0  0  0  0  0  0  0  0  0
    4.8488   -4.8213   26.1499 H   0  0  0  0  0  0  0  0  0  0  0  0
    4.7005   -6.8109   26.9898 C   0  0  0  0  0  0  0  0  0  0  0  0
    4.3510   -7.8103   26.7084 H   0  0  0  0  0  0  0  0  0  0  0  0
    4.1000   -6.4888   27.8465 H   0  0  0  0  0  0  0  0  0  0  0  0
    5.7354   -6.9262   27.3362 H   0  0  0  0  0  0  0  0  0  0  0  0
    8.9802   -1.6974   22.1066 N   0  0  0  0  0  0  0  0  0  0  0  0
    8.6460   -1.1056   20.9314 N   0  0  0  0  0  0  0  0  0  0  0  0
    9.3566   -0.9592   20.2324 H   0  0  0  0  0  0  0  0  0  0  0  0
    5.4223    0.6682   20.1069 C   0  0  0  0  0  0  0  0  0  0  0  0
    4.9733    0.6788   21.1020 H   0  0  0  0  0  0  0  0  0  0  0  0
    4.8046    1.3266   19.0440 C   0  0  0  0  0  0  0  0  0  0  0  0
    3.8711    1.8601   19.1701 H   0  0  0  0  0  0  0  0  0  0  0  0
  1  2  1  0
  2  3  2  0
  3  4  1  0
  4  5  1  0
  4  6  2  0
  6  7  1  0
  7  8  2  0
  8  9  1  0
  9 10  1  0
 10 11  1  0
 10 12  1  0
 10 13  1  0
 13 14  1  0
 13 15  1  0
 13 16  1  0
 16 17  1  0
 16 18  1  0
 16 19  1  0
 19 20  1  0
 19 21  1  0
 19 22  1  0
 22 23  1  0
 22 24  1  0
 22 25  1  0
 25 26  1  0
 25 27  1  0
 25 28  1  0
 28 29  1  0
 28 30  1  0
 28 31  1  0
  9 32  2  0
 32 33  1  0
 33 34  1  0
  6 35  1  0
 35 36  1  0
 35 37  2  0
 37 38  1  0
 37  2  1  0
 33  7  1  0
M  END
>  <cnnaffinity>  (1) 
-5.03887

>  <filename>  (1) 
CCCCCCCc1n[nH]c(-c2cccnc2)n1

$$$$
