
     RDKit          3D

 40 41  0  0  0  0  0  0  0  0999 V2000
   10.5048   -1.3110   21.8492 H   0  0  0  0  0  0  0  0  0  0  0  0
    9.4134   -1.3324   21.8560 C   0  0  0  0  0  0  0  0  0  0  0  0
    8.7878   -0.7127   20.8547 N   0  0  0  0  0  0  0  0  0  0  0  0
    7.4519   -0.7343   20.9005 C   0  0  0  0  0  0  0  0  0  0  0  0
    6.7016    0.0154   19.8783 C   0  0  0  0  0  0  0  0  0  0  0  0
    7.2152    0.0599   18.5773 C   0  0  0  0  0  0  0  0  0  0  0  0
    8.1679   -0.4191   18.3631 H   0  0  0  0  0  0  0  0  0  0  0  0
    6.5958    0.6635   17.5608 N   0  0  0  0  0  0  0  0  0  0  0  0
    5.4366    1.2878   17.8160 C   0  0  0  0  0  0  0  0  0  0  0  0
    4.9657    1.7912   16.9760 H   0  0  0  0  0  0  0  0  0  0  0  0
    4.8367    1.3142   19.0820 C   0  0  0  0  0  0  0  0  0  0  0  0
    3.8913    1.8293   19.2218 H   0  0  0  0  0  0  0  0  0  0  0  0
    5.4826    0.6679   20.1328 C   0  0  0  0  0  0  0  0  0  0  0  0
    5.0568    0.7004   21.1381 H   0  0  0  0  0  0  0  0  0  0  0  0
    6.7615   -1.4567   21.8644 C   0  0  0  0  0  0  0  0  0  0  0  0
    5.6874   -1.5690   21.7939 H   0  0  0  0  0  0  0  0  0  0  0  0
    7.5088   -2.0375   22.8749 C   0  0  0  0  0  0  0  0  0  0  0  0
    6.8390   -2.6988   24.0485 C   0  0  0  0  0  0  0  0  0  0  0  0
    7.5130   -3.4783   24.4069 H   0  0  0  0  0  0  0  0  0  0  0  0
    5.9208   -3.1942   23.7088 H   0  0  0  0  0  0  0  0  0  0  0  0
    6.4942   -1.7361   25.2036 C   0  0  0  0  0  0  0  0  0  0  0  0
    7.4211   -1.2966   25.5974 H   0  0  0  0  0  0  0  0  0  0  0  0
    5.9037   -0.8957   24.8164 H   0  0  0  0  0  0  0  0  0  0  0  0
    5.6994   -2.3872   26.3447 C   0  0  0  0  0  0  0  0  0  0  0  0
    5.3824   -1.5999   27.0425 H   0  0  0  0  0  0  0  0  0  0  0  0
    4.7745   -2.8156   25.9301 H   0  0  0  0  0  0  0  0  0  0  0  0
    6.4382   -3.4669   27.1394 C   0  0  0  0  0  0  0  0  0  0  0  0
    7.3571   -3.0342   27.5583 H   0  0  0  0  0  0  0  0  0  0  0  0
    6.7619   -4.2714   26.4641 H   0  0  0  0  0  0  0  0  0  0  0  0
    5.6083   -4.0560   28.2887 C   0  0  0  0  0  0  0  0  0  0  0  0
    5.3054   -3.2402   28.9617 H   0  0  0  0  0  0  0  0  0  0  0  0
    4.6791   -4.4731   27.8850 H   0  0  0  0  0  0  0  0  0  0  0  0
    6.3700   -5.1095   29.0988 C   0  0  0  0  0  0  0  0  0  0  0  0
    7.3375   -4.6800   29.3473 H   0  0  0  0  0  0  0  0  0  0  0  0
    6.5901   -5.9766   28.4624 H   0  0  0  0  0  0  0  0  0  0  0  0
    5.7110   -5.5684   30.4019 C   0  0  0  0  0  0  0  0  0  0  0  0
    4.7670   -6.0928   30.2290 H   0  0  0  0  0  0  0  0  0  0  0  0
    5.5040   -4.7158   31.0607 H   0  0  0  0  0  0  0  0  0  0  0  0
    6.3640   -6.2555   30.9554 H   0  0  0  0  0  0  0  0  0  0  0  0
    8.8455   -1.9865   22.8675 N   0  0  0  0  0  0  0  0  0  0  0  0
  1  2  1  0
  2  3  2  0
  3  4  1  0
  4  5  1  0
  5  6  2  0
  6  7  1  0
  6  8  1  0
  8  9  2  0
  9 10  1  0
  9 11  1  0
 11 12  1  0
 11 13  2  0
 13 14  1  0
  4 15  2  0
 15 16  1  0
 15 17  1  0
 17 18  1  0
 18 19  1  0
 18 20  1  0
 18 21  1  0
 21 22  1  0
 21 23  1  0
 21 24  1  0
 24 25  1  0
 24 26  1  0
 24 27  1  0
 27 28  1  0
 27 29  1  0
 27 30  1  0
 30 31  1  0
 30 32  1  0
 30 33  1  0
 33 34  1  0
 33 35  1  0
 33 36  1  0
 36 37  1  0
 36 38  1  0
 36 39  1  0
 17 40  2  0
 40  2  1  0
 13  5  1  0
M  END
>  <cnnaffinity>  (1) 
-5.04932

>  <filename>  (1) 
CCCCCCCc1cc(-c2cccnc2)ncn1

$$$$
