
     RDKit          3D

 43 46  0  0  0  0  0  0  0  0999 V2000
    6.1908   -5.4574   23.7540 C   0  0  0  0  0  0  0  0  0  0  0  0
    7.1865   -4.3049   23.5916 C   0  0  0  0  0  0  0  0  0  0  0  0
    8.0511   -4.4794   22.3367 C   0  0  0  0  0  0  0  0  0  0  0  0
    8.9726   -3.2883   21.9904 C   0  0  0  0  0  0  0  0  0  0  0  0
    8.2826   -1.9753   21.8736 C   0  0  0  0  0  0  0  0  0  0  0  0
    7.8125   -1.5970   20.7063 N   0  0  0  0  0  0  0  0  0  0  0  0
    7.2285   -0.4052   20.9546 N   0  0  0  0  0  0  0  0  0  0  0  0
    6.5091    0.1929   19.8844 C   0  0  0  0  0  0  0  0  0  0  0  0
    5.2684    0.8242   20.0353 C   0  0  0  0  0  0  0  0  0  0  0  0
    4.6925    1.3922   18.8919 C   0  0  0  0  0  0  0  0  0  0  0  0
    5.3692    1.3110   17.6710 C   0  0  0  0  0  0  0  0  0  0  0  0
    6.5338    0.6573   17.5169 N   0  0  0  0  0  0  0  0  0  0  0  0
    7.0681    0.0881   18.5965 C   0  0  0  0  0  0  0  0  0  0  0  0
    7.9740   -0.5019   18.4578 H   0  0  0  0  0  0  0  0  0  0  0  0
    4.9684    1.7817   16.7766 H   0  0  0  0  0  0  0  0  0  0  0  0
    3.7444    1.9170   18.9385 H   0  0  0  0  0  0  0  0  0  0  0  0
    4.7687    0.8820   21.0049 H   0  0  0  0  0  0  0  0  0  0  0  0
    7.4419   -0.0779   22.2691 C   0  0  0  0  0  0  0  0  0  0  0  0
    7.0967    1.2559   22.8602 C   0  0  0  0  0  0  0  0  0  0  0  0
    7.4106    2.3408   22.1563 N   0  0  0  0  0  0  0  0  0  0  0  0
    7.1842    3.5677   22.6824 C   0  0  0  0  0  0  0  0  0  0  0  0
    6.6092    3.7713   23.9147 C   0  0  0  0  0  0  0  0  0  0  0  0
    6.2482    2.6502   24.6936 C   0  0  0  0  0  0  0  0  0  0  0  0
    5.6621    2.7533   25.9773 C   0  0  0  0  0  0  0  0  0  0  0  0
    5.3281    1.6026   26.6465 C   0  0  0  0  0  0  0  0  0  0  0  0
    5.5242    0.3558   26.1564 N   0  0  0  0  0  0  0  0  0  0  0  0
    6.0799    0.2457   24.9672 C   0  0  0  0  0  0  0  0  0  0  0  0
    6.4831    1.3512   24.1623 C   0  0  0  0  0  0  0  0  0  0  0  0
    6.2424   -0.7601   24.5892 H   0  0  0  0  0  0  0  0  0  0  0  0
    4.8704    1.6476   27.6311 H   0  0  0  0  0  0  0  0  0  0  0  0
    5.4799    3.7282   26.4152 H   0  0  0  0  0  0  0  0  0  0  0  0
    6.4203    4.7696   24.2855 H   0  0  0  0  0  0  0  0  0  0  0  0
    7.4980    4.4071   22.0649 H   0  0  0  0  0  0  0  0  0  0  0  0
    8.0661   -1.0970   22.8721 N   0  0  0  0  0  0  0  0  0  0  0  0
    9.8004   -3.1980   22.7011 H   0  0  0  0  0  0  0  0  0  0  0  0
    9.3901   -3.4240   20.9902 H   0  0  0  0  0  0  0  0  0  0  0  0
    7.3897   -4.6849   21.4834 H   0  0  0  0  0  0  0  0  0  0  0  0
    8.6695   -5.3815   22.4515 H   0  0  0  0  0  0  0  0  0  0  0  0
    7.8292   -4.2111   24.4773 H   0  0  0  0  0  0  0  0  0  0  0  0
    6.6372   -3.3553   23.5323 H   0  0  0  0  0  0  0  0  0  0  0  0
    6.6572   -6.4279   23.5503 H   0  0  0  0  0  0  0  0  0  0  0  0
    5.7737   -5.5021   24.7640 H   0  0  0  0  0  0  0  0  0  0  0  0
    5.3568   -5.3354   23.0535 H   0  0  0  0  0  0  0  0  0  0  0  0
  1  2  1  0
  2  3  1  0
  3  4  1  0
  4  5  1  0
  5  6  2  0
  6  7  1  0
  7  8  1  0
  8  9  2  0
  9 10  1  0
 10 11  2  0
 11 12  1  0
 12 13  2  0
 13 14  1  0
 11 15  1  0
 10 16  1  0
  9 17  1  0
  7 18  1  0
 18 19  1  0
 19 20  2  0
 20 21  1  0
 21 22  2  0
 22 23  1  0
 23 24  2  0
 24 25  1  0
 25 26  2  0
 26 27  1  0
 27 28  2  0
 27 29  1  0
 25 30  1  0
 24 31  1  0
 22 32  1  0
 21 33  1  0
 18 34  2  0
  4 35  1  0
  4 36  1  0
  3 37  1  0
  3 38  1  0
  2 39  1  0
  2 40  1  0
  1 41  1  0
  1 42  1  0
  1 43  1  0
 34  5  1  0
 13  8  1  0
 28 19  1  0
 28 23  1  0
M  END
>  <cnnaffinity>  (1) 
-5.59087

>  <filename>  (1) 
CCCCc1nc(-c2nccc3ccncc23)n(-c2cccnc2)n1

$$$$
