
     RDKit          3D

 47 48  0  0  0  0  0  0  0  0999 V2000
    1.3197   -6.9286   26.2581 C   0  0  0  0  0  0  0  0  0  0  0  0
    0.8345   -5.4865   26.4220 C   0  0  0  0  0  0  0  0  0  0  0  0
    1.6793   -4.4626   25.6578 C   0  0  0  0  0  0  0  0  0  0  0  0
    3.0912   -4.2841   26.2127 C   0  0  0  0  0  0  0  0  0  0  0  0
    3.8710   -3.1829   25.4914 C   0  0  0  0  0  0  0  0  0  0  0  0
    5.3282   -3.0429   25.9689 C   0  0  0  0  0  0  0  0  0  0  0  0
    5.4233   -2.3889   27.3388 C   0  0  0  0  0  0  0  0  0  0  0  0
    4.9709   -1.3891   27.3408 H   0  0  0  0  0  0  0  0  0  0  0  0
    4.8964   -2.9891   28.0890 H   0  0  0  0  0  0  0  0  0  0  0  0
    6.4671   -2.3075   27.6584 H   0  0  0  0  0  0  0  0  0  0  0  0
    6.1507   -2.2851   24.9971 N   0  0  0  0  0  4  0  0  0  0  0  0
    6.6322   -3.0737   23.8614 C   0  0  0  0  0  0  0  0  0  0  0  0
    7.3492   -2.1698   22.9074 C   0  0  0  0  0  0  0  0  0  0  0  0
    8.7353   -1.9746   22.9896 C   0  0  0  0  0  0  0  0  0  0  0  0
    9.4417   -1.2060   22.1536 N   0  0  0  0  0  0  0  0  0  0  0  0
    8.7642   -0.5937   21.1794 C   0  0  0  0  0  0  0  0  0  0  0  0
    7.3771   -0.7086   20.9784 C   0  0  0  0  0  0  0  0  0  0  0  0
    6.6613    0.0139   19.8959 C   0  0  0  0  0  0  0  0  0  0  0  0
    5.4366    0.6509   20.1461 C   0  0  0  0  0  0  0  0  0  0  0  0
    4.8025    1.3185   19.0978 C   0  0  0  0  0  0  0  0  0  0  0  0
    5.3932    1.3003   17.8297 C   0  0  0  0  0  0  0  0  0  0  0  0
    6.5536    0.6818   17.5628 N   0  0  0  0  0  0  0  0  0  0  0  0
    7.1665    0.0724   18.5836 C   0  0  0  0  0  0  0  0  0  0  0  0
    8.1077   -0.4234   18.3548 H   0  0  0  0  0  0  0  0  0  0  0  0
    4.9129    1.7912   16.9866 H   0  0  0  0  0  0  0  0  0  0  0  0
    3.8722    1.8472   19.2508 H   0  0  0  0  0  0  0  0  0  0  0  0
    5.0157    0.6373   21.1561 H   0  0  0  0  0  0  0  0  0  0  0  0
    6.6704   -1.5237   21.8678 C   0  0  0  0  0  0  0  0  0  0  0  0
    5.5956   -1.6567   21.7217 H   0  0  0  0  0  0  0  0  0  0  0  0
    9.3402    0.0480   20.5123 H   0  0  0  0  0  0  0  0  0  0  0  0
    9.3218   -2.4817   23.7536 H   0  0  0  0  0  0  0  0  0  0  0  0
    7.2896   -3.8831   24.2031 H   0  0  0  0  0  0  0  0  0  0  0  0
    5.7926   -3.5583   23.3471 H   0  0  0  0  0  0  0  0  0  0  0  0
    5.5655   -1.4957   24.6030 H   0  0  0  0  0  0  0  0  0  0  0  0
    6.9800   -1.8407   25.4532 H   0  0  0  0  0  0  0  0  0  0  0  0
    5.7485   -4.0570   26.0365 H   0  0  0  0  0  0  0  0  0  0  0  0
    3.3567   -2.2187   25.6191 H   0  0  0  0  0  0  0  0  0  0  0  0
    3.8578   -3.3912   24.4130 H   0  0  0  0  0  0  0  0  0  0  0  0
    3.0285   -4.0661   27.2883 H   0  0  0  0  0  0  0  0  0  0  0  0
    3.6450   -5.2306   26.1375 H   0  0  0  0  0  0  0  0  0  0  0  0
    1.1673   -3.4912   25.6631 H   0  0  0  0  0  0  0  0  0  0  0  0
    1.7421   -4.7649   24.6019 H   0  0  0  0  0  0  0  0  0  0  0  0
   -0.2078   -5.4146   26.0894 H   0  0  0  0  0  0  0  0  0  0  0  0
    0.8277   -5.2214   27.4884 H   0  0  0  0  0  0  0  0  0  0  0  0
    0.6351   -7.6359   26.7370 H   0  0  0  0  0  0  0  0  0  0  0  0
    1.3896   -7.1981   25.1975 H   0  0  0  0  0  0  0  0  0  0  0  0
    2.3126   -7.0801   26.6969 H   0  0  0  0  0  0  0  0  0  0  0  0
  1  2  1  0
  2  3  1  0
  3  4  1  0
  4  5  1  0
  5  6  1  0
  6  7  1  0
  7  8  1  0
  7  9  1  0
  7 10  1  0
  6 11  1  0
 11 12  1  0
 12 13  1  0
 13 14  2  0
 14 15  1  0
 15 16  2  0
 16 17  1  0
 17 18  1  0
 18 19  2  0
 19 20  1  0
 20 21  2  0
 21 22  1  0
 22 23  2  0
 23 24  1  0
 21 25  1  0
 20 26  1  0
 19 27  1  0
 17 28  2  0
 28 29  1  0
 16 30  1  0
 14 31  1  0
 12 32  1  0
 12 33  1  0
 11 34  1  0
 11 35  1  0
  6 36  1  0
  5 37  1  0
  5 38  1  0
  4 39  1  0
  4 40  1  0
  3 41  1  0
  3 42  1  0
  2 43  1  0
  2 44  1  0
  1 45  1  0
  1 46  1  0
  1 47  1  0
 28 13  1  0
 23 18  1  0
M  CHG  1  11   1
M  END
>  <cnnaffinity>  (1) 
-5.02253

>  <filename>  (1) 
CCCCCC(C)[NH2+]Cc1cncc(-c2cccnc2)c1

$$$$
