
     RDKit          3D

 47 49  0  0  0  0  0  0  0  0999 V2000
    4.9273    1.7788   17.0002 H   0  0  0  0  0  0  0  0  0  0  0  0
    5.4060    1.2870   17.8453 C   0  0  0  0  0  0  0  0  0  0  0  0
    6.5683    0.6715   17.5863 N   0  0  0  0  0  0  0  0  0  0  0  0
    7.1806    0.0550   18.6004 C   0  0  0  0  0  0  0  0  0  0  0  0
    8.1269   -0.4298   18.3741 H   0  0  0  0  0  0  0  0  0  0  0  0
    6.6632    0.0055   19.9080 C   0  0  0  0  0  0  0  0  0  0  0  0
    7.4074   -0.7188   20.9485 C   0  0  0  0  0  0  0  0  0  0  0  0
    8.5369   -1.3383   20.7559 N   0  0  0  0  0  0  0  0  0  0  0  0
    9.0068   -1.9538   21.8808 N   0  0  0  0  0  0  0  0  0  0  0  0
    8.2272   -1.7889   22.9060 C   0  0  0  0  0  0  0  0  0  0  0  0
    8.5097   -2.3476   24.2602 C   0  0  0  0  0  0  0  0  0  0  0  0
    8.1145   -3.8055   24.4852 C   0  0  0  0  0  0  0  0  0  0  0  0
    8.6149   -4.4427   23.7425 H   0  0  0  0  0  0  0  0  0  0  0  0
    8.5015   -4.1396   25.4618 H   0  0  0  0  0  0  0  0  0  0  0  0
    6.6105   -4.0287   24.4458 C   0  0  0  0  0  0  0  0  0  0  0  0
    6.2307   -3.7162   23.4665 H   0  0  0  0  0  0  0  0  0  0  0  0
    6.1265   -3.3698   25.1803 H   0  0  0  0  0  0  0  0  0  0  0  0
    6.2103   -5.4772   24.7299 C   0  0  0  0  0  0  0  0  0  0  0  0
    6.6408   -6.1276   23.9540 H   0  0  0  0  0  0  0  0  0  0  0  0
    6.6459   -5.8057   25.6845 H   0  0  0  0  0  0  0  0  0  0  0  0
    4.6972   -5.6921   24.7765 C   0  0  0  0  0  0  0  0  0  0  0  0
    4.4850   -6.6970   25.1672 H   0  0  0  0  0  0  0  0  0  0  0  0
    4.2493   -4.9886   25.4951 H   0  0  0  0  0  0  0  0  0  0  0  0
    4.0076   -5.5288   23.4227 C   0  0  0  0  0  0  0  0  0  0  0  0
    4.5008   -6.1766   22.6820 H   0  0  0  0  0  0  0  0  0  0  0  0
    4.1365   -4.5015   23.0503 H   0  0  0  0  0  0  0  0  0  0  0  0
    2.5220   -5.8668   23.4788 C   0  0  0  0  0  0  0  0  0  0  0  0
    2.3949   -6.8986   23.8384 H   0  0  0  0  0  0  0  0  0  0  0  0
    2.0276   -5.2263   24.2236 H   0  0  0  0  0  0  0  0  0  0  0  0
    1.8236   -5.7135   22.1345 C   0  0  0  0  0  0  0  0  0  0  0  0
    1.9534   -4.6827   21.7864 H   0  0  0  0  0  0  0  0  0  0  0  0
    2.3212   -6.3627   21.4050 H   0  0  0  0  0  0  0  0  0  0  0  0
    0.3393   -6.0511   22.1900 C   0  0  0  0  0  0  0  0  0  0  0  0
   -0.1789   -5.4008   22.9045 H   0  0  0  0  0  0  0  0  0  0  0  0
   -0.1378   -5.9306   21.2118 H   0  0  0  0  0  0  0  0  0  0  0  0
    0.1898   -7.0868   22.5171 H   0  0  0  0  0  0  0  0  0  0  0  0
    9.7930   -1.9236   24.9067 C   0  0  0  0  0  0  0  0  0  0  0  0
   10.2603   -2.7750   25.3855 H   0  0  0  0  0  0  0  0  0  0  0  0
   10.4518   -1.2086   24.4119 H   0  0  0  0  0  0  0  0  0  0  0  0
    8.4896   -1.4361   25.4662 C   0  0  0  0  0  0  0  0  0  0  0  0
    8.2215   -0.3913   25.3207 H   0  0  0  0  0  0  0  0  0  0  0  0
    8.1639   -1.8484   26.4198 H   0  0  0  0  0  0  0  0  0  0  0  0
    6.8286   -0.8314   22.5773 S   0  0  0  0  0  0  0  0  0  0  0  0
    5.4406    0.6498   20.1680 C   0  0  0  0  0  0  0  0  0  0  0  0
    5.0000    0.6389   21.1659 H   0  0  0  0  0  0  0  0  0  0  0  0
    4.8115    1.3056   19.1101 C   0  0  0  0  0  0  0  0  0  0  0  0
    3.8812    1.8374   19.2589 H   0  0  0  0  0  0  0  0  0  0  0  0
  1  2  1  0
  2  3  2  0
  3  4  1  0
  4  5  1  0
  4  6  2  0
  6  7  1  0
  7  8  2  0
  8  9  1  0
  9 10  2  0
 10 11  1  0
 11 12  1  0
 12 13  1  0
 12 14  1  0
 12 15  1  0
 15 16  1  0
 15 17  1  0
 15 18  1  0
 18 19  1  0
 18 20  1  0
 18 21  1  0
 21 22  1  0
 21 23  1  0
 21 24  1  0
 24 25  1  0
 24 26  1  0
 24 27  1  0
 27 28  1  0
 27 29  1  0
 27 30  1  0
 30 31  1  0
 30 32  1  0
 30 33  1  0
 33 34  1  0
 33 35  1  0
 33 36  1  0
 11 37  1  0
 37 38  1  0
 37 39  1  0
 37 40  1  0
 40 41  1  0
 40 42  1  0
 10 43  1  0
  6 44  1  0
 44 45  1  0
 44 46  2  0
 46 47  1  0
 46  2  1  0
 43  7  1  0
 40 11  1  0
M  END
>  <cnnaffinity>  (1) 
-6.13351

>  <filename>  (1) 
CCCCCCCCC1(c2nnc(-c3cccnc3)s2)CC1

$$$$
