
     RDKit          3D

 45 48  0  0  0  0  0  0  0  0999 V2000
    5.8354   -5.2093   24.4899 C   0  0  0  0  0  0  0  0  0  0  0  0
    6.9288   -4.2232   24.0910 C   0  0  0  0  0  0  0  0  0  0  0  0
    7.6030   -4.5667   22.7606 C   0  0  0  0  0  0  0  0  0  0  0  0
    8.6770   -3.5446   22.2934 C   0  0  0  0  0  0  0  0  0  0  0  0
    9.8463   -3.4491   23.2979 C   0  0  0  0  0  0  0  0  0  0  0  0
    9.6299   -2.7063   24.0782 H   0  0  0  0  0  0  0  0  0  0  0  0
   10.0178   -4.4050   23.8070 H   0  0  0  0  0  0  0  0  0  0  0  0
   10.7711   -3.1472   22.7933 H   0  0  0  0  0  0  0  0  0  0  0  0
    8.1327   -2.1771   21.9821 C   0  0  0  0  0  0  0  0  0  0  0  0
    7.7267   -1.8465   20.7755 N   0  0  0  0  0  0  0  0  0  0  0  0
    7.3013   -0.5666   20.9241 N   0  0  0  0  0  0  0  0  0  0  0  0
    6.5959    0.0360   19.8464 C   0  0  0  0  0  0  0  0  0  0  0  0
    5.3639    0.6651   20.0538 C   0  0  0  0  0  0  0  0  0  0  0  0
    4.7765    1.3132   18.9661 C   0  0  0  0  0  0  0  0  0  0  0  0
    5.4227    1.2854   17.7275 C   0  0  0  0  0  0  0  0  0  0  0  0
    6.5662    0.6099   17.5078 N   0  0  0  0  0  0  0  0  0  0  0  0
    7.1221   -0.0220   18.5447 C   0  0  0  0  0  0  0  0  0  0  0  0
    8.0286   -0.5906   18.3481 H   0  0  0  0  0  0  0  0  0  0  0  0
    5.0013    1.8120   16.8748 H   0  0  0  0  0  0  0  0  0  0  0  0
    3.8299    1.8325   19.0732 H   0  0  0  0  0  0  0  0  0  0  0  0
    4.8958    0.6657   21.0397 H   0  0  0  0  0  0  0  0  0  0  0  0
    7.5296   -0.1620   22.2228 C   0  0  0  0  0  0  0  0  0  0  0  0
    7.3764    1.1748   22.7796 C   0  0  0  0  0  0  0  0  0  0  0  0
    7.2803    1.4441   24.1540 C   0  0  0  0  0  0  0  0  0  0  0  0
    7.2960    0.6785   25.3522 C   0  0  0  0  0  0  0  0  0  0  0  0
    7.1512    1.3278   26.5589 C   0  0  0  0  0  0  0  0  0  0  0  0
    6.9927    2.7530   26.6016 C   0  0  0  0  0  0  0  0  0  0  0  0
    6.9842    3.4830   25.4495 C   0  0  0  0  0  0  0  0  0  0  0  0
    7.1324    2.8284   24.2356 N   0  0  0  0  0  0  0  0  0  0  0  0
    7.1705    3.2958   22.9445 C   0  0  0  0  0  0  0  0  0  0  0  0
    7.3225    2.3452   22.0621 N   0  0  0  0  0  0  0  0  0  0  0  0
    7.0619    4.3445   22.7165 H   0  0  0  0  0  0  0  0  0  0  0  0
    6.8634    4.5611   25.4129 H   0  0  0  0  0  0  0  0  0  0  0  0
    6.8798    3.2549   27.5579 H   0  0  0  0  0  0  0  0  0  0  0  0
    7.1586    0.7591   27.4825 H   0  0  0  0  0  0  0  0  0  0  0  0
    7.4358   -0.3911   25.2685 H   0  0  0  0  0  0  0  0  0  0  0  0
    8.0100   -1.2013   22.9017 N   0  0  0  0  0  0  0  0  0  0  0  0
    8.9892   -3.8737   21.2993 H   0  0  0  0  0  0  0  0  0  0  0  0
    8.0948   -5.5513   22.8447 H   0  0  0  0  0  0  0  0  0  0  0  0
    6.8501   -4.6680   21.9667 H   0  0  0  0  0  0  0  0  0  0  0  0
    6.5001   -3.2146   24.0308 H   0  0  0  0  0  0  0  0  0  0  0  0
    7.6869   -4.1886   24.8866 H   0  0  0  0  0  0  0  0  0  0  0  0
    6.2306   -6.2195   24.6359 H   0  0  0  0  0  0  0  0  0  0  0  0
    5.0506   -5.2667   23.7275 H   0  0  0  0  0  0  0  0  0  0  0  0
    5.3649   -4.9009   25.4286 H   0  0  0  0  0  0  0  0  0  0  0  0
  1  2  1  0
  2  3  1  0
  3  4  1  0
  4  5  1  0
  5  6  1  0
  5  7  1  0
  5  8  1  0
  4  9  1  0
  9 10  2  0
 10 11  1  0
 11 12  1  0
 12 13  2  0
 13 14  1  0
 14 15  2  0
 15 16  1  0
 16 17  2  0
 17 18  1  0
 15 19  1  0
 14 20  1  0
 13 21  1  0
 11 22  1  0
 22 23  1  0
 23 24  2  0
 24 25  1  0
 25 26  2  0
 26 27  1  0
 27 28  2  0
 28 29  1  0
 29 30  1  0
 30 31  2  0
 30 32  1  0
 28 33  1  0
 27 34  1  0
 26 35  1  0
 25 36  1  0
 22 37  2  0
  4 38  1  0
  3 39  1  0
  3 40  1  0
  2 41  1  0
  2 42  1  0
  1 43  1  0
  1 44  1  0
  1 45  1  0
 37  9  1  0
 17 12  1  0
 31 23  1  0
 29 24  1  0
M  END
>  <cnnaffinity>  (1) 
-6.22118

>  <filename>  (1) 
CCCC(C)c1nc(-c2ncn3ccccc23)n(-c2cccnc2)n1

$$$$
