
     RDKit          3D

 45 47  0  0  0  0  0  0  0  0999 V2000
    5.0053    1.7428   16.9607 H   0  0  0  0  0  0  0  0  0  0  0  0
    5.4808    1.2602   17.8097 C   0  0  0  0  0  0  0  0  0  0  0  0
    6.6518    0.6500   17.5717 N   0  0  0  0  0  0  0  0  0  0  0  0
    7.2620    0.0508   18.6056 C   0  0  0  0  0  0  0  0  0  0  0  0
    8.2030   -0.4362   18.3679 H   0  0  0  0  0  0  0  0  0  0  0  0
    6.7572    0.0023   19.9408 C   0  0  0  0  0  0  0  0  0  0  0  0
    7.4163   -0.6454   20.9724 N   0  0  0  0  0  0  0  0  0  0  0  0
    6.8190   -0.8564   22.2884 C   0  0  0  0  0  0  0  0  0  0  0  0
    5.8909   -1.4311   22.1859 H   0  0  0  0  0  0  0  0  0  0  0  0
    6.5844    0.0924   22.8039 H   0  0  0  0  0  0  0  0  0  0  0  0
    7.8449   -1.6599   23.0610 C   0  0  1  0  0  0  0  0  0  0  0  0
    7.4740   -2.4638   23.6849 H   0  0  0  0  0  0  0  0  0  0  0  0
    9.0386   -1.8583   22.1828 C   0  0  1  0  0  0  0  0  0  0  0  0
    9.5344   -2.8245   22.1562 H   0  0  0  0  0  0  0  0  0  0  0  0
    8.7767   -1.1661   20.8602 C   0  0  0  0  0  0  0  0  0  0  0  0
    8.8668   -1.8781   20.0344 H   0  0  0  0  0  0  0  0  0  0  0  0
    9.4979   -0.3584   20.6581 H   0  0  0  0  0  0  0  0  0  0  0  0
    9.1483   -0.9821   23.4121 C   0  0  1  0  0  0  0  0  0  0  0  0
    9.7161   -1.4170   24.2341 H   0  0  0  0  0  0  0  0  0  0  0  0
    9.3346    0.5217   23.2854 C   0  0  0  0  0  0  0  0  0  0  0  0
    9.0770    1.0102   24.2379 H   0  0  0  0  0  0  0  0  0  0  0  0
    8.6427    0.9343   22.5368 H   0  0  0  0  0  0  0  0  0  0  0  0
   10.7732    0.8576   22.8745 C   0  0  0  0  0  0  0  0  0  0  0  0
   11.4562    0.6297   23.7122 H   0  0  0  0  0  0  0  0  0  0  0  0
   11.0689    0.1738   22.0590 H   0  0  0  0  0  0  0  0  0  0  0  0
   10.9697    2.3034   22.3870 C   0  0  0  0  0  0  0  0  0  0  0  0
   10.7077    3.0160   23.1853 H   0  0  0  0  0  0  0  0  0  0  0  0
   10.2635    2.4989   21.5630 H   0  0  0  0  0  0  0  0  0  0  0  0
   12.4056    2.5387   21.8921 C   0  0  0  0  0  0  0  0  0  0  0  0
   12.7140    1.6166   21.3808 H   0  0  0  0  0  0  0  0  0  0  0  0
   12.4270    3.3217   21.1200 H   0  0  0  0  0  0  0  0  0  0  0  0
   13.4166    2.8774   23.0078 C   0  0  0  0  0  0  0  0  0  0  0  0
   13.0937    2.3932   23.9433 H   0  0  0  0  0  0  0  0  0  0  0  0
   14.3810    2.4083   22.7704 H   0  0  0  0  0  0  0  0  0  0  0  0
   13.6420    4.3801   23.2657 C   0  0  0  0  0  0  0  0  0  0  0  0
   13.9660    4.8607   22.3276 H   0  0  0  0  0  0  0  0  0  0  0  0
   14.4937    4.4860   23.9492 H   0  0  0  0  0  0  0  0  0  0  0  0
   12.4312    5.1467   23.8204 C   0  0  0  0  0  0  0  0  0  0  0  0
   11.9177    4.5960   24.6237 H   0  0  0  0  0  0  0  0  0  0  0  0
   11.6912    5.3364   23.0336 H   0  0  0  0  0  0  0  0  0  0  0  0
   12.7305    6.1272   24.2134 H   0  0  0  0  0  0  0  0  0  0  0  0
    5.5172    0.6511   20.1493 C   0  0  0  0  0  0  0  0  0  0  0  0
    5.0670    0.6552   21.1397 H   0  0  0  0  0  0  0  0  0  0  0  0
    4.8820    1.2820   19.0745 C   0  0  0  0  0  0  0  0  0  0  0  0
    3.9333    1.7910   19.2116 H   0  0  0  0  0  0  0  0  0  0  0  0
  1  2  1  0
  2  3  2  0
  3  4  1  0
  4  5  1  0
  4  6  2  0
  6  7  1  0
  7  8  1  0
  8  9  1  0
  8 10  1  0
  8 11  1  0
 11 12  1  1
 11 13  1  0
 13 14  1  6
 13 15  1  0
 15 16  1  0
 15 17  1  0
 13 18  1  0
 18 19  1  1
 18 20  1  0
 20 21  1  0
 20 22  1  0
 20 23  1  0
 23 24  1  0
 23 25  1  0
 23 26  1  0
 26 27  1  0
 26 28  1  0
 26 29  1  0
 29 30  1  0
 29 31  1  0
 29 32  1  0
 32 33  1  0
 32 34  1  0
 32 35  1  0
 35 36  1  0
 35 37  1  0
 35 38  1  0
 38 39  1  0
 38 40  1  0
 38 41  1  0
  6 42  1  0
 42 43  1  0
 42 44  2  0
 44 45  1  0
 44  2  1  0
 15  7  1  0
 18 11  1  0
M  END
>  <cnnaffinity>  (1) 
-5.46091

>  <filename>  (1) 
CCCCCCC[C@H]1[C@H]2CN(c3cccnc3)C[C@@H]12

$$$$
