
     RDKit          3D

 48 49  0  0  0  0  0  0  0  0999 V2000
    5.0159    1.7903   16.8942 H   0  0  0  0  0  0  0  0  0  0  0  0
    5.4768    1.2937   17.7458 C   0  0  0  0  0  0  0  0  0  0  0  0
    6.6265    0.6545   17.5009 N   0  0  0  0  0  0  0  0  0  0  0  0
    7.2200    0.0407   18.5360 C   0  0  0  0  0  0  0  0  0  0  0  0
    8.1544   -0.4587   18.2931 H   0  0  0  0  0  0  0  0  0  0  0  0
    6.7280    0.0213   19.8553 C   0  0  0  0  0  0  0  0  0  0  0  0
    7.4155   -0.7340   21.0084 C   0  0  0  0  0  0  0  0  0  0  0  0
    6.5217   -1.9433   21.3719 C   0  0  0  0  0  0  0  0  0  0  0  0
    6.3424   -2.5382   20.4643 H   0  0  0  0  0  0  0  0  0  0  0  0
    5.5364   -1.5464   21.6386 H   0  0  0  0  0  0  0  0  0  0  0  0
    7.0265   -2.8890   22.4703 C   0  0  0  0  0  0  0  0  0  0  0  0
    7.5082   -2.3420   23.2934 H   0  0  0  0  0  0  0  0  0  0  0  0
    7.8085   -3.5401   22.0537 H   0  0  0  0  0  0  0  0  0  0  0  0
    5.8962   -3.7384   23.0459 C   0  0  0  0  0  0  0  0  0  0  0  0
    5.1785   -3.0820   23.5639 H   0  0  0  0  0  0  0  0  0  0  0  0
    5.3421   -4.1967   22.2130 H   0  0  0  0  0  0  0  0  0  0  0  0
    6.3463   -4.8304   24.0184 C   0  0  0  0  0  0  0  0  0  0  0  0
    7.0098   -5.5309   23.4873 H   0  0  0  0  0  0  0  0  0  0  0  0
    6.9528   -4.3924   24.8263 H   0  0  0  0  0  0  0  0  0  0  0  0
    5.1650   -5.5963   24.6304 C   0  0  0  0  0  0  0  0  0  0  0  0
    4.5958   -4.9209   25.2880 H   0  0  0  0  0  0  0  0  0  0  0  0
    5.5532   -6.3891   25.2836 H   0  0  0  0  0  0  0  0  0  0  0  0
    4.2154   -6.2015   23.5878 C   0  0  0  0  0  0  0  0  0  0  0  0
    3.8740   -5.4228   22.8934 H   0  0  0  0  0  0  0  0  0  0  0  0
    4.7814   -6.9314   22.9862 H   0  0  0  0  0  0  0  0  0  0  0  0
    2.9688   -6.8597   24.1808 C   0  0  0  0  0  0  0  0  0  0  0  0
    2.3578   -7.2463   23.3528 H   0  0  0  0  0  0  0  0  0  0  0  0
    2.3578   -6.1025   24.6927 H   0  0  0  0  0  0  0  0  0  0  0  0
    3.2946   -7.9763   25.1718 C   0  0  0  0  0  0  0  0  0  0  0  0
    2.4345   -8.6237   25.3581 H   0  0  0  0  0  0  0  0  0  0  0  0
    4.1079   -8.5927   24.7837 H   0  0  0  0  0  0  0  0  0  0  0  0
    3.6359   -7.5655   26.1291 H   0  0  0  0  0  0  0  0  0  0  0  0
    7.6914    0.2063   22.2225 C   0  0  0  0  0  0  0  0  0  0  0  0
    7.8871   -0.4120   23.1050 H   0  0  0  0  0  0  0  0  0  0  0  0
    6.8410    0.8480   22.4759 H   0  0  0  0  0  0  0  0  0  0  0  0
    8.9802    0.9848   21.8725 C   0  0  0  0  0  0  0  0  0  0  0  0
    9.6219    1.0946   22.7532 H   0  0  0  0  0  0  0  0  0  0  0  0
    8.7527    1.9952   21.5175 H   0  0  0  0  0  0  0  0  0  0  0  0
    9.6684    0.1525   20.7677 C   0  0  0  0  0  0  0  0  0  0  0  0
    9.5818    0.6770   19.8127 H   0  0  0  0  0  0  0  0  0  0  0  0
   10.7314   -0.0299   20.9506 H   0  0  0  0  0  0  0  0  0  0  0  0
    8.8681   -1.1502   20.6997 C   0  0  0  0  0  0  0  0  0  0  0  0
    8.9713   -1.6870   19.7562 H   0  0  0  0  0  0  0  0  0  0  0  0
    9.2170   -1.8271   21.4891 H   0  0  0  0  0  0  0  0  0  0  0  0
    5.5085    0.6886   20.0732 C   0  0  0  0  0  0  0  0  0  0  0  0
    5.0608    0.7141   21.0698 H   0  0  0  0  0  0  0  0  0  0  0  0
    4.8745    1.3325   19.0064 C   0  0  0  0  0  0  0  0  0  0  0  0
    3.9350    1.8566   19.1386 H   0  0  0  0  0  0  0  0  0  0  0  0
  1  2  1  0
  2  3  2  0
  3  4  1  0
  4  5  1  0
  4  6  2  0
  6  7  1  0
  7  8  1  0
  8  9  1  0
  8 10  1  0
  8 11  1  0
 11 12  1  0
 11 13  1  0
 11 14  1  0
 14 15  1  0
 14 16  1  0
 14 17  1  0
 17 18  1  0
 17 19  1  0
 17 20  1  0
 20 21  1  0
 20 22  1  0
 20 23  1  0
 23 24  1  0
 23 25  1  0
 23 26  1  0
 26 27  1  0
 26 28  1  0
 26 29  1  0
 29 30  1  0
 29 31  1  0
 29 32  1  0
  7 33  1  0
 33 34  1  0
 33 35  1  0
 33 36  1  0
 36 37  1  0
 36 38  1  0
 36 39  1  0
 39 40  1  0
 39 41  1  0
 39 42  1  0
 42 43  1  0
 42 44  1  0
  6 45  1  0
 45 46  1  0
 45 47  2  0
 47 48  1  0
 47  2  1  0
 42  7  1  0
M  END
>  <cnnaffinity>  (1) 
-5.18657

>  <filename>  (1) 
CCCCCCCCC1(c2cccnc2)CCCC1

$$$$
