
     RDKit          3D

 42 45  0  0  0  0  0  0  0  0999 V2000
    7.3241   -4.2914   23.9121 C   0  0  0  0  0  0  0  0  0  0  0  0
    6.7263   -2.9979   24.4605 C   0  0  0  0  0  0  0  0  0  0  0  0
    7.5914   -1.7434   24.2917 C   0  0  0  0  0  0  0  0  0  0  0  0
    7.8183   -1.3408   22.9077 N   0  0  0  0  0  0  0  0  0  0  0  0
    6.7967   -0.7179   22.2757 N   0  0  0  0  0  0  0  0  0  0  0  0
    7.2534   -0.5443   21.0559 C   0  0  0  0  0  0  0  0  0  0  0  0
    6.5027    0.0901   19.9725 C   0  0  0  0  0  0  0  0  0  0  0  0
    5.2679    0.7533   20.1173 C   0  0  0  0  0  0  0  0  0  0  0  0
    4.7300    1.3748   18.9905 C   0  0  0  0  0  0  0  0  0  0  0  0
    5.4218    1.2991   17.7760 C   0  0  0  0  0  0  0  0  0  0  0  0
    6.5753    0.6328   17.6226 N   0  0  0  0  0  0  0  0  0  0  0  0
    7.0936    0.0460   18.7036 C   0  0  0  0  0  0  0  0  0  0  0  0
    8.0296   -0.4929   18.5665 H   0  0  0  0  0  0  0  0  0  0  0  0
    5.0348    1.7909   16.8861 H   0  0  0  0  0  0  0  0  0  0  0  0
    3.7964    1.9266   19.0330 H   0  0  0  0  0  0  0  0  0  0  0  0
    4.7522    0.7818   21.0795 H   0  0  0  0  0  0  0  0  0  0  0  0
    8.5057   -1.0354   20.8569 N   0  0  0  0  0  0  0  0  0  0  0  0
    8.8496   -1.5131   22.0384 C   0  0  0  0  0  0  0  0  0  0  0  0
   10.1009   -2.3229   22.2949 C   0  0  0  0  0  0  0  0  0  0  0  0
   11.4542   -1.6865   22.0896 C   0  0  0  0  0  0  0  0  0  0  0  0
   11.9506   -0.6785   22.9105 C   0  0  0  0  0  0  0  0  0  0  0  0
   11.4406    0.0393   24.0202 C   0  0  0  0  0  0  0  0  0  0  0  0
   12.1441    1.1245   24.4839 C   0  0  0  0  0  0  0  0  0  0  0  0
   13.3930    1.4851   23.8908 C   0  0  0  0  0  0  0  0  0  0  0  0
   13.9354    0.7079   22.9001 C   0  0  0  0  0  0  0  0  0  0  0  0
   13.2150   -0.3641   22.4369 N   0  0  0  0  0  0  0  0  0  0  0  0
   13.5746   -1.1339   21.3918 N   0  0  0  0  0  0  0  0  0  0  0  0
   12.5109   -1.8996   21.1712 C   0  0  0  0  0  0  0  0  0  0  0  0
   12.5510   -2.5269   20.2946 H   0  0  0  0  0  0  0  0  0  0  0  0
   14.8797    0.8635   22.3968 H   0  0  0  0  0  0  0  0  0  0  0  0
   13.8861    2.4047   24.1647 H   0  0  0  0  0  0  0  0  0  0  0  0
   11.7291    1.7200   25.2913 H   0  0  0  0  0  0  0  0  0  0  0  0
   10.5013   -0.2982   24.4357 H   0  0  0  0  0  0  0  0  0  0  0  0
   10.0435   -2.7341   23.3120 H   0  0  0  0  0  0  0  0  0  0  0  0
    9.9771   -3.1574   21.6166 H   0  0  0  0  0  0  0  0  0  0  0  0
    7.0807   -0.8910   24.7501 H   0  0  0  0  0  0  0  0  0  0  0  0
    8.5596   -1.8765   24.7827 H   0  0  0  0  0  0  0  0  0  0  0  0
    5.7555   -2.7968   23.9923 H   0  0  0  0  0  0  0  0  0  0  0  0
    6.5383   -3.1133   25.5354 H   0  0  0  0  0  0  0  0  0  0  0  0
    6.6563   -5.1390   24.1072 H   0  0  0  0  0  0  0  0  0  0  0  0
    7.4831   -4.2440   22.8293 H   0  0  0  0  0  0  0  0  0  0  0  0
    8.2872   -4.5278   24.3820 H   0  0  0  0  0  0  0  0  0  0  0  0
  1  2  1  0
  2  3  1  0
  3  4  1  0
  4  5  1  0
  5  6  2  0
  6  7  1  0
  7  8  2  0
  8  9  1  0
  9 10  2  0
 10 11  1  0
 11 12  2  0
 12 13  1  0
 10 14  1  0
  9 15  1  0
  8 16  1  0
  6 17  1  0
 17 18  2  0
 18 19  1  0
 19 20  1  0
 20 21  2  0
 21 22  1  0
 22 23  2  0
 23 24  1  0
 24 25  2  0
 25 26  1  0
 26 27  1  0
 27 28  2  0
 28 29  1  0
 25 30  1  0
 24 31  1  0
 23 32  1  0
 22 33  1  0
 19 34  1  0
 19 35  1  0
  3 36  1  0
  3 37  1  0
  2 38  1  0
  2 39  1  0
  1 40  1  0
  1 41  1  0
  1 42  1  0
 18  4  1  0
 28 20  1  0
 12  7  1  0
 26 21  1  0
M  END
>  <cnnaffinity>  (1) 
-6.47946

>  <filename>  (1) 
CCCn1nc(-c2cccnc2)nc1Cc1cnn2ccccc12

$$$$
