
     RDKit          3D

 48 51  0  0  0  0  0  0  0  0999 V2000
   12.4481   -1.9488   21.9828 C   0  0  0  0  0  0  0  0  0  0  0  0
   11.0639   -1.4277   22.3609 C   0  0  0  0  0  0  0  0  0  0  0  0
    9.9283   -2.4100   22.0477 C   0  0  0  0  0  0  0  0  0  0  0  0
    8.6413   -1.7362   21.9133 N   0  0  0  0  0  0  0  0  0  0  0  0
    8.3010   -1.2438   20.7037 N   0  0  0  0  0  0  0  0  0  0  0  0
    7.1973   -0.5578   20.9505 C   0  0  0  0  0  0  0  0  0  0  0  0
    6.4798    0.1288   19.8778 C   0  0  0  0  0  0  0  0  0  0  0  0
    5.2559    0.7973   20.0477 C   0  0  0  0  0  0  0  0  0  0  0  0
    4.6970    1.4250   18.9355 C   0  0  0  0  0  0  0  0  0  0  0  0
    5.3688    1.3635   17.7097 C   0  0  0  0  0  0  0  0  0  0  0  0
    6.5275    0.7108   17.5351 N   0  0  0  0  0  0  0  0  0  0  0  0
    7.0608    0.1093   18.6002 C   0  0  0  0  0  0  0  0  0  0  0  0
    7.9971   -0.4214   18.4315 H   0  0  0  0  0  0  0  0  0  0  0  0
    4.9565    1.8523   16.8297 H   0  0  0  0  0  0  0  0  0  0  0  0
    3.7645    1.9748   19.0038 H   0  0  0  0  0  0  0  0  0  0  0  0
    4.7618    0.8294   21.0206 H   0  0  0  0  0  0  0  0  0  0  0  0
    6.8259   -0.5639   22.2495 N   0  0  0  0  0  0  0  0  0  0  0  0
    7.7468   -1.3103   22.8378 C   0  0  0  0  0  0  0  0  0  0  0  0
    7.7039   -1.6748   24.2894 C   0  0  0  0  0  0  0  0  0  0  0  0
    6.6726   -2.8077   24.6032 C   0  0  0  0  0  0  0  0  0  0  0  0
    6.6627   -3.1919   26.1080 C   0  0  0  0  0  0  0  0  0  0  0  0
    7.4378   -4.4318   26.1943 N   0  0  0  0  0  0  0  0  0  0  0  0
    7.3650   -5.2888   27.3614 C   0  0  0  0  0  0  0  0  0  0  0  0
    7.0389   -4.7169   28.2371 H   0  0  0  0  0  0  0  0  0  0  0  0
    6.6657   -6.1322   27.2385 H   0  0  0  0  0  0  0  0  0  0  0  0
    8.3525   -5.7048   27.5962 H   0  0  0  0  0  0  0  0  0  0  0  0
    7.6053   -4.9572   24.9203 C   0  0  0  0  0  0  0  0  0  0  0  0
    8.3270   -6.1003   24.5471 C   0  0  0  0  0  0  0  0  0  0  0  0
    8.3848   -6.4362   23.1897 C   0  0  0  0  0  0  0  0  0  0  0  0
    7.7205   -5.6569   22.2231 C   0  0  0  0  0  0  0  0  0  0  0  0
    7.0351   -4.4976   22.6063 C   0  0  0  0  0  0  0  0  0  0  0  0
    7.0392   -4.1180   23.9490 C   0  0  0  0  0  0  0  0  0  0  0  0
    6.5151   -3.8868   21.8686 H   0  0  0  0  0  0  0  0  0  0  0  0
    7.7708   -5.9401   21.1759 H   0  0  0  0  0  0  0  0  0  0  0  0
    8.9561   -7.3038   22.8723 H   0  0  0  0  0  0  0  0  0  0  0  0
    8.8245   -6.6821   25.3196 H   0  0  0  0  0  0  0  0  0  0  0  0
    7.1035   -2.4121   26.7509 H   0  0  0  0  0  0  0  0  0  0  0  0
    5.6226   -3.3322   26.4468 H   0  0  0  0  0  0  0  0  0  0  0  0
    5.6815   -2.4623   24.2839 H   0  0  0  0  0  0  0  0  0  0  0  0
    7.4165   -0.7740   24.8419 H   0  0  0  0  0  0  0  0  0  0  0  0
    8.7000   -1.9670   24.6411 H   0  0  0  0  0  0  0  0  0  0  0  0
    9.8309   -3.2162   22.7815 H   0  0  0  0  0  0  0  0  0  0  0  0
   10.0830   -2.8676   21.0723 H   0  0  0  0  0  0  0  0  0  0  0  0
   11.0187   -1.1419   23.4200 H   0  0  0  0  0  0  0  0  0  0  0  0
   10.8498   -0.5250   21.7826 H   0  0  0  0  0  0  0  0  0  0  0  0
   12.6449   -2.9217   22.4412 H   0  0  0  0  0  0  0  0  0  0  0  0
   12.5490   -2.0507   20.8924 H   0  0  0  0  0  0  0  0  0  0  0  0
   13.2513   -1.2777   22.3066 H   0  0  0  0  0  0  0  0  0  0  0  0
  1  2  1  0
  2  3  1  0
  3  4  1  0
  4  5  1  0
  5  6  2  0
  6  7  1  0
  7  8  2  0
  8  9  1  0
  9 10  2  0
 10 11  1  0
 11 12  2  0
 12 13  1  0
 10 14  1  0
  9 15  1  0
  8 16  1  0
  6 17  1  0
 17 18  2  0
 18 19  1  0
 19 20  1  0
 20 21  1  0
 21 22  1  0
 22 23  1  0
 23 24  1  0
 23 25  1  0
 23 26  1  0
 22 27  1  0
 27 28  2  0
 28 29  1  0
 29 30  2  0
 30 31  1  0
 31 32  2  0
 31 33  1  0
 30 34  1  0
 29 35  1  0
 28 36  1  0
 21 37  1  0
 21 38  1  0
 20 39  1  0
 19 40  1  0
 19 41  1  0
  3 42  1  0
  3 43  1  0
  2 44  1  0
  2 45  1  0
  1 46  1  0
  1 47  1  0
  1 48  1  0
 18  4  1  0
 32 20  1  0
 12  7  1  0
 32 27  1  0
M  END
>  <cnnaffinity>  (1) 
-6.32574

>  <filename>  (1) 
CCCn1nc(-c2cccnc2)nc1CC1CN(C)c2ccccc21

$$$$
