
     RDKit          3D

 44 47  0  0  0  0  0  0  0  0999 V2000
   12.4610   -1.9376   21.9783 C   0  0  0  0  0  0  0  0  0  0  0  0
   11.0688   -1.3781   22.2585 C   0  0  0  0  0  0  0  0  0  0  0  0
    9.9590   -2.3969   21.9924 C   0  0  0  0  0  0  0  0  0  0  0  0
    8.6451   -1.7780   21.8795 N   0  0  0  0  0  0  0  0  0  0  0  0
    8.2945   -1.2565   20.6859 N   0  0  0  0  0  0  0  0  0  0  0  0
    7.1742   -0.6098   20.9442 C   0  0  0  0  0  0  0  0  0  0  0  0
    6.4577    0.1118   19.8893 C   0  0  0  0  0  0  0  0  0  0  0  0
    5.2391    0.7980   20.0535 C   0  0  0  0  0  0  0  0  0  0  0  0
    4.6941    1.4325   18.9366 C   0  0  0  0  0  0  0  0  0  0  0  0
    5.3680    1.3666   17.7128 C   0  0  0  0  0  0  0  0  0  0  0  0
    6.5210    0.7059   17.5447 N   0  0  0  0  0  0  0  0  0  0  0  0
    7.0444    0.1016   18.6120 C   0  0  0  0  0  0  0  0  0  0  0  0
    7.9792   -0.4290   18.4457 H   0  0  0  0  0  0  0  0  0  0  0  0
    4.9650    1.8590   16.8290 H   0  0  0  0  0  0  0  0  0  0  0  0
    3.7647    1.9895   18.9927 H   0  0  0  0  0  0  0  0  0  0  0  0
    4.7256    0.8457   21.0164 H   0  0  0  0  0  0  0  0  0  0  0  0
    6.7937   -0.6705   22.2439 N   0  0  0  0  0  0  0  0  0  0  0  0
    7.7417   -1.4006   22.8100 C   0  0  0  0  0  0  0  0  0  0  0  0
    7.7659   -1.8553   24.2357 C   0  0  0  0  0  0  0  0  0  0  0  0
    7.1960   -3.2897   24.4214 C   0  0  0  0  0  0  0  0  0  0  0  0
    5.6625   -3.3602   24.2112 C   0  0  0  0  0  0  0  0  0  0  0  0
    5.0444   -3.7779   25.4375 O   0  0  0  0  0  0  0  0  0  0  0  0
    6.0364   -4.0651   26.3199 C   0  0  0  0  0  0  0  0  0  0  0  0
    5.8205   -4.5415   27.6076 C   0  0  0  0  0  0  0  0  0  0  0  0
    6.9459   -4.8845   28.3693 C   0  0  0  0  0  0  0  0  0  0  0  0
    8.2382   -4.7141   27.8495 C   0  0  0  0  0  0  0  0  0  0  0  0
    8.4298   -4.1769   26.5760 C   0  0  0  0  0  0  0  0  0  0  0  0
    7.3152   -3.8487   25.8105 C   0  0  0  0  0  0  0  0  0  0  0  0
    9.4401   -4.0392   26.1975 H   0  0  0  0  0  0  0  0  0  0  0  0
    9.1138   -5.0182   28.4110 H   0  0  0  0  0  0  0  0  0  0  0  0
    6.8047   -5.2891   29.3664 H   0  0  0  0  0  0  0  0  0  0  0  0
    4.8062   -4.6514   27.9730 H   0  0  0  0  0  0  0  0  0  0  0  0
    5.3780   -4.0621   23.4218 H   0  0  0  0  0  0  0  0  0  0  0  0
    5.2632   -2.3797   23.9676 H   0  0  0  0  0  0  0  0  0  0  0  0
    7.7061   -3.9479   23.7024 H   0  0  0  0  0  0  0  0  0  0  0  0
    8.7843   -1.8050   24.6387 H   0  0  0  0  0  0  0  0  0  0  0  0
    7.1771   -1.1412   24.8176 H   0  0  0  0  0  0  0  0  0  0  0  0
    9.9332   -3.1909   22.7467 H   0  0  0  0  0  0  0  0  0  0  0  0
   10.1204   -2.8635   21.0247 H   0  0  0  0  0  0  0  0  0  0  0  0
   10.8679   -0.5108   21.6124 H   0  0  0  0  0  0  0  0  0  0  0  0
   11.0183   -1.0433   23.3014 H   0  0  0  0  0  0  0  0  0  0  0  0
   13.2481   -1.2570   22.3214 H   0  0  0  0  0  0  0  0  0  0  0  0
   12.6016   -2.0880   20.9037 H   0  0  0  0  0  0  0  0  0  0  0  0
   12.6270   -2.9002   22.4767 H   0  0  0  0  0  0  0  0  0  0  0  0
  1  2  1  0
  2  3  1  0
  3  4  1  0
  4  5  1  0
  5  6  2  0
  6  7  1  0
  7  8  2  0
  8  9  1  0
  9 10  2  0
 10 11  1  0
 11 12  2  0
 12 13  1  0
 10 14  1  0
  9 15  1  0
  8 16  1  0
  6 17  1  0
 17 18  2  0
 18 19  1  0
 19 20  1  0
 20 21  1  0
 21 22  1  0
 22 23  1  0
 23 24  2  0
 24 25  1  0
 25 26  2  0
 26 27  1  0
 27 28  2  0
 27 29  1  0
 26 30  1  0
 25 31  1  0
 24 32  1  0
 21 33  1  0
 21 34  1  0
 20 35  1  0
 19 36  1  0
 19 37  1  0
  3 38  1  0
  3 39  1  0
  2 40  1  0
  2 41  1  0
  1 42  1  0
  1 43  1  0
  1 44  1  0
 18  4  1  0
 28 20  1  0
 12  7  1  0
 28 23  1  0
M  END
>  <cnnaffinity>  (1) 
-6.03067

>  <filename>  (1) 
CCCn1nc(-c2cccnc2)nc1CC1COc2ccccc21

$$$$
