
     RDKit          3D

 48 51  0  0  0  0  0  0  0  0999 V2000
   12.4347   -2.1246   22.2433 C   0  0  0  0  0  0  0  0  0  0  0  0
   11.0470   -1.5361   22.4767 C   0  0  0  0  0  0  0  0  0  0  0  0
    9.9518   -2.5013   22.0359 C   0  0  0  0  0  0  0  0  0  0  0  0
    8.6619   -1.8592   21.8971 N   0  0  0  0  0  0  0  0  0  0  0  0
    8.3328   -1.3646   20.6865 N   0  0  0  0  0  0  0  0  0  0  0  0
    7.2676   -0.6332   20.9460 C   0  0  0  0  0  0  0  0  0  0  0  0
    6.5537    0.0696   19.8897 C   0  0  0  0  0  0  0  0  0  0  0  0
    5.3390    0.7333   20.1054 C   0  0  0  0  0  0  0  0  0  0  0  0
    4.7511    1.3734   19.0166 C   0  0  0  0  0  0  0  0  0  0  0  0
    5.3967    1.3267   17.7739 C   0  0  0  0  0  0  0  0  0  0  0  0
    6.5554    0.6869   17.5599 N   0  0  0  0  0  0  0  0  0  0  0  0
    7.1169    0.0734   18.6044 C   0  0  0  0  0  0  0  0  0  0  0  0
    8.0599   -0.4354   18.4126 H   0  0  0  0  0  0  0  0  0  0  0  0
    4.9607    1.8197   16.9092 H   0  0  0  0  0  0  0  0  0  0  0  0
    3.8153    1.9119   19.1153 H   0  0  0  0  0  0  0  0  0  0  0  0
    4.8798    0.7472   21.0982 H   0  0  0  0  0  0  0  0  0  0  0  0
    6.9148   -0.5995   22.2511 N   0  0  0  0  0  0  0  0  0  0  0  0
    7.7991   -1.3951   22.8287 C   0  0  0  0  0  0  0  0  0  0  0  0
    7.8424   -1.7307   24.3003 C   0  0  0  0  0  0  0  0  0  0  0  0
    6.4815   -2.1008   24.8579 C   0  0  0  0  0  0  0  0  0  0  0  0
    5.7783   -1.1749   25.5497 C   0  0  0  0  0  0  0  0  0  0  0  0
    4.4946   -1.3802   26.0170 N   0  0  0  0  0  0  0  0  0  0  0  0
    3.7966   -0.3090   26.7461 C   0  0  0  0  0  0  0  0  0  0  0  0
    3.4487   -0.6743   27.7150 H   0  0  0  0  0  0  0  0  0  0  0  0
    4.4770    0.5319   26.9064 H   0  0  0  0  0  0  0  0  0  0  0  0
    2.9272    0.0395   26.1818 H   0  0  0  0  0  0  0  0  0  0  0  0
    3.7973   -2.5775   25.7744 C   0  0  0  0  0  0  0  0  0  0  0  0
    2.6489   -2.7125   26.1766 O   0  0  0  0  0  0  0  0  0  0  0  0
    4.5394   -3.6263   25.0153 C   0  0  0  0  0  0  0  0  0  0  0  0
    3.9071   -4.8532   24.7369 C   0  0  0  0  0  0  0  0  0  0  0  0
    4.5585   -5.8291   24.0054 C   0  0  0  0  0  0  0  0  0  0  0  0
    5.8678   -5.5994   23.5339 C   0  0  0  0  0  0  0  0  0  0  0  0
    6.5047   -4.4040   23.8045 C   0  0  0  0  0  0  0  0  0  0  0  0
    5.8582   -3.3812   24.5583 C   0  0  0  0  0  0  0  0  0  0  0  0
    7.5106   -4.2319   23.4325 H   0  0  0  0  0  0  0  0  0  0  0  0
    6.3775   -6.3689   22.9580 H   0  0  0  0  0  0  0  0  0  0  0  0
    4.0664   -6.7743   23.7912 H   0  0  0  0  0  0  0  0  0  0  0  0
    2.8974   -5.0183   25.1083 H   0  0  0  0  0  0  0  0  0  0  0  0
    6.1985   -0.1937   25.7729 H   0  0  0  0  0  0  0  0  0  0  0  0
    8.5637   -2.5345   24.4857 H   0  0  0  0  0  0  0  0  0  0  0  0
    8.2377   -0.8478   24.8229 H   0  0  0  0  0  0  0  0  0  0  0  0
   10.1717   -2.8579   21.0347 H   0  0  0  0  0  0  0  0  0  0  0  0
    9.8787   -3.3668   22.7033 H   0  0  0  0  0  0  0  0  0  0  0  0
   10.8688   -1.2554   23.5248 H   0  0  0  0  0  0  0  0  0  0  0  0
   10.9414   -0.6163   21.8922 H   0  0  0  0  0  0  0  0  0  0  0  0
   12.6620   -2.1965   21.1736 H   0  0  0  0  0  0  0  0  0  0  0  0
   13.2081   -1.4794   22.6714 H   0  0  0  0  0  0  0  0  0  0  0  0
   12.5084   -3.1304   22.6802 H   0  0  0  0  0  0  0  0  0  0  0  0
  1  2  1  0
  2  3  1  0
  3  4  1  0
  4  5  1  0
  5  6  2  0
  6  7  1  0
  7  8  2  0
  8  9  1  0
  9 10  2  0
 10 11  1  0
 11 12  2  0
 12 13  1  0
 10 14  1  0
  9 15  1  0
  8 16  1  0
  6 17  1  0
 17 18  2  0
 18 19  1  0
 19 20  1  0
 20 21  2  0
 21 22  1  0
 22 23  1  0
 23 24  1  0
 23 25  1  0
 23 26  1  0
 22 27  1  0
 27 28  2  0
 27 29  1  0
 29 30  2  0
 30 31  1  0
 31 32  2  0
 32 33  1  0
 33 34  2  0
 33 35  1  0
 32 36  1  0
 31 37  1  0
 30 38  1  0
 21 39  1  0
 19 40  1  0
 19 41  1  0
  3 42  1  0
  3 43  1  0
  2 44  1  0
  2 45  1  0
  1 46  1  0
  1 47  1  0
  1 48  1  0
 18  4  1  0
 34 20  1  0
 12  7  1  0
 34 29  1  0
M  END
>  <cnnaffinity>  (1) 
-6.2033

>  <filename>  (1) 
CCCn1nc(-c2cccnc2)nc1Cc1cn(C)c(=O)c2ccccc12

$$$$
