
     RDKit          3D

 43 46  0  0  0  0  0  0  0  0999 V2000
   12.4533   -1.9805   22.0152 C   0  0  0  0  0  0  0  0  0  0  0  0
   11.0723   -1.4411   22.3762 C   0  0  0  0  0  0  0  0  0  0  0  0
    9.9633   -2.4385   22.0343 C   0  0  0  0  0  0  0  0  0  0  0  0
    8.6526   -1.8287   21.8915 N   0  0  0  0  0  0  0  0  0  0  0  0
    8.3306   -1.3030   20.6898 N   0  0  0  0  0  0  0  0  0  0  0  0
    7.1954   -0.6719   20.9259 C   0  0  0  0  0  0  0  0  0  0  0  0
    6.4968    0.0625   19.8704 C   0  0  0  0  0  0  0  0  0  0  0  0
    5.2875    0.7509   20.0651 C   0  0  0  0  0  0  0  0  0  0  0  0
    4.7245    1.4015   18.9673 C   0  0  0  0  0  0  0  0  0  0  0  0
    5.3852    1.3526   17.7345 C   0  0  0  0  0  0  0  0  0  0  0  0
    6.5418    0.7020   17.5410 N   0  0  0  0  0  0  0  0  0  0  0  0
    7.0787    0.0786   18.5923 C   0  0  0  0  0  0  0  0  0  0  0  0
    8.0183   -0.4410   18.4111 H   0  0  0  0  0  0  0  0  0  0  0  0
    4.9637    1.8500   16.8625 H   0  0  0  0  0  0  0  0  0  0  0  0
    3.7956    1.9562   19.0519 H   0  0  0  0  0  0  0  0  0  0  0  0
    4.8110    0.7793   21.0479 H   0  0  0  0  0  0  0  0  0  0  0  0
    6.7775   -0.7495   22.2102 N   0  0  0  0  0  0  0  0  0  0  0  0
    7.7197   -1.4626   22.8081 C   0  0  0  0  0  0  0  0  0  0  0  0
    7.7329   -1.8823   24.2619 C   0  0  2  0  0  0  0  0  0  0  0  0
    6.7294   -3.0275   24.6063 C   0  0  0  0  0  0  0  0  0  0  0  0
    5.5622   -2.3793   25.3908 C   0  0  0  0  0  0  0  0  0  0  0  0
    6.0826   -1.0190   25.7825 C   0  0  0  0  0  0  0  0  0  0  0  0
    5.4802   -0.0530   26.5914 C   0  0  0  0  0  0  0  0  0  0  0  0
    6.1458    1.1605   26.8099 C   0  0  0  0  0  0  0  0  0  0  0  0
    7.4032    1.4010   26.2326 C   0  0  0  0  0  0  0  0  0  0  0  0
    7.9979    0.4332   25.4148 C   0  0  0  0  0  0  0  0  0  0  0  0
    7.3167   -0.7646   25.1914 C   0  0  0  0  0  0  0  0  0  0  0  0
    8.9694    0.5973   24.9512 H   0  0  0  0  0  0  0  0  0  0  0  0
    7.9138    2.3426   26.4144 H   0  0  0  0  0  0  0  0  0  0  0  0
    5.6776    1.9208   27.4290 H   0  0  0  0  0  0  0  0  0  0  0  0
    4.5073   -0.2491   27.0392 H   0  0  0  0  0  0  0  0  0  0  0  0
    4.6609   -2.2724   24.7763 H   0  0  0  0  0  0  0  0  0  0  0  0
    5.2829   -2.9761   26.2656 H   0  0  0  0  0  0  0  0  0  0  0  0
    7.2449   -3.7593   25.2383 H   0  0  0  0  0  0  0  0  0  0  0  0
    6.3830   -3.5493   23.7078 H   0  0  0  0  0  0  0  0  0  0  0  0
    8.7572   -2.1843   24.5101 H   0  0  0  0  0  0  0  0  0  0  0  0
    9.9006   -3.2723   22.7378 H   0  0  0  0  0  0  0  0  0  0  0  0
   10.1583   -2.8509   21.0499 H   0  0  0  0  0  0  0  0  0  0  0  0
   11.0134   -1.1752   23.4370 H   0  0  0  0  0  0  0  0  0  0  0  0
   10.8637   -0.5311   21.8078 H   0  0  0  0  0  0  0  0  0  0  0  0
   13.2647   -1.3340   22.3575 H   0  0  0  0  0  0  0  0  0  0  0  0
   12.6150   -2.9535   22.4849 H   0  0  0  0  0  0  0  0  0  0  0  0
   12.5615   -2.1053   20.9303 H   0  0  0  0  0  0  0  0  0  0  0  0
  1  2  1  0
  2  3  1  0
  3  4  1  0
  4  5  1  0
  5  6  2  0
  6  7  1  0
  7  8  2  0
  8  9  1  0
  9 10  2  0
 10 11  1  0
 11 12  2  0
 12 13  1  0
 10 14  1  0
  9 15  1  0
  8 16  1  0
  6 17  1  0
 17 18  2  0
 18 19  1  0
 19 20  1  0
 20 21  1  0
 21 22  1  0
 22 23  2  0
 23 24  1  0
 24 25  2  0
 25 26  1  0
 26 27  2  0
 26 28  1  0
 25 29  1  0
 24 30  1  0
 23 31  1  0
 21 32  1  0
 21 33  1  0
 20 34  1  0
 20 35  1  0
 19 36  1  1
  3 37  1  0
  3 38  1  0
  2 39  1  0
  2 40  1  0
  1 41  1  0
  1 42  1  0
  1 43  1  0
 18  4  1  0
 27 19  1  0
 12  7  1  0
 27 22  1  0
M  END
>  <cnnaffinity>  (1) 
-5.91168

>  <filename>  (1) 
CCCn1nc(-c2cccnc2)nc1[C@@H]1CCc2ccccc21

$$$$
