
     RDKit          3D

 48 51  0  0  0  0  0  0  0  0999 V2000
   10.9428   -0.5578   23.6859 C   0  0  0  0  0  0  0  0  0  0  0  0
   11.1571   -1.4843   22.4878 C   0  0  0  0  0  0  0  0  0  0  0  0
    9.9784   -2.3962   22.1354 C   0  0  0  0  0  0  0  0  0  0  0  0
    8.7013   -1.7022   21.9854 N   0  0  0  0  0  0  0  0  0  0  0  0
    8.3800   -1.2217   20.7665 N   0  0  0  0  0  0  0  0  0  0  0  0
    7.2577   -0.5596   20.9838 C   0  0  0  0  0  0  0  0  0  0  0  0
    6.5468    0.1117   19.9003 C   0  0  0  0  0  0  0  0  0  0  0  0
    5.3208    0.7767   20.0708 C   0  0  0  0  0  0  0  0  0  0  0  0
    4.7555    1.3909   18.9562 C   0  0  0  0  0  0  0  0  0  0  0  0
    5.4275    1.3230   17.7303 C   0  0  0  0  0  0  0  0  0  0  0  0
    6.5886    0.6740   17.5541 N   0  0  0  0  0  0  0  0  0  0  0  0
    7.1269    0.0806   18.6212 C   0  0  0  0  0  0  0  0  0  0  0  0
    8.0621   -0.4521   18.4470 H   0  0  0  0  0  0  0  0  0  0  0  0
    5.0083    1.7996   16.8487 H   0  0  0  0  0  0  0  0  0  0  0  0
    3.8120    1.9234   19.0218 H   0  0  0  0  0  0  0  0  0  0  0  0
    4.8259    0.8062   21.0445 H   0  0  0  0  0  0  0  0  0  0  0  0
    6.8596   -0.5616   22.2792 N   0  0  0  0  0  0  0  0  0  0  0  0
    7.7708   -1.2998   22.8843 C   0  0  0  0  0  0  0  0  0  0  0  0
    7.7733   -1.6663   24.3588 C   0  0  0  0  0  0  0  0  0  0  0  0
    6.6290   -2.4791   24.8063 N   0  0  0  0  0  0  0  0  0  0  0  0
    6.6392   -3.8206   24.4397 C   0  0  0  0  0  0  0  0  0  0  0  0
    7.5722   -4.3207   23.8258 O   0  0  0  0  0  0  0  0  0  0  0  0
    5.3517   -4.6286   24.7675 C   0  0  0  0  0  0  0  0  0  0  0  0
    5.6373   -6.0891   25.0582 C   0  0  0  0  0  0  0  0  0  0  0  0
    6.2100   -6.2244   25.9835 H   0  0  0  0  0  0  0  0  0  0  0  0
    4.7162   -6.6737   25.1332 H   0  0  0  0  0  0  0  0  0  0  0  0
    6.2182   -6.4517   24.2142 H   0  0  0  0  0  0  0  0  0  0  0  0
    4.5964   -4.0715   25.8476 O   0  0  0  0  0  0  0  0  0  0  0  0
    4.3890   -2.7188   25.7410 C   0  0  0  0  0  0  0  0  0  0  0  0
    3.1477   -2.1997   26.1031 C   0  0  0  0  0  0  0  0  0  0  0  0
    2.9369   -0.8183   26.0640 C   0  0  0  0  0  0  0  0  0  0  0  0
    3.9679    0.0381   25.6645 C   0  0  0  0  0  0  0  0  0  0  0  0
    5.2042   -0.4880   25.2664 C   0  0  0  0  0  0  0  0  0  0  0  0
    5.4276   -1.8737   25.2797 C   0  0  0  0  0  0  0  0  0  0  0  0
    5.9565    0.1755   24.8503 H   0  0  0  0  0  0  0  0  0  0  0  0
    3.8033    1.1145   25.6464 H   0  0  0  0  0  0  0  0  0  0  0  0
    1.9629   -0.4226   26.3353 H   0  0  0  0  0  0  0  0  0  0  0  0
    2.3717   -2.8938   26.4071 H   0  0  0  0  0  0  0  0  0  0  0  0
    4.7412   -4.5635   23.8526 H   0  0  0  0  0  0  0  0  0  0  0  0
    7.7993   -0.7492   24.9520 H   0  0  0  0  0  0  0  0  0  0  0  0
    8.6783   -2.2247   24.5974 H   0  0  0  0  0  0  0  0  0  0  0  0
   10.1549   -2.8353   21.1557 H   0  0  0  0  0  0  0  0  0  0  0  0
    9.8455   -3.2061   22.8563 H   0  0  0  0  0  0  0  0  0  0  0  0
   12.0283   -2.1329   22.6433 H   0  0  0  0  0  0  0  0  0  0  0  0
   11.3818   -0.8794   21.6022 H   0  0  0  0  0  0  0  0  0  0  0  0
   11.8776   -0.0559   23.9449 H   0  0  0  0  0  0  0  0  0  0  0  0
   10.6124   -1.0829   24.5903 H   0  0  0  0  0  0  0  0  0  0  0  0
   10.2062    0.2247   23.4698 H   0  0  0  0  0  0  0  0  0  0  0  0
  1  2  1  0
  2  3  1  0
  3  4  1  0
  4  5  1  0
  5  6  2  0
  6  7  1  0
  7  8  2  0
  8  9  1  0
  9 10  2  0
 10 11  1  0
 11 12  2  0
 12 13  1  0
 10 14  1  0
  9 15  1  0
  8 16  1  0
  6 17  1  0
 17 18  2  0
 18 19  1  0
 19 20  1  0
 20 21  1  0
 21 22  2  0
 21 23  1  0
 23 24  1  0
 24 25  1  0
 24 26  1  0
 24 27  1  0
 23 28  1  0
 28 29  1  0
 29 30  2  0
 30 31  1  0
 31 32  2  0
 32 33  1  0
 33 34  2  0
 33 35  1  0
 32 36  1  0
 31 37  1  0
 30 38  1  0
 23 39  1  0
 19 40  1  0
 19 41  1  0
  3 42  1  0
  3 43  1  0
  2 44  1  0
  2 45  1  0
  1 46  1  0
  1 47  1  0
  1 48  1  0
 18  4  1  0
 34 20  1  0
 12  7  1  0
 34 29  1  0
M  END
>  <cnnaffinity>  (1) 
-6.26872

>  <filename>  (1) 
CCCn1nc(-c2cccnc2)nc1CN1C(=O)C(C)Oc2ccccc21

$$$$
