
     RDKit          3D

 41 42  0  0  0  0  0  0  0  0999 V2000
    9.6281    1.5033   22.8949 C   0  0  0  0  0  0  0  0  0  0  0  0
    8.3185    0.8558   22.4391 C   0  0  0  0  0  0  0  0  0  0  0  0
    8.5454   -0.2753   21.4290 C   0  0  0  0  0  0  0  0  0  0  0  0
    7.2876   -0.8881   20.9568 N   0  0  0  0  0  0  0  0  0  0  0  0
    6.6186   -1.6941   21.8974 C   0  0  0  0  0  0  0  0  0  0  0  0
    6.9377   -1.7592   23.0700 O   0  0  0  0  0  0  0  0  0  0  0  0
    5.5997   -2.4497   21.3217 N   0  0  0  0  0  0  0  0  0  0  0  0
    4.9895   -3.5740   21.9756 N   0  0  0  0  0  0  0  0  0  0  0  0
    5.7658   -4.3673   22.8620 C   0  0  0  0  0  0  0  0  0  0  0  0
    5.2609   -4.6152   24.1487 C   0  0  0  0  0  0  0  0  0  0  0  0
    6.0190   -5.2982   25.1008 C   0  0  0  0  0  0  0  0  0  0  0  0
    7.3061   -5.7374   24.7763 C   0  0  0  0  0  0  0  0  0  0  0  0
    7.7949   -5.5424   23.4866 C   0  0  0  0  0  0  0  0  0  0  0  0
    7.0124   -4.9044   22.5126 C   0  0  0  0  0  0  0  0  0  0  0  0
    7.6013   -4.7281   21.1466 C   0  0  0  0  0  0  0  0  0  0  0  0
    6.6891   -4.5644   20.1693 F   0  0  0  0  0  0  0  0  0  0  0  0
    8.3446   -5.7833   20.7775 F   0  0  0  0  0  0  0  0  0  0  0  0
    8.4498   -3.6725   21.1172 F   0  0  0  0  0  0  0  0  0  0  0  0
    8.7848   -5.9068   23.2223 H   0  0  0  0  0  0  0  0  0  0  0  0
    7.9262   -6.2220   25.5235 H   0  0  0  0  0  0  0  0  0  0  0  0
    5.6141   -5.4841   26.0949 H   0  0  0  0  0  0  0  0  0  0  0  0
    4.2926   -4.2020   24.4182 H   0  0  0  0  0  0  0  0  0  0  0  0
    4.2035   -3.2286   22.5202 H   0  0  0  0  0  0  0  0  0  0  0  0
    5.8424   -2.6307   20.3582 H   0  0  0  0  0  0  0  0  0  0  0  0
    6.5993   -0.1999   19.8896 C   0  0  0  0  0  0  0  0  0  0  0  0
    5.4128    0.5100   20.1320 C   0  0  0  0  0  0  0  0  0  0  0  0
    4.8570    1.2586   19.0874 C   0  0  0  0  0  0  0  0  0  0  0  0
    5.4828    1.2519   17.8354 C   0  0  0  0  0  0  0  0  0  0  0  0
    6.5917    0.5407   17.5715 N   0  0  0  0  0  0  0  0  0  0  0  0
    7.1314   -0.1599   18.5791 C   0  0  0  0  0  0  0  0  0  0  0  0
    8.0284   -0.7395   18.3552 H   0  0  0  0  0  0  0  0  0  0  0  0
    5.0792    1.8398   17.0118 H   0  0  0  0  0  0  0  0  0  0  0  0
    3.9545    1.8440   19.2323 H   0  0  0  0  0  0  0  0  0  0  0  0
    4.9468    0.4652   21.1187 H   0  0  0  0  0  0  0  0  0  0  0  0
    9.1730   -1.0615   21.8713 H   0  0  0  0  0  0  0  0  0  0  0  0
    9.0846    0.1013   20.5514 H   0  0  0  0  0  0  0  0  0  0  0  0
    7.7844    0.4343   23.2978 H   0  0  0  0  0  0  0  0  0  0  0  0
    7.6502    1.6036   21.9868 H   0  0  0  0  0  0  0  0  0  0  0  0
   10.2949    0.7700   23.3685 H   0  0  0  0  0  0  0  0  0  0  0  0
    9.4350    2.2944   23.6270 H   0  0  0  0  0  0  0  0  0  0  0  0
   10.1708    1.9560   22.0557 H   0  0  0  0  0  0  0  0  0  0  0  0
  1  2  1  0
  2  3  1  0
  3  4  1  0
  4  5  1  0
  5  6  2  0
  5  7  1  0
  7  8  1  0
  8  9  1  0
  9 10  2  0
 10 11  1  0
 11 12  2  0
 12 13  1  0
 13 14  2  0
 14 15  1  0
 15 16  1  0
 15 17  1  0
 15 18  1  0
 13 19  1  0
 12 20  1  0
 11 21  1  0
 10 22  1  0
  8 23  1  0
  7 24  1  0
  4 25  1  0
 25 26  2  0
 26 27  1  0
 27 28  2  0
 28 29  1  0
 29 30  2  0
 30 31  1  0
 28 32  1  0
 27 33  1  0
 26 34  1  0
  3 35  1  0
  3 36  1  0
  2 37  1  0
  2 38  1  0
  1 39  1  0
  1 40  1  0
  1 41  1  0
 14  9  1  0
 30 25  1  0
M  END
>  <cnnaffinity>  (1) 
-5.38657

>  <filename>  (1) 
CCCN(C(=O)NNc1ccccc1C(F)(F)F)c1cccnc1

$$$$
