
     RDKit          3D

 37 39  0  0  0  0  0  0  0  0999 V2000
    5.5795   -3.1679   24.0669 C   0  0  0  0  0  0  0  0  0  0  0  0
    7.0473   -3.1540   24.4909 C   0  0  0  0  0  0  0  0  0  0  0  0
    7.7588   -1.8168   24.2489 C   0  0  0  0  0  0  0  0  0  0  0  0
    7.8876   -1.4627   22.8387 N   0  0  0  0  0  0  0  0  0  0  0  0
    6.9223   -0.7378   22.2363 N   0  0  0  0  0  0  0  0  0  0  0  0
    7.3191   -0.6773   20.9825 C   0  0  0  0  0  0  0  0  0  0  0  0
    6.5901    0.0261   19.9395 C   0  0  0  0  0  0  0  0  0  0  0  0
    5.3697    0.6892   20.1452 C   0  0  0  0  0  0  0  0  0  0  0  0
    4.7940    1.3233   19.0484 C   0  0  0  0  0  0  0  0  0  0  0  0
    5.4487    1.2795   17.8100 C   0  0  0  0  0  0  0  0  0  0  0  0
    6.6086    0.6382   17.6083 N   0  0  0  0  0  0  0  0  0  0  0  0
    7.1590    0.0293   18.6621 C   0  0  0  0  0  0  0  0  0  0  0  0
    8.0993   -0.4907   18.4993 H   0  0  0  0  0  0  0  0  0  0  0  0
    5.0235    1.7817   16.9441 H   0  0  0  0  0  0  0  0  0  0  0  0
    3.8609    1.8646   19.1377 H   0  0  0  0  0  0  0  0  0  0  0  0
    4.8995    0.7070   21.1324 H   0  0  0  0  0  0  0  0  0  0  0  0
    8.4835   -1.3375   20.7309 N   0  0  0  0  0  0  0  0  0  0  0  0
    8.8168   -1.8048   21.9236 C   0  0  0  0  0  0  0  0  0  0  0  0
   10.0929   -2.4836   22.3309 C   0  0  0  0  0  0  0  0  0  0  0  0
   10.7814   -1.7745   23.3680 O   0  0  0  0  0  0  0  0  0  0  0  0
   11.4207   -0.6159   23.0022 C   0  0  0  0  0  0  0  0  0  0  0  0
   11.3459    0.0053   21.7913 C   0  0  0  0  0  0  0  0  0  0  0  0
   12.1875    1.5027   21.7752 S   0  0  0  0  0  0  0  0  0  0  0  0
   12.7106    1.2692   23.3958 C   0  0  0  0  0  0  0  0  0  0  0  0
   12.2419    0.1050   23.9225 C   0  0  0  0  0  0  0  0  0  0  0  0
   12.4743   -0.2469   24.9201 H   0  0  0  0  0  0  0  0  0  0  0  0
   13.3400    2.0146   23.8665 H   0  0  0  0  0  0  0  0  0  0  0  0
   10.8087   -0.3512   20.9267 H   0  0  0  0  0  0  0  0  0  0  0  0
   10.7325   -2.5984   21.4496 H   0  0  0  0  0  0  0  0  0  0  0  0
    9.8902   -3.4805   22.7288 H   0  0  0  0  0  0  0  0  0  0  0  0
    8.7565   -1.8278   24.6974 H   0  0  0  0  0  0  0  0  0  0  0  0
    7.1960   -0.9977   24.7073 H   0  0  0  0  0  0  0  0  0  0  0  0
    7.6021   -3.9543   23.9798 H   0  0  0  0  0  0  0  0  0  0  0  0
    7.1123   -3.3660   25.5659 H   0  0  0  0  0  0  0  0  0  0  0  0
    5.4636   -2.9432   23.0000 H   0  0  0  0  0  0  0  0  0  0  0  0
    5.1373   -4.1508   24.2660 H   0  0  0  0  0  0  0  0  0  0  0  0
    5.0009   -2.4189   24.6247 H   0  0  0  0  0  0  0  0  0  0  0  0
  1  2  1  0
  2  3  1  0
  3  4  1  0
  4  5  1  0
  5  6  2  0
  6  7  1  0
  7  8  2  0
  8  9  1  0
  9 10  2  0
 10 11  1  0
 11 12  2  0
 12 13  1  0
 10 14  1  0
  9 15  1  0
  8 16  1  0
  6 17  1  0
 17 18  2  0
 18 19  1  0
 19 20  1  0
 20 21  1  0
 21 22  2  0
 22 23  1  0
 23 24  1  0
 24 25  2  0
 25 26  1  0
 24 27  1  0
 22 28  1  0
 19 29  1  0
 19 30  1  0
  3 31  1  0
  3 32  1  0
  2 33  1  0
  2 34  1  0
  1 35  1  0
  1 36  1  0
  1 37  1  0
 18  4  1  0
 25 21  1  0
 12  7  1  0
M  END
>  <cnnaffinity>  (1) 
-5.51806

>  <filename>  (1) 
CCCn1nc(-c2cccnc2)nc1COc1ccsc1

$$$$
