
     RDKit          3D

 42 45  0  0  0  0  0  0  0  0999 V2000
    7.3366   -4.2861   23.9036 C   0  0  0  0  0  0  0  0  0  0  0  0
    6.7276   -2.9959   24.4545 C   0  0  0  0  0  0  0  0  0  0  0  0
    7.5924   -1.7396   24.2958 C   0  0  0  0  0  0  0  0  0  0  0  0
    7.8149   -1.3393   22.9067 N   0  0  0  0  0  0  0  0  0  0  0  0
    6.7973   -0.7081   22.2757 N   0  0  0  0  0  0  0  0  0  0  0  0
    7.2683   -0.5087   21.0649 C   0  0  0  0  0  0  0  0  0  0  0  0
    6.5204    0.1120   19.9748 C   0  0  0  0  0  0  0  0  0  0  0  0
    5.2816    0.7631   20.1115 C   0  0  0  0  0  0  0  0  0  0  0  0
    4.7419    1.3742   18.9803 C   0  0  0  0  0  0  0  0  0  0  0  0
    5.4367    1.2948   17.7667 C   0  0  0  0  0  0  0  0  0  0  0  0
    6.5908    0.6295   17.6186 N   0  0  0  0  0  0  0  0  0  0  0  0
    7.1107    0.0541   18.7052 C   0  0  0  0  0  0  0  0  0  0  0  0
    8.0450   -0.4856   18.5683 H   0  0  0  0  0  0  0  0  0  0  0  0
    5.0420    1.7730   16.8722 H   0  0  0  0  0  0  0  0  0  0  0  0
    3.8048    1.9195   19.0191 H   0  0  0  0  0  0  0  0  0  0  0  0
    4.7634    0.7954   21.0727 H   0  0  0  0  0  0  0  0  0  0  0  0
    8.5298   -0.9753   20.8717 N   0  0  0  0  0  0  0  0  0  0  0  0
    8.8585   -1.4788   22.0464 C   0  0  0  0  0  0  0  0  0  0  0  0
   10.1038   -2.2904   22.2803 C   0  0  0  0  0  0  0  0  0  0  0  0
   11.4371   -1.5954   22.1422 C   0  0  0  0  0  0  0  0  0  0  0  0
   12.4344   -1.8120   21.2331 C   0  0  0  0  0  0  0  0  0  0  0  0
   13.5281   -1.0177   21.5167 N   0  0  0  0  0  0  0  0  0  0  0  0
   13.2115   -0.2014   22.5592 C   0  0  0  0  0  0  0  0  0  0  0  0
   13.9676    0.8075   22.9915 N   0  0  0  0  0  0  0  0  0  0  0  0
   13.3858    1.5234   23.9602 C   0  0  0  0  0  0  0  0  0  0  0  0
   12.1400    1.2285   24.5656 C   0  0  0  0  0  0  0  0  0  0  0  0
   11.4013    0.1404   24.1109 C   0  0  0  0  0  0  0  0  0  0  0  0
   11.9156   -0.5607   23.0116 C   0  0  0  0  0  0  0  0  0  0  0  0
   10.4672   -0.1699   24.5813 H   0  0  0  0  0  0  0  0  0  0  0  0
   11.7615    1.8537   25.3647 H   0  0  0  0  0  0  0  0  0  0  0  0
   13.9218    2.4093   24.2676 H   0  0  0  0  0  0  0  0  0  0  0  0
   14.3494   -0.8609   20.9635 H   0  0  0  0  0  0  0  0  0  0  0  0
   12.4313   -2.4230   20.3404 H   0  0  0  0  0  0  0  0  0  0  0  0
   10.0449   -3.0814   21.5386 H   0  0  0  0  0  0  0  0  0  0  0  0
   10.0500   -2.7745   23.2629 H   0  0  0  0  0  0  0  0  0  0  0  0
    7.0870   -0.8939   24.7737 H   0  0  0  0  0  0  0  0  0  0  0  0
    8.5614   -1.8623   24.7897 H   0  0  0  0  0  0  0  0  0  0  0  0
    6.5282   -3.1110   25.5280 H   0  0  0  0  0  0  0  0  0  0  0  0
    5.7594   -2.7941   23.9768 H   0  0  0  0  0  0  0  0  0  0  0  0
    8.2923   -4.5300   24.3876 H   0  0  0  0  0  0  0  0  0  0  0  0
    6.6658   -5.1344   24.0835 H   0  0  0  0  0  0  0  0  0  0  0  0
    7.5095   -4.2315   22.8216 H   0  0  0  0  0  0  0  0  0  0  0  0
  1  2  1  0
  2  3  1  0
  3  4  1  0
  4  5  1  0
  5  6  2  0
  6  7  1  0
  7  8  2  0
  8  9  1  0
  9 10  2  0
 10 11  1  0
 11 12  2  0
 12 13  1  0
 10 14  1  0
  9 15  1  0
  8 16  1  0
  6 17  1  0
 17 18  2  0
 18 19  1  0
 19 20  1  0
 20 21  2  0
 21 22  1  0
 22 23  1  0
 23 24  2  0
 24 25  1  0
 25 26  2  0
 26 27  1  0
 27 28  2  0
 27 29  1  0
 26 30  1  0
 25 31  1  0
 22 32  1  0
 21 33  1  0
 19 34  1  0
 19 35  1  0
  3 36  1  0
  3 37  1  0
  2 38  1  0
  2 39  1  0
  1 40  1  0
  1 41  1  0
  1 42  1  0
 18  4  1  0
 28 20  1  0
 12  7  1  0
 28 23  1  0
M  END
>  <cnnaffinity>  (1) 
-6.52702

>  <filename>  (1) 
CCCn1nc(-c2cccnc2)nc1Cc1c[nH]c2ncccc12

$$$$
