
     RDKit          3D

 41 44  0  0  0  0  0  0  0  0999 V2000
   12.4495   -2.0072   22.0718 C   0  0  0  0  0  0  0  0  0  0  0  0
   11.0765   -1.4177   22.3947 C   0  0  0  0  0  0  0  0  0  0  0  0
    9.9777   -2.4317   22.0785 C   0  0  0  0  0  0  0  0  0  0  0  0
    8.6557   -1.8492   21.9117 N   0  0  0  0  0  0  0  0  0  0  0  0
    8.3354   -1.3361   20.7034 N   0  0  0  0  0  0  0  0  0  0  0  0
    7.2562   -0.6216   20.9587 C   0  0  0  0  0  0  0  0  0  0  0  0
    6.5456    0.0805   19.8983 C   0  0  0  0  0  0  0  0  0  0  0  0
    5.3267    0.7438   20.1030 C   0  0  0  0  0  0  0  0  0  0  0  0
    4.7457    1.3767   19.0079 C   0  0  0  0  0  0  0  0  0  0  0  0
    5.3986    1.3264   17.7701 C   0  0  0  0  0  0  0  0  0  0  0  0
    6.5582    0.6831   17.5658 N   0  0  0  0  0  0  0  0  0  0  0  0
    7.1130    0.0747   18.6154 C   0  0  0  0  0  0  0  0  0  0  0  0
    8.0540   -0.4442   18.4308 H   0  0  0  0  0  0  0  0  0  0  0  0
    4.9694    1.8189   16.9026 H   0  0  0  0  0  0  0  0  0  0  0  0
    3.8107    1.9176   19.1003 H   0  0  0  0  0  0  0  0  0  0  0  0
    4.8625    0.7632   21.0932 H   0  0  0  0  0  0  0  0  0  0  0  0
    6.8925   -0.5983   22.2628 N   0  0  0  0  0  0  0  0  0  0  0  0
    7.7675   -1.4039   22.8300 C   0  0  0  0  0  0  0  0  0  0  0  0
    7.8051   -1.7603   24.2391 C   0  0  0  0  0  0  0  0  0  0  0  0
    7.9410   -0.7487   25.1705 C   0  0  0  0  0  0  0  0  0  0  0  0
    8.0809   -0.9569   26.4863 N   0  0  0  0  0  0  0  0  0  0  0  0
    8.0310   -2.2125   26.9136 C   0  0  0  0  0  0  0  0  0  0  0  0
    7.8227   -3.2927   26.0728 C   0  0  0  0  0  0  0  0  0  0  0  0
    7.7195   -3.1036   24.6866 C   0  0  0  0  0  0  0  0  0  0  0  0
    7.5176   -4.2572   23.8371 C   0  0  0  0  0  0  0  0  0  0  0  0
    7.4122   -5.4906   24.3877 C   0  0  0  0  0  0  0  0  0  0  0  0
    7.4945   -5.6379   25.7587 N   0  0  0  0  0  0  0  0  0  0  0  0
    7.6910   -4.6157   26.6682 C   0  0  0  0  0  0  0  0  0  0  0  0
    7.7295   -4.8851   27.8534 O   0  0  0  0  0  0  0  0  0  0  0  0
    7.4105   -6.5114   26.2580 H   0  0  0  0  0  0  0  0  0  0  0  0
    7.2677   -6.3871   23.7949 H   0  0  0  0  0  0  0  0  0  0  0  0
    7.4418   -4.1234   22.7678 H   0  0  0  0  0  0  0  0  0  0  0  0
    8.1623   -2.3782   27.9726 H   0  0  0  0  0  0  0  0  0  0  0  0
    7.9768    0.2892   24.8454 H   0  0  0  0  0  0  0  0  0  0  0  0
    9.9267   -3.2238   22.8300 H   0  0  0  0  0  0  0  0  0  0  0  0
   10.1958   -2.8686   21.1104 H   0  0  0  0  0  0  0  0  0  0  0  0
   11.0001   -1.1157   23.4460 H   0  0  0  0  0  0  0  0  0  0  0  0
   10.9177   -0.5201   21.7843 H   0  0  0  0  0  0  0  0  0  0  0  0
   13.2652   -1.3795   22.4467 H   0  0  0  0  0  0  0  0  0  0  0  0
   12.5656   -2.1212   20.9818 H   0  0  0  0  0  0  0  0  0  0  0  0
   12.5555   -3.0076   22.5126 H   0  0  0  0  0  0  0  0  0  0  0  0
  1  2  1  0
  2  3  1  0
  3  4  1  0
  4  5  1  0
  5  6  2  0
  6  7  1  0
  7  8  2  0
  8  9  1  0
  9 10  2  0
 10 11  1  0
 11 12  2  0
 12 13  1  0
 10 14  1  0
  9 15  1  0
  8 16  1  0
  6 17  1  0
 17 18  2  0
 18 19  1  0
 19 20  2  0
 20 21  1  0
 21 22  2  0
 22 23  1  0
 23 24  2  0
 24 25  1  0
 25 26  2  0
 26 27  1  0
 27 28  1  0
 28 29  2  0
 27 30  1  0
 26 31  1  0
 25 32  1  0
 22 33  1  0
 20 34  1  0
  3 35  1  0
  3 36  1  0
  2 37  1  0
  2 38  1  0
  1 39  1  0
  1 40  1  0
  1 41  1  0
 18  4  1  0
 24 19  1  0
 12  7  1  0
 28 23  1  0
M  END
>  <cnnaffinity>  (1) 
-6.35736

>  <filename>  (1) 
CCCn1nc(-c2cccnc2)nc1-c1cncc2c(=O)[nH]ccc12

$$$$
