
     RDKit          3D

 45 47  0  0  0  0  0  0  0  0999 V2000
    8.0262    6.1678   21.7008 C   0  0  0  0  0  0  0  0  0  0  0  0
    7.3996    4.7762   21.6554 C   0  0  0  0  0  0  0  0  0  0  0  0
    6.7532    4.2663   22.9439 C   0  0  0  0  0  0  0  0  0  0  0  0
    7.7111    3.9765   24.0084 N   0  0  0  0  0  0  0  0  0  0  0  0
    7.8403    4.8136   25.0479 N   0  0  0  0  0  0  0  0  0  0  0  0
    8.8718    4.3631   25.7507 C   0  0  0  0  0  0  0  0  0  0  0  0
    9.4240    3.2156   25.1570 C   0  0  0  0  0  0  0  0  0  0  0  0
    8.6676    3.0102   24.0177 C   0  0  0  0  0  0  0  0  0  0  0  0
    8.7235    2.0054   22.9617 C   0  0  0  0  0  0  0  0  0  0  0  0
    7.7176    1.2386   22.5828 N   0  0  0  0  0  0  0  0  0  0  0  0
    8.2777    0.4084   21.6711 C   0  0  0  0  0  0  0  0  0  0  0  0
    7.4693   -0.6334   20.9531 C   0  0  0  0  0  0  0  0  0  0  0  0
    6.6597   -0.0420   19.8087 C   0  0  0  0  0  0  0  0  0  0  0  0
    5.4532    0.6133   20.0810 C   0  0  0  0  0  0  0  0  0  0  0  0
    4.8051    1.2905   19.0465 C   0  0  0  0  0  0  0  0  0  0  0  0
    5.3920    1.2983   17.7793 C   0  0  0  0  0  0  0  0  0  0  0  0
    6.5362    0.6596   17.4886 N   0  0  0  0  0  0  0  0  0  0  0  0
    7.1432    0.0071   18.4892 C   0  0  0  0  0  0  0  0  0  0  0  0
    8.0807   -0.4901   18.2344 H   0  0  0  0  0  0  0  0  0  0  0  0
    4.9218    1.8436   16.9617 H   0  0  0  0  0  0  0  0  0  0  0  0
    3.8796    1.8260   19.2192 H   0  0  0  0  0  0  0  0  0  0  0  0
    5.0563    0.6220   21.0995 H   0  0  0  0  0  0  0  0  0  0  0  0
    6.7926   -1.0816   21.6902 H   0  0  0  0  0  0  0  0  0  0  0  0
    8.1398   -1.4211   20.5975 H   0  0  0  0  0  0  0  0  0  0  0  0
    9.5564    0.6311   21.4370 N   0  0  0  0  0  0  0  0  0  0  0  0
    9.8482    1.6722   22.2620 N   0  0  0  0  0  0  0  0  0  0  0  0
   11.1930    2.2542   22.1363 C   0  0  0  0  0  0  0  0  0  0  0  0
   11.2698    3.7363   22.5250 C   0  0  0  0  0  0  0  0  0  0  0  0
   10.3014    4.2244   22.3946 H   0  0  0  0  0  0  0  0  0  0  0  0
   11.5736    3.8691   23.5690 H   0  0  0  0  0  0  0  0  0  0  0  0
   11.9935    4.2615   21.8984 H   0  0  0  0  0  0  0  0  0  0  0  0
   12.2266    1.3923   22.8896 C   0  0  0  0  0  0  0  0  0  0  0  0
   11.9662    1.3581   24.2157 F   0  0  0  0  0  0  0  0  0  0  0  0
   13.4630    1.9095   22.7378 F   0  0  0  0  0  0  0  0  0  0  0  0
   12.2717    0.1365   22.4494 F   0  0  0  0  0  0  0  0  0  0  0  0
   11.4472    2.1345   21.0807 H   0  0  0  0  0  0  0  0  0  0  0  0
   10.2454    2.5986   25.4924 H   0  0  0  0  0  0  0  0  0  0  0  0
    9.1817    4.8973   26.6404 H   0  0  0  0  0  0  0  0  0  0  0  0
    6.2158    3.3338   22.7350 H   0  0  0  0  0  0  0  0  0  0  0  0
    6.0434    4.9907   23.3496 H   0  0  0  0  0  0  0  0  0  0  0  0
    6.6112    4.7903   20.8914 H   0  0  0  0  0  0  0  0  0  0  0  0
    8.1567    4.0356   21.3564 H   0  0  0  0  0  0  0  0  0  0  0  0
    7.2805    6.9323   21.9555 H   0  0  0  0  0  0  0  0  0  0  0  0
    8.4315    6.4060   20.7107 H   0  0  0  0  0  0  0  0  0  0  0  0
    8.8530    6.2540   22.4147 H   0  0  0  0  0  0  0  0  0  0  0  0
  1  2  1  0
  2  3  1  0
  3  4  1  0
  4  5  1  0
  5  6  2  0
  6  7  1  0
  7  8  2  0
  8  9  1  0
  9 10  2  0
 10 11  1  0
 11 12  1  0
 12 13  1  0
 13 14  2  0
 14 15  1  0
 15 16  2  0
 16 17  1  0
 17 18  2  0
 18 19  1  0
 16 20  1  0
 15 21  1  0
 14 22  1  0
 12 23  1  0
 12 24  1  0
 11 25  2  0
 25 26  1  0
 26 27  1  0
 27 28  1  0
 28 29  1  0
 28 30  1  0
 28 31  1  0
 27 32  1  0
 32 33  1  0
 32 34  1  0
 32 35  1  0
 27 36  1  0
  7 37  1  0
  6 38  1  0
  3 39  1  0
  3 40  1  0
  2 41  1  0
  2 42  1  0
  1 43  1  0
  1 44  1  0
  1 45  1  0
  8  4  1  0
 26  9  1  0
 18 13  1  0
M  END
>  <cnnaffinity>  (1) 
-5.66195

>  <filename>  (1) 
CCCn1nccc1-c1nc(Cc2cccnc2)nn1C(C)C(F)(F)F

$$$$
