
     RDKit          3D

 45 48  0  0  0  0  0  0  0  0999 V2000
   11.2274   -0.5532   23.3686 C   0  0  0  0  0  0  0  0  0  0  0  0
   11.2651   -1.5904   22.2476 C   0  0  0  0  0  0  0  0  0  0  0  0
   10.0167   -2.4732   22.1612 C   0  0  0  0  0  0  0  0  0  0  0  0
    8.7742   -1.7379   22.0316 N   0  0  0  0  0  0  0  0  0  0  0  0
    8.4923   -1.2316   20.8159 N   0  0  0  0  0  0  0  0  0  0  0  0
    7.3237   -0.6570   21.0018 C   0  0  0  0  0  0  0  0  0  0  0  0
    6.6178    0.0124   19.9217 C   0  0  0  0  0  0  0  0  0  0  0  0
    5.4023    0.6626   20.1504 C   0  0  0  0  0  0  0  0  0  0  0  0
    4.7985    1.3106   19.0786 C   0  0  0  0  0  0  0  0  0  0  0  0
    5.4302    1.2803   17.8300 C   0  0  0  0  0  0  0  0  0  0  0  0
    6.5900    0.6456   17.5993 N   0  0  0  0  0  0  0  0  0  0  0  0
    7.1728    0.0286   18.6320 C   0  0  0  0  0  0  0  0  0  0  0  0
    8.1246   -0.4623   18.4197 H   0  0  0  0  0  0  0  0  0  0  0  0
    4.9819    1.7887   16.9793 H   0  0  0  0  0  0  0  0  0  0  0  0
    3.8678    1.8479   19.2106 H   0  0  0  0  0  0  0  0  0  0  0  0
    4.9771    0.6638   21.1573 H   0  0  0  0  0  0  0  0  0  0  0  0
    6.8426   -0.7571   22.2700 N   0  0  0  0  0  0  0  0  0  0  0  0
    7.7850   -1.4387   22.8963 C   0  0  0  0  0  0  0  0  0  0  0  0
    7.7673   -1.9259   24.3047 C   0  0  0  0  0  0  0  0  0  0  0  0
    7.2092   -3.3379   24.4655 C   0  0  0  0  0  0  0  0  0  0  0  0
    5.7349   -3.4497   24.0490 C   0  0  0  0  0  0  0  0  0  0  0  0
    5.2285   -4.7581   24.2959 O   0  0  0  0  0  0  0  0  0  0  0  0
    5.5536   -5.2504   25.5374 C   0  0  0  0  0  0  0  0  0  0  0  0
    4.8213   -6.3273   26.0310 C   0  0  0  0  0  0  0  0  0  0  0  0
    5.1575   -6.9021   27.2623 C   0  0  0  0  0  0  0  0  0  0  0  0
    6.2309   -6.3892   28.0053 C   0  0  0  0  0  0  0  0  0  0  0  0
    6.9663   -5.2994   27.5215 C   0  0  0  0  0  0  0  0  0  0  0  0
    6.6262   -4.7200   26.2966 C   0  0  0  0  0  0  0  0  0  0  0  0
    7.3314   -3.6265   25.8652 O   0  0  0  0  0  0  0  0  0  0  0  0
    7.8103   -4.8773   28.0604 H   0  0  0  0  0  0  0  0  0  0  0  0
    6.4951   -6.8389   28.9594 H   0  0  0  0  0  0  0  0  0  0  0  0
    4.5822   -7.7464   27.6345 H   0  0  0  0  0  0  0  0  0  0  0  0
    3.9986   -6.6774   25.4153 H   0  0  0  0  0  0  0  0  0  0  0  0
    5.6112   -3.2521   22.9824 H   0  0  0  0  0  0  0  0  0  0  0  0
    5.1554   -2.7080   24.6155 H   0  0  0  0  0  0  0  0  0  0  0  0
    7.7926   -4.0858   23.9083 H   0  0  0  0  0  0  0  0  0  0  0  0
    8.7690   -1.8979   24.7495 H   0  0  0  0  0  0  0  0  0  0  0  0
    7.1438   -1.2647   24.9061 H   0  0  0  0  0  0  0  0  0  0  0  0
    9.9281   -3.1677   22.9996 H   0  0  0  0  0  0  0  0  0  0  0  0
   10.0444   -3.0484   21.2441 H   0  0  0  0  0  0  0  0  0  0  0  0
   11.3860   -1.0908   21.2778 H   0  0  0  0  0  0  0  0  0  0  0  0
   12.1199   -2.2696   22.3652 H   0  0  0  0  0  0  0  0  0  0  0  0
   10.4760    0.2151   23.1610 H   0  0  0  0  0  0  0  0  0  0  0  0
   12.1973   -0.0521   23.4781 H   0  0  0  0  0  0  0  0  0  0  0  0
   10.9654   -1.0030   24.3363 H   0  0  0  0  0  0  0  0  0  0  0  0
  1  2  1  0
  2  3  1  0
  3  4  1  0
  4  5  1  0
  5  6  2  0
  6  7  1  0
  7  8  2  0
  8  9  1  0
  9 10  2  0
 10 11  1  0
 11 12  2  0
 12 13  1  0
 10 14  1  0
  9 15  1  0
  8 16  1  0
  6 17  1  0
 17 18  2  0
 18 19  1  0
 19 20  1  0
 20 21  1  0
 21 22  1  0
 22 23  1  0
 23 24  2  0
 24 25  1  0
 25 26  2  0
 26 27  1  0
 27 28  2  0
 28 29  1  0
 27 30  1  0
 26 31  1  0
 25 32  1  0
 24 33  1  0
 21 34  1  0
 21 35  1  0
 20 36  1  0
 19 37  1  0
 19 38  1  0
  3 39  1  0
  3 40  1  0
  2 41  1  0
  2 42  1  0
  1 43  1  0
  1 44  1  0
  1 45  1  0
 18  4  1  0
 29 20  1  0
 12  7  1  0
 28 23  1  0
M  END
>  <cnnaffinity>  (1) 
-5.88928

>  <filename>  (1) 
CCCn1nc(-c2cccnc2)nc1CC1COc2ccccc2O1

$$$$
