
     RDKit          3D

 44 46  0  0  0  0  0  0  0  0999 V2000
    6.8765   -3.6126   25.9409 C   0  0  0  0  0  0  0  0  0  0  0  0
    6.9458   -3.2134   24.4671 C   0  0  0  0  0  0  0  0  0  0  0  0
    7.4704   -1.7857   24.2682 C   0  0  0  0  0  0  0  0  0  0  0  0
    7.6434   -1.4004   22.8713 N   0  0  0  0  0  0  0  0  0  0  0  0
    6.6643   -0.6848   22.2643 N   0  0  0  0  0  0  0  0  0  0  0  0
    7.0837   -0.5964   21.0206 C   0  0  0  0  0  0  0  0  0  0  0  0
    6.4090    0.1131   19.9418 C   0  0  0  0  0  0  0  0  0  0  0  0
    5.1985    0.8113   20.0720 C   0  0  0  0  0  0  0  0  0  0  0  0
    4.6868    1.4300   18.9316 C   0  0  0  0  0  0  0  0  0  0  0  0
    5.4007    1.3398   17.7295 C   0  0  0  0  0  0  0  0  0  0  0  0
    6.5575    0.6741   17.6012 N   0  0  0  0  0  0  0  0  0  0  0  0
    7.0422    0.0797   18.6923 C   0  0  0  0  0  0  0  0  0  0  0  0
    7.9803   -0.4608   18.5816 H   0  0  0  0  0  0  0  0  0  0  0  0
    5.0283    1.8183   16.8264 H   0  0  0  0  0  0  0  0  0  0  0  0
    3.7534    1.9818   18.9553 H   0  0  0  0  0  0  0  0  0  0  0  0
    4.6865    0.8593   21.0364 H   0  0  0  0  0  0  0  0  0  0  0  0
    8.2595   -1.2214   20.7820 N   0  0  0  0  0  0  0  0  0  0  0  0
    8.6017   -1.6990   21.9635 C   0  0  0  0  0  0  0  0  0  0  0  0
    9.9648   -2.2807   22.1418 C   0  0  0  0  0  0  0  0  0  0  0  0
   11.0564   -1.1736   22.1317 C   0  0  0  0  0  0  0  0  0  0  0  0
   12.4801   -1.7674   22.0064 C   0  0  0  0  0  0  0  0  0  0  0  0
   12.7762   -1.8619   20.9566 H   0  0  0  0  0  0  0  0  0  0  0  0
   12.5437   -2.7637   22.4539 H   0  0  0  0  0  0  0  0  0  0  0  0
   13.2560   -1.1500   22.4687 H   0  0  0  0  0  0  0  0  0  0  0  0
   10.8956   -0.2012   23.2917 C   0  0  0  0  0  0  0  0  0  0  0  0
   10.9139    1.1843   23.0704 C   0  0  0  0  0  0  0  0  0  0  0  0
   10.8417    2.0638   24.1560 C   0  0  0  0  0  0  0  0  0  0  0  0
   10.7226    1.6636   25.4272 N   0  0  0  0  0  0  0  0  0  0  0  0
   10.6639    0.3416   25.6374 C   0  0  0  0  0  0  0  0  0  0  0  0
   10.7557   -0.6158   24.6213 C   0  0  0  0  0  0  0  0  0  0  0  0
   10.6551   -1.6683   24.8726 H   0  0  0  0  0  0  0  0  0  0  0  0
   10.5316    0.0348   26.6721 H   0  0  0  0  0  0  0  0  0  0  0  0
   10.9093    3.1355   23.9844 H   0  0  0  0  0  0  0  0  0  0  0  0
   10.9285    1.5867   22.0642 H   0  0  0  0  0  0  0  0  0  0  0  0
   10.8692   -0.5936   21.2160 H   0  0  0  0  0  0  0  0  0  0  0  0
   10.0370   -2.9503   23.0041 H   0  0  0  0  0  0  0  0  0  0  0  0
   10.1006   -2.8947   21.2554 H   0  0  0  0  0  0  0  0  0  0  0  0
    6.7767   -1.0515   24.6909 H   0  0  0  0  0  0  0  0  0  0  0  0
    8.4299   -1.6618   24.7724 H   0  0  0  0  0  0  0  0  0  0  0  0
    7.5964   -3.9199   23.9362 H   0  0  0  0  0  0  0  0  0  0  0  0
    5.9550   -3.2925   24.0067 H   0  0  0  0  0  0  0  0  0  0  0  0
    6.2661   -2.9171   26.5289 H   0  0  0  0  0  0  0  0  0  0  0  0
    6.4358   -4.6089   26.0536 H   0  0  0  0  0  0  0  0  0  0  0  0
    7.8751   -3.6397   26.3945 H   0  0  0  0  0  0  0  0  0  0  0  0
  1  2  1  0
  2  3  1  0
  3  4  1  0
  4  5  1  0
  5  6  2  0
  6  7  1  0
  7  8  2  0
  8  9  1  0
  9 10  2  0
 10 11  1  0
 11 12  2  0
 12 13  1  0
 10 14  1  0
  9 15  1  0
  8 16  1  0
  6 17  1  0
 17 18  2  0
 18 19  1  0
 19 20  1  0
 20 21  1  0
 21 22  1  0
 21 23  1  0
 21 24  1  0
 20 25  1  0
 25 26  2  0
 26 27  1  0
 27 28  2  0
 28 29  1  0
 29 30  2  0
 30 31  1  0
 29 32  1  0
 27 33  1  0
 26 34  1  0
 20 35  1  0
 19 36  1  0
 19 37  1  0
  3 38  1  0
  3 39  1  0
  2 40  1  0
  2 41  1  0
  1 42  1  0
  1 43  1  0
  1 44  1  0
 18  4  1  0
 30 25  1  0
 12  7  1  0
M  END
>  <cnnaffinity>  (1) 
-6.12087

>  <filename>  (1) 
CCCn1nc(-c2cccnc2)nc1CC(C)c1ccncc1

$$$$
