
     RDKit          3D

 42 45  0  0  0  0  0  0  0  0999 V2000
   12.0809   -1.2762   21.2881 C   0  0  0  0  0  0  0  0  0  0  0  0
   11.3322   -1.8556   22.4842 C   0  0  0  0  0  0  0  0  0  0  0  0
    9.9772   -2.4786   22.1398 C   0  0  0  0  0  0  0  0  0  0  0  0
    8.8585   -1.5467   22.0052 N   0  0  0  0  0  0  0  0  0  0  0  0
    8.5683   -1.0516   20.7774 N   0  0  0  0  0  0  0  0  0  0  0  0
    7.3507   -0.5721   20.9255 C   0  0  0  0  0  0  0  0  0  0  0  0
    6.6100    0.0658   19.8463 C   0  0  0  0  0  0  0  0  0  0  0  0
    5.3789    0.7006   20.0658 C   0  0  0  0  0  0  0  0  0  0  0  0
    4.7759    1.3448   18.9880 C   0  0  0  0  0  0  0  0  0  0  0  0
    5.4153    1.3117   17.7426 C   0  0  0  0  0  0  0  0  0  0  0  0
    6.5701    0.6686   17.5155 N   0  0  0  0  0  0  0  0  0  0  0  0
    7.1525    0.0602   18.5540 C   0  0  0  0  0  0  0  0  0  0  0  0
    8.0884   -0.4558   18.3454 H   0  0  0  0  0  0  0  0  0  0  0  0
    4.9779    1.8296   16.8919 H   0  0  0  0  0  0  0  0  0  0  0  0
    3.8444    1.8864   19.1055 H   0  0  0  0  0  0  0  0  0  0  0  0
    4.9221    0.6852   21.0579 H   0  0  0  0  0  0  0  0  0  0  0  0
    6.8199   -0.7550   22.1581 N   0  0  0  0  0  0  0  0  0  0  0  0
    7.7995   -1.3388   22.8267 C   0  0  0  0  0  0  0  0  0  0  0  0
    7.8043   -1.7497   24.2325 C   0  0  0  0  0  0  0  0  0  0  0  0
    6.6637   -2.3655   24.7961 C   0  0  0  0  0  0  0  0  0  0  0  0
    5.4372   -2.6255   24.2913 N   0  0  0  0  0  0  0  0  0  0  0  0
    4.6105   -3.1915   25.1974 N   0  0  0  0  0  0  0  0  0  0  0  0
    5.3202   -3.3524   26.3005 C   0  0  0  0  0  0  0  0  0  0  0  0
    4.6840   -3.8556   27.5528 C   0  0  0  0  0  0  0  0  0  0  0  0
    3.6121   -3.9822   27.3835 H   0  0  0  0  0  0  0  0  0  0  0  0
    5.0978   -4.8112   27.8914 H   0  0  0  0  0  0  0  0  0  0  0  0
    4.8246   -3.1290   28.3605 H   0  0  0  0  0  0  0  0  0  0  0  0
    6.6580   -2.8756   26.1144 C   0  0  0  0  0  0  0  0  0  0  0  0
    7.8179   -2.7805   26.9153 C   0  0  0  0  0  0  0  0  0  0  0  0
    8.8962   -2.0800   26.4034 C   0  0  0  0  0  0  0  0  0  0  0  0
    8.8919   -1.5668   25.0882 C   0  0  0  0  0  0  0  0  0  0  0  0
    9.7681   -1.0253   24.7374 H   0  0  0  0  0  0  0  0  0  0  0  0
    9.7621   -1.9070   27.0304 H   0  0  0  0  0  0  0  0  0  0  0  0
    7.8761   -3.2600   27.8847 H   0  0  0  0  0  0  0  0  0  0  0  0
    5.0853   -2.2264   23.4308 H   0  0  0  0  0  0  0  0  0  0  0  0
    9.7126   -3.2305   22.8914 H   0  0  0  0  0  0  0  0  0  0  0  0
   10.0393   -2.9672   21.1694 H   0  0  0  0  0  0  0  0  0  0  0  0
   11.9214   -2.6542   22.9472 H   0  0  0  0  0  0  0  0  0  0  0  0
   11.2058   -1.0751   23.2394 H   0  0  0  0  0  0  0  0  0  0  0  0
   12.5315   -2.0680   20.6781 H   0  0  0  0  0  0  0  0  0  0  0  0
   12.9076   -0.6462   21.6248 H   0  0  0  0  0  0  0  0  0  0  0  0
   11.4103   -0.6674   20.6662 H   0  0  0  0  0  0  0  0  0  0  0  0
  1  2  1  0
  2  3  1  0
  3  4  1  0
  4  5  1  0
  5  6  2  0
  6  7  1  0
  7  8  2  0
  8  9  1  0
  9 10  2  0
 10 11  1  0
 11 12  2  0
 12 13  1  0
 10 14  1  0
  9 15  1  0
  8 16  1  0
  6 17  1  0
 17 18  2  0
 18 19  1  0
 19 20  2  0
 20 21  1  0
 21 22  1  0
 22 23  2  0
 23 24  1  0
 24 25  1  0
 24 26  1  0
 24 27  1  0
 23 28  1  0
 28 29  2  0
 29 30  1  0
 30 31  2  0
 31 32  1  0
 30 33  1  0
 29 34  1  0
 21 35  1  0
  3 36  1  0
  3 37  1  0
  2 38  1  0
  2 39  1  0
  1 40  1  0
  1 41  1  0
  1 42  1  0
 18  4  1  0
 31 19  1  0
 12  7  1  0
 28 20  1  0
M  END
>  <cnnaffinity>  (1) 
-6.06401

>  <filename>  (1) 
CCCn1nc(-c2cccnc2)nc1-c1cccc2c(C)n[nH]c12

$$$$
