
     RDKit          3D

 45 47  0  0  0  0  0  0  0  0999 V2000
   12.4449   -2.0493   22.0633 C   0  0  0  0  0  0  0  0  0  0  0  0
   11.0604   -1.4854   22.3670 C   0  0  0  0  0  0  0  0  0  0  0  0
    9.9320   -2.4708   22.0648 C   0  0  0  0  0  0  0  0  0  0  0  0
    8.6468   -1.8013   21.9286 N   0  0  0  0  0  0  0  0  0  0  0  0
    8.3316   -1.2828   20.7219 N   0  0  0  0  0  0  0  0  0  0  0  0
    7.2170   -0.6149   20.9585 C   0  0  0  0  0  0  0  0  0  0  0  0
    6.5060    0.0923   19.8932 C   0  0  0  0  0  0  0  0  0  0  0  0
    5.2863    0.7632   20.0820 C   0  0  0  0  0  0  0  0  0  0  0  0
    4.7182    1.3992   18.9788 C   0  0  0  0  0  0  0  0  0  0  0  0
    5.3818    1.3458   17.7482 C   0  0  0  0  0  0  0  0  0  0  0  0
    6.5412    0.7001   17.5591 N   0  0  0  0  0  0  0  0  0  0  0  0
    7.0830    0.0888   18.6149 C   0  0  0  0  0  0  0  0  0  0  0  0
    8.0229   -0.4341   18.4423 H   0  0  0  0  0  0  0  0  0  0  0  0
    4.9612    1.8336   16.8716 H   0  0  0  0  0  0  0  0  0  0  0  0
    3.7856    1.9456   19.0575 H   0  0  0  0  0  0  0  0  0  0  0  0
    4.8044    0.7901   21.0613 H   0  0  0  0  0  0  0  0  0  0  0  0
    6.8115   -0.6572   22.2472 N   0  0  0  0  0  0  0  0  0  0  0  0
    7.7277   -1.4049   22.8379 C   0  0  0  0  0  0  0  0  0  0  0  0
    7.6804   -1.8279   24.2748 C   0  0  0  0  0  0  0  0  0  0  0  0
    6.7965   -3.0704   24.5268 C   0  0  0  0  0  0  0  0  0  0  0  0
    7.3557   -4.3265   23.8844 C   0  0  0  0  0  0  0  0  0  0  0  0
    6.9803   -4.6707   22.5687 C   0  0  0  0  0  0  0  0  0  0  0  0
    7.4242   -5.8554   21.9682 C   0  0  0  0  0  0  0  0  0  0  0  0
    8.3083   -6.6764   22.6721 C   0  0  0  0  0  0  0  0  0  0  0  0
    8.7526   -6.2974   23.9392 C   0  0  0  0  0  0  0  0  0  0  0  0
    8.2634   -5.1591   24.5795 C   0  0  0  0  0  0  0  0  0  0  0  0
    8.6673   -4.9044   26.0157 C   0  0  0  0  0  0  0  0  0  0  0  0
    9.0953   -3.9068   26.1538 H   0  0  0  0  0  0  0  0  0  0  0  0
    7.7964   -4.9881   26.6764 H   0  0  0  0  0  0  0  0  0  0  0  0
    9.4093   -5.6313   26.3614 H   0  0  0  0  0  0  0  0  0  0  0  0
    9.4818   -6.9201   24.4555 H   0  0  0  0  0  0  0  0  0  0  0  0
    8.6429   -7.6398   22.3042 H   0  0  0  0  0  0  0  0  0  0  0  0
    7.0567   -6.1414   20.9819 H   0  0  0  0  0  0  0  0  0  0  0  0
    6.3236   -3.9922   22.0235 H   0  0  0  0  0  0  0  0  0  0  0  0
    6.6741   -3.2049   25.6100 H   0  0  0  0  0  0  0  0  0  0  0  0
    5.7937   -2.8762   24.1291 H   0  0  0  0  0  0  0  0  0  0  0  0
    8.6942   -2.0207   24.6419 H   0  0  0  0  0  0  0  0  0  0  0  0
    7.2964   -0.9823   24.8512 H   0  0  0  0  0  0  0  0  0  0  0  0
    9.8530   -3.2769   22.8010 H   0  0  0  0  0  0  0  0  0  0  0  0
   10.0762   -2.9179   21.0836 H   0  0  0  0  0  0  0  0  0  0  0  0
   10.9595   -1.1400   23.4041 H   0  0  0  0  0  0  0  0  0  0  0  0
   10.9005   -0.6126   21.7318 H   0  0  0  0  0  0  0  0  0  0  0  0
   13.2512   -1.3720   22.3643 H   0  0  0  0  0  0  0  0  0  0  0  0
   12.5652   -2.1887   20.9803 H   0  0  0  0  0  0  0  0  0  0  0  0
   12.6018   -3.0158   22.5593 H   0  0  0  0  0  0  0  0  0  0  0  0
  1  2  1  0
  2  3  1  0
  3  4  1  0
  4  5  1  0
  5  6  2  0
  6  7  1  0
  7  8  2  0
  8  9  1  0
  9 10  2  0
 10 11  1  0
 11 12  2  0
 12 13  1  0
 10 14  1  0
  9 15  1  0
  8 16  1  0
  6 17  1  0
 17 18  2  0
 18 19  1  0
 19 20  1  0
 20 21  1  0
 21 22  2  0
 22 23  1  0
 23 24  2  0
 24 25  1  0
 25 26  2  0
 26 27  1  0
 27 28  1  0
 27 29  1  0
 27 30  1  0
 25 31  1  0
 24 32  1  0
 23 33  1  0
 22 34  1  0
 20 35  1  0
 20 36  1  0
 19 37  1  0
 19 38  1  0
  3 39  1  0
  3 40  1  0
  2 41  1  0
  2 42  1  0
  1 43  1  0
  1 44  1  0
  1 45  1  0
 18  4  1  0
 26 21  1  0
 12  7  1  0
M  END
>  <cnnaffinity>  (1) 
-6.29917

>  <filename>  (1) 
CCCn1nc(-c2cccnc2)nc1CCc1ccccc1C

$$$$
