
     RDKit          3D

 42 44  0  0  0  0  0  0  0  0999 V2000
   12.4660   -2.0015   22.0245 C   0  0  0  0  0  0  0  0  0  0  0  0
   11.0814   -1.4528   22.3410 C   0  0  0  0  0  0  0  0  0  0  0  0
    9.9600   -2.4446   22.0045 C   0  0  0  0  0  0  0  0  0  0  0  0
    8.6564   -1.8011   21.8737 N   0  0  0  0  0  0  0  0  0  0  0  0
    8.3269   -1.2802   20.6708 N   0  0  0  0  0  0  0  0  0  0  0  0
    7.2261   -0.5951   20.9251 C   0  0  0  0  0  0  0  0  0  0  0  0
    6.5104    0.1124   19.8648 C   0  0  0  0  0  0  0  0  0  0  0  0
    5.2892    0.7794   20.0528 C   0  0  0  0  0  0  0  0  0  0  0  0
    4.7136    1.4137   18.9526 C   0  0  0  0  0  0  0  0  0  0  0  0
    5.3701    1.3604   17.7174 C   0  0  0  0  0  0  0  0  0  0  0  0
    6.5251    0.7079   17.5248 N   0  0  0  0  0  0  0  0  0  0  0  0
    7.0761    0.1018   18.5794 C   0  0  0  0  0  0  0  0  0  0  0  0
    8.0109   -0.4227   18.3868 H   0  0  0  0  0  0  0  0  0  0  0  0
    4.9460    1.8596   16.8481 H   0  0  0  0  0  0  0  0  0  0  0  0
    3.7812    1.9610   19.0366 H   0  0  0  0  0  0  0  0  0  0  0  0
    4.8021    0.8062   21.0305 H   0  0  0  0  0  0  0  0  0  0  0  0
    6.8439   -0.6247   22.2211 N   0  0  0  0  0  0  0  0  0  0  0  0
    7.7542   -1.3951   22.7990 C   0  0  0  0  0  0  0  0  0  0  0  0
    7.6738   -1.8604   24.2242 C   0  0  0  0  0  0  0  0  0  0  0  0
    6.7067   -3.0719   24.4198 C   0  0  0  0  0  0  0  0  0  0  0  0
    7.2155   -4.3017   23.6439 C   0  0  0  0  0  0  0  0  0  0  0  0
    6.5292   -5.1477   23.7503 H   0  0  0  0  0  0  0  0  0  0  0  0
    8.1954   -4.6229   24.0191 H   0  0  0  0  0  0  0  0  0  0  0  0
    7.3198   -4.0722   22.5781 H   0  0  0  0  0  0  0  0  0  0  0  0
    6.4405   -3.3672   25.8718 C   0  0  0  0  0  0  0  0  0  0  0  0
    5.3944   -3.0866   26.6974 C   0  0  0  0  0  0  0  0  0  0  0  0
    5.6899   -3.7188   27.9546 C   0  0  0  0  0  0  0  0  0  0  0  0
    6.9112   -4.2851   27.8076 C   0  0  0  0  0  0  0  0  0  0  0  0
    7.3737   -4.0879   26.5512 O   0  0  0  0  0  0  0  0  0  0  0  0
    7.5610   -4.8650   28.4508 H   0  0  0  0  0  0  0  0  0  0  0  0
    5.0794   -3.7236   28.8467 H   0  0  0  0  0  0  0  0  0  0  0  0
    4.5278   -2.4821   26.4522 H   0  0  0  0  0  0  0  0  0  0  0  0
    5.7312   -2.7643   24.0182 H   0  0  0  0  0  0  0  0  0  0  0  0
    7.3245   -1.0045   24.8110 H   0  0  0  0  0  0  0  0  0  0  0  0
    8.6637   -2.1301   24.6072 H   0  0  0  0  0  0  0  0  0  0  0  0
    9.9070   -3.2681   22.7265 H   0  0  0  0  0  0  0  0  0  0  0  0
   10.1374   -2.8665   21.0168 H   0  0  0  0  0  0  0  0  0  0  0  0
   10.9061   -0.5549   21.7398 H   0  0  0  0  0  0  0  0  0  0  0  0
   11.0177   -1.1544   23.3955 H   0  0  0  0  0  0  0  0  0  0  0  0
   13.2639   -1.3229   22.3453 H   0  0  0  0  0  0  0  0  0  0  0  0
   12.5900   -2.1528   20.9475 H   0  0  0  0  0  0  0  0  0  0  0  0
   12.6404   -2.9603   22.5173 H   0  0  0  0  0  0  0  0  0  0  0  0
  1  2  1  0
  2  3  1  0
  3  4  1  0
  4  5  1  0
  5  6  2  0
  6  7  1  0
  7  8  2  0
  8  9  1  0
  9 10  2  0
 10 11  1  0
 11 12  2  0
 12 13  1  0
 10 14  1  0
  9 15  1  0
  8 16  1  0
  6 17  1  0
 17 18  2  0
 18 19  1  0
 19 20  1  0
 20 21  1  0
 21 22  1  0
 21 23  1  0
 21 24  1  0
 20 25  1  0
 25 26  2  0
 26 27  1  0
 27 28  2  0
 28 29  1  0
 28 30  1  0
 27 31  1  0
 26 32  1  0
 20 33  1  0
 19 34  1  0
 19 35  1  0
  3 36  1  0
  3 37  1  0
  2 38  1  0
  2 39  1  0
  1 40  1  0
  1 41  1  0
  1 42  1  0
 18  4  1  0
 29 25  1  0
 12  7  1  0
M  END
>  <cnnaffinity>  (1) 
-5.91934

>  <filename>  (1) 
CCCn1nc(-c2cccnc2)nc1CC(C)c1ccco1

$$$$
