
     RDKit          3D

 46 47  0  0  0  0  0  0  0  0999 V2000
    9.9157    1.4646   22.7934 C   0  0  0  0  0  0  0  0  0  0  0  0
    8.5455    0.9769   22.3145 C   0  0  0  0  0  0  0  0  0  0  0  0
    8.6253   -0.2284   21.3725 C   0  0  0  0  0  0  0  0  0  0  0  0
    7.3217   -0.7385   20.9430 N   0  0  0  0  0  0  0  0  0  0  0  0
    6.6322   -1.7852   21.5787 C   0  0  0  0  0  0  0  0  0  0  0  0
    5.6706   -2.3270   21.0543 O   0  0  0  0  0  0  0  0  0  0  0  0
    7.1378   -2.2186   22.9083 C   0  0  0  0  0  0  0  0  0  0  0  0
    6.5493   -3.2182   23.5859 C   0  0  0  0  0  0  0  0  0  0  0  0
    6.9441   -3.7206   24.9070 C   0  0  0  0  0  0  0  0  0  0  0  0
    8.2376   -3.5569   25.4351 C   0  0  0  0  0  0  0  0  0  0  0  0
    8.6030   -4.0889   26.6683 C   0  0  0  0  0  0  0  0  0  0  0  0
    7.6581   -4.8139   27.4085 C   0  0  0  0  0  0  0  0  0  0  0  0
    8.1109   -5.3935   28.5499 O   0  0  0  0  0  0  0  0  0  0  0  0
    7.1734   -5.9193   29.4733 C   0  0  0  0  0  0  0  0  0  0  0  0
    7.7079   -6.1343   30.4007 H   0  0  0  0  0  0  0  0  0  0  0  0
    6.3760   -5.1950   29.6755 H   0  0  0  0  0  0  0  0  0  0  0  0
    6.7107   -6.8434   29.1070 H   0  0  0  0  0  0  0  0  0  0  0  0
    6.3449   -4.9435   26.9503 C   0  0  0  0  0  0  0  0  0  0  0  0
    5.9998   -4.4356   25.6932 C   0  0  0  0  0  0  0  0  0  0  0  0
    4.7594   -4.6106   25.1599 O   0  0  0  0  0  0  0  0  0  0  0  0
    3.7606   -5.2593   25.9240 C   0  0  0  0  0  0  0  0  0  0  0  0
    3.5624   -4.7244   26.8616 H   0  0  0  0  0  0  0  0  0  0  0  0
    4.0397   -6.2942   26.1609 H   0  0  0  0  0  0  0  0  0  0  0  0
    2.8573   -5.2649   25.3157 H   0  0  0  0  0  0  0  0  0  0  0  0
    5.5984   -5.4339   27.5618 H   0  0  0  0  0  0  0  0  0  0  0  0
    9.5927   -3.9741   27.0960 H   0  0  0  0  0  0  0  0  0  0  0  0
    8.9747   -3.0331   24.8301 H   0  0  0  0  0  0  0  0  0  0  0  0
    5.6776   -3.7015   23.1338 H   0  0  0  0  0  0  0  0  0  0  0  0
    7.9448   -1.6299   23.3271 H   0  0  0  0  0  0  0  0  0  0  0  0
    6.6626   -0.0292   19.8815 C   0  0  0  0  0  0  0  0  0  0  0  0
    5.4486    0.6270   20.1321 C   0  0  0  0  0  0  0  0  0  0  0  0
    4.8239    1.3127   19.0884 C   0  0  0  0  0  0  0  0  0  0  0  0
    5.4289    1.3122   17.8277 C   0  0  0  0  0  0  0  0  0  0  0  0
    6.5917    0.6921   17.5651 N   0  0  0  0  0  0  0  0  0  0  0  0
    7.1962    0.0530   18.5758 C   0  0  0  0  0  0  0  0  0  0  0  0
    8.1405   -0.4438   18.3398 H   0  0  0  0  0  0  0  0  0  0  0  0
    4.9560    1.8226   16.9922 H   0  0  0  0  0  0  0  0  0  0  0  0
    3.8873    1.8410   19.2415 H   0  0  0  0  0  0  0  0  0  0  0  0
    5.0204    0.5903   21.1338 H   0  0  0  0  0  0  0  0  0  0  0  0
    9.2057   -1.0450   21.8128 H   0  0  0  0  0  0  0  0  0  0  0  0
    9.1816    0.0679   20.4755 H   0  0  0  0  0  0  0  0  0  0  0  0
    8.0241    1.7828   21.7847 H   0  0  0  0  0  0  0  0  0  0  0  0
    7.9261    0.7398   23.1859 H   0  0  0  0  0  0  0  0  0  0  0  0
   10.4534    0.6826   23.3418 H   0  0  0  0  0  0  0  0  0  0  0  0
   10.5485    1.7781   21.9565 H   0  0  0  0  0  0  0  0  0  0  0  0
    9.8206    2.3242   23.4661 H   0  0  0  0  0  0  0  0  0  0  0  0
  1  2  1  0
  2  3  1  0
  3  4  1  0
  4  5  1  0
  5  6  2  0
  5  7  1  0
  7  8  2  3
  8  9  1  0
  9 10  2  0
 10 11  1  0
 11 12  2  0
 12 13  1  0
 13 14  1  0
 14 15  1  0
 14 16  1  0
 14 17  1  0
 12 18  1  0
 18 19  2  0
 19 20  1  0
 20 21  1  0
 21 22  1  0
 21 23  1  0
 21 24  1  0
 18 25  1  0
 11 26  1  0
 10 27  1  0
  8 28  1  0
  7 29  1  0
  4 30  1  0
 30 31  2  0
 31 32  1  0
 32 33  2  0
 33 34  1  0
 34 35  2  0
 35 36  1  0
 33 37  1  0
 32 38  1  0
 31 39  1  0
  3 40  1  0
  3 41  1  0
  2 42  1  0
  2 43  1  0
  1 44  1  0
  1 45  1  0
  1 46  1  0
 19  9  1  0
 35 30  1  0
M  END
>  <cnnaffinity>  (1) 
-5.52133

>  <filename>  (1) 
CCCN(C(=O)C=Cc1ccc(OC)cc1OC)c1cccnc1

$$$$
