
     RDKit          3D

 43 46  0  0  0  0  0  0  0  0999 V2000
   12.4506   -1.9522   22.0058 C   0  0  0  0  0  0  0  0  0  0  0  0
   11.0771   -1.4047   22.3711 C   0  0  0  0  0  0  0  0  0  0  0  0
    9.9240   -2.3791   22.0707 C   0  0  0  0  0  0  0  0  0  0  0  0
    8.6406   -1.6846   21.9289 N   0  0  0  0  0  0  0  0  0  0  0  0
    8.2905   -1.2188   20.7094 N   0  0  0  0  0  0  0  0  0  0  0  0
    7.1888   -0.5261   20.9479 C   0  0  0  0  0  0  0  0  0  0  0  0
    6.4671    0.1477   19.8718 C   0  0  0  0  0  0  0  0  0  0  0  0
    5.2437    0.8152   20.0405 C   0  0  0  0  0  0  0  0  0  0  0  0
    4.6870    1.4391   18.9238 C   0  0  0  0  0  0  0  0  0  0  0  0
    5.3607    1.3685   17.6981 C   0  0  0  0  0  0  0  0  0  0  0  0
    6.5132    0.7077   17.5244 N   0  0  0  0  0  0  0  0  0  0  0  0
    7.0465    0.1149   18.5941 C   0  0  0  0  0  0  0  0  0  0  0  0
    7.9798   -0.4188   18.4306 H   0  0  0  0  0  0  0  0  0  0  0  0
    4.9584    1.8615   16.8157 H   0  0  0  0  0  0  0  0  0  0  0  0
    3.7557    1.9914   18.9838 H   0  0  0  0  0  0  0  0  0  0  0  0
    4.7387    0.8463   21.0093 H   0  0  0  0  0  0  0  0  0  0  0  0
    6.8122   -0.5164   22.2464 N   0  0  0  0  0  0  0  0  0  0  0  0
    7.7388   -1.2504   22.8408 C   0  0  0  0  0  0  0  0  0  0  0  0
    7.6698   -1.6462   24.2775 C   0  0  0  0  0  0  0  0  0  0  0  0
    6.6629   -2.7920   24.5289 C   0  0  0  0  0  0  0  0  0  0  0  0
    6.6825   -3.0849   25.9286 O   0  0  0  0  0  0  0  0  0  0  0  0
    7.2724   -4.2924   26.1770 C   0  0  0  0  0  0  0  0  0  0  0  0
    7.4577   -4.7008   27.2893 O   0  0  0  0  0  0  0  0  0  0  0  0
    7.5884   -4.9110   24.8601 C   0  0  0  0  0  0  0  0  0  0  0  0
    8.3114   -6.0667   24.5412 C   0  0  0  0  0  0  0  0  0  0  0  0
    8.4121   -6.4131   23.1930 C   0  0  0  0  0  0  0  0  0  0  0  0
    7.7806   -5.6407   22.1984 C   0  0  0  0  0  0  0  0  0  0  0  0
    7.0665   -4.4882   22.5389 C   0  0  0  0  0  0  0  0  0  0  0  0
    7.0534   -4.0899   23.8749 C   0  0  0  0  0  0  0  0  0  0  0  0
    6.5273   -3.9203   21.7865 H   0  0  0  0  0  0  0  0  0  0  0  0
    7.8491   -5.9359   21.1565 H   0  0  0  0  0  0  0  0  0  0  0  0
    8.9797   -7.2900   22.8953 H   0  0  0  0  0  0  0  0  0  0  0  0
    8.7814   -6.6669   25.3196 H   0  0  0  0  0  0  0  0  0  0  0  0
    5.6487   -2.4671   24.2703 H   0  0  0  0  0  0  0  0  0  0  0  0
    7.3321   -0.7852   24.8565 H   0  0  0  0  0  0  0  0  0  0  0  0
    8.6485   -1.9441   24.6733 H   0  0  0  0  0  0  0  0  0  0  0  0
   10.0669   -2.8614   21.1003 H   0  0  0  0  0  0  0  0  0  0  0  0
    9.8182   -3.1675   22.8286 H   0  0  0  0  0  0  0  0  0  0  0  0
   11.0524   -1.1229   23.4337 H   0  0  0  0  0  0  0  0  0  0  0  0
   10.8840   -0.4959   21.7876 H   0  0  0  0  0  0  0  0  0  0  0  0
   12.6419   -2.9083   22.4973 H   0  0  0  0  0  0  0  0  0  0  0  0
   12.5409   -2.1217   20.9276 H   0  0  0  0  0  0  0  0  0  0  0  0
   13.2458   -1.2580   22.2956 H   0  0  0  0  0  0  0  0  0  0  0  0
  1  2  1  0
  2  3  1  0
  3  4  1  0
  4  5  1  0
  5  6  2  0
  6  7  1  0
  7  8  2  0
  8  9  1  0
  9 10  2  0
 10 11  1  0
 11 12  2  0
 12 13  1  0
 10 14  1  0
  9 15  1  0
  8 16  1  0
  6 17  1  0
 17 18  2  0
 18 19  1  0
 19 20  1  0
 20 21  1  0
 21 22  1  0
 22 23  2  0
 22 24  1  0
 24 25  2  0
 25 26  1  0
 26 27  2  0
 27 28  1  0
 28 29  2  0
 28 30  1  0
 27 31  1  0
 26 32  1  0
 25 33  1  0
 20 34  1  0
 19 35  1  0
 19 36  1  0
  3 37  1  0
  3 38  1  0
  2 39  1  0
  2 40  1  0
  1 41  1  0
  1 42  1  0
  1 43  1  0
 18  4  1  0
 29 20  1  0
 12  7  1  0
 29 24  1  0
M  END
>  <cnnaffinity>  (1) 
-6.07493

>  <filename>  (1) 
CCCn1nc(-c2cccnc2)nc1CC1OC(=O)c2ccccc21

$$$$
