
     RDKit          3D

 42 45  0  0  0  0  0  0  0  0999 V2000
   12.4406   -1.8643   21.8934 C   0  0  0  0  0  0  0  0  0  0  0  0
   11.0526   -1.3659   22.2948 C   0  0  0  0  0  0  0  0  0  0  0  0
    9.9339   -2.3747   21.9795 C   0  0  0  0  0  0  0  0  0  0  0  0
    8.6171   -1.7539   21.8350 N   0  0  0  0  0  0  0  0  0  0  0  0
    8.2617   -1.2931   20.6163 N   0  0  0  0  0  0  0  0  0  0  0  0
    7.1612   -0.6020   20.8571 C   0  0  0  0  0  0  0  0  0  0  0  0
    6.4513    0.0978   19.7865 C   0  0  0  0  0  0  0  0  0  0  0  0
    5.2438    0.7916   19.9672 C   0  0  0  0  0  0  0  0  0  0  0  0
    4.7022    1.4497   18.8630 C   0  0  0  0  0  0  0  0  0  0  0  0
    5.3766    1.3899   17.6370 C   0  0  0  0  0  0  0  0  0  0  0  0
    6.5204    0.7136   17.4532 N   0  0  0  0  0  0  0  0  0  0  0  0
    7.0372    0.0877   18.5121 C   0  0  0  0  0  0  0  0  0  0  0  0
    7.9702   -0.4485   18.3481 H   0  0  0  0  0  0  0  0  0  0  0  0
    4.9817    1.9023   16.7630 H   0  0  0  0  0  0  0  0  0  0  0  0
    3.7808    2.0188   18.9361 H   0  0  0  0  0  0  0  0  0  0  0  0
    4.7530    0.8176   20.9437 H   0  0  0  0  0  0  0  0  0  0  0  0
    6.8053   -0.5628   22.1596 N   0  0  0  0  0  0  0  0  0  0  0  0
    7.7264   -1.3052   22.7518 C   0  0  0  0  0  0  0  0  0  0  0  0
    7.8287   -1.6215   24.1989 C   0  0  0  0  0  0  0  0  0  0  0  0
    8.0162   -0.5811   25.0891 C   0  0  0  0  0  0  0  0  0  0  0  0
    8.2517   -0.8279   26.4622 C   0  0  0  0  0  0  0  0  0  0  0  0
    8.2123   -2.1118   26.9585 C   0  0  0  0  0  0  0  0  0  0  0  0
    7.9072   -3.2048   26.1067 C   0  0  0  0  0  0  0  0  0  0  0  0
    7.7063   -4.5189   26.6008 C   0  0  0  0  0  0  0  0  0  0  0  0
    7.3150   -5.4993   25.7200 C   0  0  0  0  0  0  0  0  0  0  0  0
    6.9669   -6.7256   26.1409 O   0  0  0  0  0  0  0  0  0  0  0  0
    7.1869   -6.7895   27.0723 H   0  0  0  0  0  0  0  0  0  0  0  0
    7.2120   -5.3459   24.3983 N   0  0  0  0  0  0  0  0  0  0  0  0
    7.4303   -4.1316   23.9168 C   0  0  0  0  0  0  0  0  0  0  0  0
    7.7411   -2.9785   24.7004 C   0  0  0  0  0  0  0  0  0  0  0  0
    7.3441   -4.0137   22.8363 H   0  0  0  0  0  0  0  0  0  0  0  0
    7.7990   -4.7379   27.6595 H   0  0  0  0  0  0  0  0  0  0  0  0
    8.3868   -2.3026   28.0061 H   0  0  0  0  0  0  0  0  0  0  0  0
    8.4553    0.0089   27.1232 H   0  0  0  0  0  0  0  0  0  0  0  0
    7.9776    0.4440   24.7192 H   0  0  0  0  0  0  0  0  0  0  0  0
   10.0839   -2.8585   21.0155 H   0  0  0  0  0  0  0  0  0  0  0  0
    9.8802   -3.1438   22.7567 H   0  0  0  0  0  0  0  0  0  0  0  0
   11.0449   -1.1506   23.3696 H   0  0  0  0  0  0  0  0  0  0  0  0
   10.8315   -0.4253   21.7799 H   0  0  0  0  0  0  0  0  0  0  0  0
   12.5223   -2.0224   20.8094 H   0  0  0  0  0  0  0  0  0  0  0  0
   13.2264   -1.1532   22.1788 H   0  0  0  0  0  0  0  0  0  0  0  0
   12.6564   -2.8164   22.3877 H   0  0  0  0  0  0  0  0  0  0  0  0
  1  2  1  0
  2  3  1  0
  3  4  1  0
  4  5  1  0
  5  6  2  0
  6  7  1  0
  7  8  2  0
  8  9  1  0
  9 10  2  0
 10 11  1  0
 11 12  2  0
 12 13  1  0
 10 14  1  0
  9 15  1  0
  8 16  1  0
  6 17  1  0
 17 18  2  0
 18 19  1  0
 19 20  2  0
 20 21  1  0
 21 22  2  0
 22 23  1  0
 23 24  2  0
 24 25  1  0
 25 26  1  0
 26 27  1  0
 25 28  2  0
 28 29  1  0
 29 30  2  0
 29 31  1  0
 24 32  1  0
 22 33  1  0
 21 34  1  0
 20 35  1  0
  3 36  1  0
  3 37  1  0
  2 38  1  0
  2 39  1  0
  1 40  1  0
  1 41  1  0
  1 42  1  0
 18  4  1  0
 30 19  1  0
 12  7  1  0
 30 23  1  0
M  END
>  <cnnaffinity>  (1) 
-6.25892

>  <filename>  (1) 
CCCn1nc(-c2cccnc2)nc1-c1cccc2cc(O)ncc12

$$$$
