
     RDKit          3D

 42 45  0  0  0  0  0  0  0  0999 V2000
   11.4021   -0.3013   21.7696 C   0  0  0  0  0  0  0  0  0  0  0  0
   11.0315   -1.6180   22.4407 C   0  0  0  0  0  0  0  0  0  0  0  0
    9.9494   -2.4002   21.6876 C   0  0  0  0  0  0  0  0  0  0  0  0
    8.6948   -1.6888   21.4588 N   0  0  0  0  0  0  0  0  0  0  0  0
    8.4336   -1.1760   20.2321 N   0  0  0  0  0  0  0  0  0  0  0  0
    7.2568   -0.6042   20.3929 C   0  0  0  0  0  0  0  0  0  0  0  0
    6.5527    0.1386   19.3530 C   0  0  0  0  0  0  0  0  0  0  0  0
    5.3539    0.8088   19.6378 C   0  0  0  0  0  0  0  0  0  0  0  0
    4.7371    1.5109   18.6100 C   0  0  0  0  0  0  0  0  0  0  0  0
    5.3405    1.5221   17.3469 C   0  0  0  0  0  0  0  0  0  0  0  0
    6.4823    0.8762   17.0624 N   0  0  0  0  0  0  0  0  0  0  0  0
    7.0746    0.2053   18.0549 C   0  0  0  0  0  0  0  0  0  0  0  0
    8.0103   -0.2981   17.8119 H   0  0  0  0  0  0  0  0  0  0  0  0
    4.8890    2.0729   16.5280 H   0  0  0  0  0  0  0  0  0  0  0  0
    3.8137    2.0515   18.7829 H   0  0  0  0  0  0  0  0  0  0  0  0
    4.9416    0.7707   20.6486 H   0  0  0  0  0  0  0  0  0  0  0  0
    6.7527   -0.7058   21.6463 N   0  0  0  0  0  0  0  0  0  0  0  0
    7.6686   -1.3934   22.2958 C   0  0  0  0  0  0  0  0  0  0  0  0
    7.6632   -1.6525   23.7449 C   0  0  0  0  0  0  0  0  0  0  0  0
    7.6475   -0.5739   24.5667 C   0  0  0  0  0  0  0  0  0  0  0  0
    7.8695   -0.7413   25.9044 N   0  0  0  0  0  0  0  0  0  0  0  0
    8.1069   -1.9486   26.5317 C   0  0  0  0  0  0  0  0  0  0  0  0
    8.4617   -1.9011   27.6957 O   0  0  0  0  0  0  0  0  0  0  0  0
    7.8525   -3.1437   25.7015 C   0  0  0  0  0  0  0  0  0  0  0  0
    7.7339   -4.4018   26.3091 C   0  0  0  0  0  0  0  0  0  0  0  0
    7.4628   -5.5196   25.5422 C   0  0  0  0  0  0  0  0  0  0  0  0
    7.3030   -5.3965   24.1461 C   0  0  0  0  0  0  0  0  0  0  0  0
    7.3980   -4.1607   23.5303 C   0  0  0  0  0  0  0  0  0  0  0  0
    7.6627   -2.9973   24.3031 C   0  0  0  0  0  0  0  0  0  0  0  0
    7.2596   -4.0694   22.4544 H   0  0  0  0  0  0  0  0  0  0  0  0
    7.0913   -6.2780   23.5482 H   0  0  0  0  0  0  0  0  0  0  0  0
    7.3704   -6.4924   26.0156 H   0  0  0  0  0  0  0  0  0  0  0  0
    7.8372   -4.4814   27.3881 H   0  0  0  0  0  0  0  0  0  0  0  0
    8.0606   -0.0018   26.5665 H   0  0  0  0  0  0  0  0  0  0  0  0
    7.4167    0.4259   24.2071 H   0  0  0  0  0  0  0  0  0  0  0  0
   10.3123   -2.6424   20.6869 H   0  0  0  0  0  0  0  0  0  0  0  0
    9.7121   -3.3205   22.2325 H   0  0  0  0  0  0  0  0  0  0  0  0
   11.9173   -2.2662   22.4797 H   0  0  0  0  0  0  0  0  0  0  0  0
   10.7165   -1.4529   23.4760 H   0  0  0  0  0  0  0  0  0  0  0  0
   12.2390    0.1953   22.2713 H   0  0  0  0  0  0  0  0  0  0  0  0
   11.7093   -0.4831   20.7365 H   0  0  0  0  0  0  0  0  0  0  0  0
   10.5593    0.3969   21.7501 H   0  0  0  0  0  0  0  0  0  0  0  0
  1  2  1  0
  2  3  1  0
  3  4  1  0
  4  5  1  0
  5  6  2  0
  6  7  1  0
  7  8  2  0
  8  9  1  0
  9 10  2  0
 10 11  1  0
 11 12  2  0
 12 13  1  0
 10 14  1  0
  9 15  1  0
  8 16  1  0
  6 17  1  0
 17 18  2  0
 18 19  1  0
 19 20  2  0
 20 21  1  0
 21 22  1  0
 22 23  2  0
 22 24  1  0
 24 25  2  0
 25 26  1  0
 26 27  2  0
 27 28  1  0
 28 29  2  0
 28 30  1  0
 27 31  1  0
 26 32  1  0
 25 33  1  0
 21 34  1  0
 20 35  1  0
  3 36  1  0
  3 37  1  0
  2 38  1  0
  2 39  1  0
  1 40  1  0
  1 41  1  0
  1 42  1  0
 18  4  1  0
 29 19  1  0
 12  7  1  0
 29 24  1  0
M  END
>  <cnnaffinity>  (1) 
-6.07191

>  <filename>  (1) 
CCCn1nc(-c2cccnc2)nc1-c1c[nH]c(=O)c2ccccc12

$$$$
