
     RDKit          3D

 37 39  0  0  0  0  0  0  0  0999 V2000
    6.4772   -4.3015   21.1348 C   0  0  0  0  0  0  0  0  0  0  0  0
    6.2107   -2.8212   21.3975 C   0  0  0  0  0  0  0  0  0  0  0  0
    7.4182   -1.9577   21.0420 C   0  0  0  0  0  0  0  0  0  0  0  0
    7.2011   -0.5098   21.1781 N   0  0  0  0  0  0  0  0  0  0  0  0
    7.3463    0.0312   22.4670 C   0  0  0  0  0  0  0  0  0  0  0  0
    7.3279   -0.6916   23.4521 O   0  0  0  0  0  0  0  0  0  0  0  0
    7.5798    1.5103   22.5759 C   0  0  0  0  0  0  0  0  0  0  0  0
    8.1983    2.2741   21.6362 C   0  0  0  0  0  0  0  0  0  0  0  0
    8.3334    3.9377   22.0652 S   0  0  0  0  0  0  0  0  0  0  0  0
    7.4638    3.6744   23.5490 C   0  0  0  0  0  0  0  0  0  0  0  0
    7.0323    4.6557   24.4630 C   0  0  0  0  0  0  0  0  0  0  0  0
    6.2881    4.2482   25.5616 C   0  0  0  0  0  0  0  0  0  0  0  0
    5.9866    2.8839   25.7676 C   0  0  0  0  0  0  0  0  0  0  0  0
    6.4353    1.9152   24.8757 C   0  0  0  0  0  0  0  0  0  0  0  0
    7.1568    2.3059   23.7248 C   0  0  0  0  0  0  0  0  0  0  0  0
    6.2443    0.8618   25.0485 H   0  0  0  0  0  0  0  0  0  0  0  0
    5.3831    2.5914   26.6217 H   0  0  0  0  0  0  0  0  0  0  0  0
    5.9180    4.9870   26.2686 H   0  0  0  0  0  0  0  0  0  0  0  0
    7.2496    5.7108   24.2983 H   0  0  0  0  0  0  0  0  0  0  0  0
    8.5769    1.9589   20.6712 H   0  0  0  0  0  0  0  0  0  0  0  0
    6.5772    0.1485   20.0605 C   0  0  0  0  0  0  0  0  0  0  0  0
    5.3527    0.8307   20.1815 C   0  0  0  0  0  0  0  0  0  0  0  0
    4.7818    1.3920   19.0317 C   0  0  0  0  0  0  0  0  0  0  0  0
    5.4666    1.3237   17.8147 C   0  0  0  0  0  0  0  0  0  0  0  0
    6.6425    0.6903   17.6769 N   0  0  0  0  0  0  0  0  0  0  0  0
    7.1546    0.1049   18.7655 C   0  0  0  0  0  0  0  0  0  0  0  0
    8.0805   -0.4479   18.6169 H   0  0  0  0  0  0  0  0  0  0  0  0
    5.0544    1.7791   16.9152 H   0  0  0  0  0  0  0  0  0  0  0  0
    3.8091    1.8710   19.0625 H   0  0  0  0  0  0  0  0  0  0  0  0
    4.8635    0.9145   21.1524 H   0  0  0  0  0  0  0  0  0  0  0  0
    7.6794   -2.1095   19.9946 H   0  0  0  0  0  0  0  0  0  0  0  0
    8.2775   -2.2387   21.6537 H   0  0  0  0  0  0  0  0  0  0  0  0
    5.3626   -2.4841   20.7996 H   0  0  0  0  0  0  0  0  0  0  0  0
    5.9467   -2.6609   22.4480 H   0  0  0  0  0  0  0  0  0  0  0  0
    5.6001   -4.9083   21.3747 H   0  0  0  0  0  0  0  0  0  0  0  0
    6.7118   -4.4854   20.0804 H   0  0  0  0  0  0  0  0  0  0  0  0
    7.3216   -4.6620   21.7341 H   0  0  0  0  0  0  0  0  0  0  0  0
  1  2  1  0
  2  3  1  0
  3  4  1  0
  4  5  1  0
  5  6  2  0
  5  7  1  0
  7  8  2  0
  8  9  1  0
  9 10  1  0
 10 11  2  0
 11 12  1  0
 12 13  2  0
 13 14  1  0
 14 15  2  0
 14 16  1  0
 13 17  1  0
 12 18  1  0
 11 19  1  0
  8 20  1  0
  4 21  1  0
 21 22  2  0
 22 23  1  0
 23 24  2  0
 24 25  1  0
 25 26  2  0
 26 27  1  0
 24 28  1  0
 23 29  1  0
 22 30  1  0
  3 31  1  0
  3 32  1  0
  2 33  1  0
  2 34  1  0
  1 35  1  0
  1 36  1  0
  1 37  1  0
 15  7  1  0
 26 21  1  0
 15 10  1  0
M  END
>  <cnnaffinity>  (1) 
-5.61625

>  <filename>  (1) 
CCCN(C(=O)c1csc2ccccc12)c1cccnc1

$$$$
