
     RDKit          3D

 30 31  0  0  0  0  0  0  0  0999 V2000
    4.9351    1.9347   16.9747 H   0  0  0  0  0  0  0  0  0  0  0  0
    5.3652    1.3297   17.7699 C   0  0  0  0  0  0  0  0  0  0  0  0
    6.4953    0.6711   17.4578 N   0  0  0  0  0  0  0  0  0  0  0  0
    7.0690   -0.0514   18.4231 C   0  0  0  0  0  0  0  0  0  0  0  0
    7.9979   -0.5677   18.1754 H   0  0  0  0  0  0  0  0  0  0  0  0
    6.5525   -0.1710   19.7276 C   0  0  0  0  0  0  0  0  0  0  0  0
    7.3377   -0.8220   20.7245 N   0  0  0  0  0  0  0  0  0  0  0  0
    8.6062   -0.3339   21.0596 C   0  0  0  0  0  0  0  0  0  0  0  0
    9.0632    0.4941   20.5450 H   0  0  0  0  0  0  0  0  0  0  0  0
    9.0861   -1.1012   22.0476 C   0  0  0  0  0  0  0  0  0  0  0  0
   10.2726   -1.0532   22.7656 N   0  0  0  0  0  0  0  0  0  0  0  0
   10.5780   -2.0026   22.9578 H   0  0  0  0  0  0  0  0  0  0  0  0
   11.2826   -0.2276   22.0800 C   0  0  0  0  0  0  0  0  0  0  0  0
   10.8545    0.7810   21.9643 H   0  0  0  0  0  0  0  0  0  0  0  0
   11.4713   -0.6252   21.0647 H   0  0  0  0  0  0  0  0  0  0  0  0
   12.6136   -0.1169   22.8106 C   0  0  0  0  0  0  0  0  0  0  0  0
   13.2530    0.5415   22.2036 H   0  0  0  0  0  0  0  0  0  0  0  0
   13.0928   -1.1056   22.8055 H   0  0  0  0  0  0  0  0  0  0  0  0
   12.5174    0.4311   24.2325 C   0  0  0  0  0  0  0  0  0  0  0  0
   13.5017    0.3831   24.7135 H   0  0  0  0  0  0  0  0  0  0  0  0
   11.8065   -0.1724   24.8098 H   0  0  0  0  0  0  0  0  0  0  0  0
   12.1746    1.4778   24.2460 H   0  0  0  0  0  0  0  0  0  0  0  0
    8.1312   -2.0521   22.3126 N   0  0  0  0  0  0  0  0  0  0  0  0
    8.1086   -2.6980   23.0771 H   0  0  0  0  0  0  0  0  0  0  0  0
    7.0202   -1.8937   21.5315 C   0  0  0  0  0  0  0  0  0  0  0  0
    5.6662   -2.8581   21.6091 S   0  0  0  0  0  0  0  0  0  0  0  0
    5.3466    0.4725   20.0332 C   0  0  0  0  0  0  0  0  0  0  0  0
    4.9040    0.3858   21.0268 H   0  0  0  0  0  0  0  0  0  0  0  0
    4.7589    1.2543   19.0293 C   0  0  0  0  0  0  0  0  0  0  0  0
    3.8552    1.8250   19.2145 H   0  0  0  0  0  0  0  0  0  0  0  0
  1  2  1  0
  2  3  2  0
  3  4  1  0
  4  5  1  0
  4  6  2  0
  6  7  1  0
  7  8  1  0
  8  9  1  0
  8 10  2  0
 10 11  1  0
 11 12  1  0
 11 13  1  0
 13 14  1  0
 13 15  1  0
 13 16  1  0
 16 17  1  0
 16 18  1  0
 16 19  1  0
 19 20  1  0
 19 21  1  0
 19 22  1  0
 10 23  1  0
 23 24  1  0
 23 25  1  0
 25 26  2  0
  6 27  1  0
 27 28  1  0
 27 29  2  0
 29 30  1  0
 29  2  1  0
 25  7  1  0
M  END
>  <cnnaffinity>  (1) 
-4.92186

>  <filename>  (1) 
CCCNc1cn(-c2cccnc2)c(=S)[nH]1

$$$$
