
     RDKit          3D

 40 42  0  0  0  0  0  0  0  0999 V2000
   11.6492   -0.6043   21.7549 C   0  0  0  0  0  0  0  0  0  0  0  0
   11.1889   -1.6852   22.7258 C   0  0  0  0  0  0  0  0  0  0  0  0
   10.0244   -2.5123   22.1880 C   0  0  0  0  0  0  0  0  0  0  0  0
    8.7824   -1.8034   21.9730 N   0  0  0  0  0  0  0  0  0  0  0  0
    8.4821   -1.3389   20.7427 N   0  0  0  0  0  0  0  0  0  0  0  0
    7.3608   -0.6784   20.9526 C   0  0  0  0  0  0  0  0  0  0  0  0
    6.6480    0.0111   19.8979 C   0  0  0  0  0  0  0  0  0  0  0  0
    5.4325    0.6558   20.1563 C   0  0  0  0  0  0  0  0  0  0  0  0
    4.8077    1.3043   19.0989 C   0  0  0  0  0  0  0  0  0  0  0  0
    5.4198    1.2805   17.8389 C   0  0  0  0  0  0  0  0  0  0  0  0
    6.5809    0.6582   17.5833 N   0  0  0  0  0  0  0  0  0  0  0  0
    7.1841    0.0426   18.6034 C   0  0  0  0  0  0  0  0  0  0  0  0
    8.1352   -0.4392   18.3776 H   0  0  0  0  0  0  0  0  0  0  0  0
    4.9591    1.7866   16.9955 H   0  0  0  0  0  0  0  0  0  0  0  0
    3.8739    1.8385   19.2388 H   0  0  0  0  0  0  0  0  0  0  0  0
    5.0057    0.6449   21.1628 H   0  0  0  0  0  0  0  0  0  0  0  0
    6.9247   -0.6948   22.2349 N   0  0  0  0  0  0  0  0  0  0  0  0
    7.8331   -1.4234   22.8506 C   0  0  0  0  0  0  0  0  0  0  0  0
    7.7585   -1.8843   24.2770 C   0  0  0  0  0  0  0  0  0  0  0  0
    6.7844   -3.0825   24.4879 C   0  0  0  0  0  0  0  0  0  0  0  0
    7.2576   -4.3417   23.8108 C   0  0  0  0  0  0  0  0  0  0  0  0
    8.1469   -5.1934   24.4631 C   0  0  0  0  0  0  0  0  0  0  0  0
    8.5957   -6.2809   23.7319 C   0  0  0  0  0  0  0  0  0  0  0  0
    8.1521   -6.5530   22.4996 N   0  0  0  0  0  0  0  0  0  0  0  0
    7.3035   -5.6672   21.9671 C   0  0  0  0  0  0  0  0  0  0  0  0
    6.8544   -4.5597   22.5479 N   0  0  0  0  0  0  0  0  0  0  0  0
    6.9729   -5.8651   20.9446 H   0  0  0  0  0  0  0  0  0  0  0  0
    9.3647   -6.9432   24.1336 H   0  0  0  0  0  0  0  0  0  0  0  0
    8.4679   -5.0081   25.4843 H   0  0  0  0  0  0  0  0  0  0  0  0
    6.6627   -3.2714   25.5615 H   0  0  0  0  0  0  0  0  0  0  0  0
    5.8027   -2.8197   24.0784 H   0  0  0  0  0  0  0  0  0  0  0  0
    8.7648   -2.1464   24.6357 H   0  0  0  0  0  0  0  0  0  0  0  0
    7.4347   -1.0205   24.8672 H   0  0  0  0  0  0  0  0  0  0  0  0
   10.2673   -2.8735   21.1888 H   0  0  0  0  0  0  0  0  0  0  0  0
    9.8313   -3.3580   22.8537 H   0  0  0  0  0  0  0  0  0  0  0  0
   11.9891   -2.4220   22.8672 H   0  0  0  0  0  0  0  0  0  0  0  0
   10.9639   -1.2682   23.7196 H   0  0  0  0  0  0  0  0  0  0  0  0
   10.8459    0.0946   21.4934 H   0  0  0  0  0  0  0  0  0  0  0  0
   11.9901   -1.0717   20.8243 H   0  0  0  0  0  0  0  0  0  0  0  0
   12.4849   -0.0312   22.1672 H   0  0  0  0  0  0  0  0  0  0  0  0
  1  2  1  0
  2  3  1  0
  3  4  1  0
  4  5  1  0
  5  6  2  0
  6  7  1  0
  7  8  2  0
  8  9  1  0
  9 10  2  0
 10 11  1  0
 11 12  2  0
 12 13  1  0
 10 14  1  0
  9 15  1  0
  8 16  1  0
  6 17  1  0
 17 18  2  0
 18 19  1  0
 19 20  1  0
 20 21  1  0
 21 22  2  0
 22 23  1  0
 23 24  2  0
 24 25  1  0
 25 26  2  0
 25 27  1  0
 23 28  1  0
 22 29  1  0
 20 30  1  0
 20 31  1  0
 19 32  1  0
 19 33  1  0
  3 34  1  0
  3 35  1  0
  2 36  1  0
  2 37  1  0
  1 38  1  0
  1 39  1  0
  1 40  1  0
 18  4  1  0
 26 21  1  0
 12  7  1  0
M  END
>  <cnnaffinity>  (1) 
-6.04317

>  <filename>  (1) 
CCCn1nc(-c2cccnc2)nc1CCc1ccncn1

$$$$
