
     RDKit          3D

 44 45  0  0  0  0  0  0  0  0999 V2000
    9.7671    1.5119   22.9484 C   0  0  0  0  0  0  0  0  0  0  0  0
    8.4331    1.0005   22.3861 C   0  0  0  0  0  0  0  0  0  0  0  0
    8.6053   -0.1702   21.4084 C   0  0  0  0  0  0  0  0  0  0  0  0
    7.3266   -0.7316   20.9585 N   0  0  0  0  0  0  0  0  0  0  0  0
    6.6334   -1.7839   21.5773 C   0  0  0  0  0  0  0  0  0  0  0  0
    5.6472   -2.2777   21.0601 O   0  0  0  0  0  0  0  0  0  0  0  0
    7.2501   -2.4052   22.8635 C   0  0  0  0  0  0  0  0  0  0  0  0
    8.1323   -3.6091   22.4929 C   0  0  0  0  0  0  0  0  0  0  0  0
    8.9277   -3.3355   21.7906 H   0  0  0  0  0  0  0  0  0  0  0  0
    8.5948   -4.0610   23.3793 H   0  0  0  0  0  0  0  0  0  0  0  0
    7.4891   -4.3627   22.0255 H   0  0  0  0  0  0  0  0  0  0  0  0
    6.1456   -2.8500   23.6519 O   0  0  0  0  0  0  0  0  0  0  0  0
    6.3896   -3.2448   24.9301 C   0  0  0  0  0  0  0  0  0  0  0  0
    6.4043   -4.6160   25.2015 C   0  0  0  0  0  0  0  0  0  0  0  0
    6.5934   -5.0815   26.5039 C   0  0  0  0  0  0  0  0  0  0  0  0
    6.7609   -4.1621   27.5461 C   0  0  0  0  0  0  0  0  0  0  0  0
    6.7138   -2.7937   27.2802 C   0  0  0  0  0  0  0  0  0  0  0  0
    6.5161   -2.3222   25.9759 C   0  0  0  0  0  0  0  0  0  0  0  0
    6.4991   -0.8321   25.7541 C   0  0  0  0  0  0  0  0  0  0  0  0
    5.7532   -0.4140   24.7302 F   0  0  0  0  0  0  0  0  0  0  0  0
    7.7508   -0.3617   25.5417 F   0  0  0  0  0  0  0  0  0  0  0  0
    6.0335   -0.1844   26.8443 F   0  0  0  0  0  0  0  0  0  0  0  0
    6.7880   -2.0455   28.0616 H   0  0  0  0  0  0  0  0  0  0  0  0
    6.9171   -4.5137   28.5596 H   0  0  0  0  0  0  0  0  0  0  0  0
    6.5882   -6.1473   26.7244 H   0  0  0  0  0  0  0  0  0  0  0  0
    6.2462   -5.2844   24.3601 H   0  0  0  0  0  0  0  0  0  0  0  0
    7.7988   -1.6343   23.4173 H   0  0  0  0  0  0  0  0  0  0  0  0
    6.6646   -0.0191   19.8959 C   0  0  0  0  0  0  0  0  0  0  0  0
    5.4506    0.6332   20.1470 C   0  0  0  0  0  0  0  0  0  0  0  0
    4.8183    1.3133   19.1003 C   0  0  0  0  0  0  0  0  0  0  0  0
    5.4171    1.3063   17.8359 C   0  0  0  0  0  0  0  0  0  0  0  0
    6.5803    0.6872   17.5684 N   0  0  0  0  0  0  0  0  0  0  0  0
    7.1891    0.0591   18.5843 C   0  0  0  0  0  0  0  0  0  0  0  0
    8.1340   -0.4303   18.3449 H   0  0  0  0  0  0  0  0  0  0  0  0
    4.9430    1.8102   16.9964 H   0  0  0  0  0  0  0  0  0  0  0  0
    3.8800    1.8410   19.2498 H   0  0  0  0  0  0  0  0  0  0  0  0
    5.0213    0.5856   21.1493 H   0  0  0  0  0  0  0  0  0  0  0  0
    9.2223   -0.9688   21.8429 H   0  0  0  0  0  0  0  0  0  0  0  0
    9.1285    0.1749   20.5071 H   0  0  0  0  0  0  0  0  0  0  0  0
    7.7731    0.6984   23.2127 H   0  0  0  0  0  0  0  0  0  0  0  0
    7.9005    1.8000   21.8549 H   0  0  0  0  0  0  0  0  0  0  0  0
    9.6153    2.3451   23.6426 H   0  0  0  0  0  0  0  0  0  0  0  0
   10.4459    1.8678   22.1636 H   0  0  0  0  0  0  0  0  0  0  0  0
   10.2919    0.7232   23.5018 H   0  0  0  0  0  0  0  0  0  0  0  0
  1  2  1  0
  2  3  1  0
  3  4  1  0
  4  5  1  0
  5  6  2  0
  5  7  1  0
  7  8  1  0
  8  9  1  0
  8 10  1  0
  8 11  1  0
  7 12  1  0
 12 13  1  0
 13 14  2  0
 14 15  1  0
 15 16  2  0
 16 17  1  0
 17 18  2  0
 18 19  1  0
 19 20  1  0
 19 21  1  0
 19 22  1  0
 17 23  1  0
 16 24  1  0
 15 25  1  0
 14 26  1  0
  7 27  1  0
  4 28  1  0
 28 29  2  0
 29 30  1  0
 30 31  2  0
 31 32  1  0
 32 33  2  0
 33 34  1  0
 31 35  1  0
 30 36  1  0
 29 37  1  0
  3 38  1  0
  3 39  1  0
  2 40  1  0
  2 41  1  0
  1 42  1  0
  1 43  1  0
  1 44  1  0
 18 13  1  0
 33 28  1  0
M  END
>  <cnnaffinity>  (1) 
-5.54065

>  <filename>  (1) 
CCCN(C(=O)C(C)Oc1ccccc1C(F)(F)F)c1cccnc1

$$$$
