
     RDKit          3D

 42 43  0  0  0  0  0  0  0  0999 V2000
    6.1475   -4.2992   21.4300 C   0  0  0  0  0  0  0  0  0  0  0  0
    6.8439   -3.0778   20.8350 C   0  0  0  0  0  0  0  0  0  0  0  0
    6.6593   -1.7843   21.6181 C   0  0  0  0  0  0  0  0  0  0  0  0
    7.3458   -0.6689   20.9442 N   0  0  0  0  0  0  0  0  0  0  0  0
    8.6670   -0.4324   21.3104 C   0  0  0  0  0  0  0  0  0  0  0  0
    9.3514   -1.2807   21.8662 O   0  0  0  0  0  0  0  0  0  0  0  0
    9.2373    0.9408   21.0027 C   0  0  0  0  0  0  0  0  0  0  0  0
    9.9389    1.5854   22.2054 C   0  0  0  0  0  0  0  0  0  0  0  0
    8.9317    1.9882   23.3015 C   0  0  0  0  0  0  0  0  0  0  0  0
    7.9803    3.0614   22.8359 C   0  0  0  0  0  0  0  0  0  0  0  0
    8.4169    4.3919   22.7224 C   0  0  0  0  0  0  0  0  0  0  0  0
    7.5302    5.3564   22.2487 C   0  0  0  0  0  0  0  0  0  0  0  0
    6.2470    4.9476   21.8775 C   0  0  0  0  0  0  0  0  0  0  0  0
    5.9145    3.5975   21.9958 C   0  0  0  0  0  0  0  0  0  0  0  0
    6.7449    2.6699   22.4870 N   0  0  0  0  0  0  0  0  0  0  0  0
    4.9299    3.2414   21.6893 H   0  0  0  0  0  0  0  0  0  0  0  0
    5.5132    5.6450   21.4898 H   0  0  0  0  0  0  0  0  0  0  0  0
    7.8349    6.3986   22.1608 H   0  0  0  0  0  0  0  0  0  0  0  0
    9.4442    4.6318   22.9813 H   0  0  0  0  0  0  0  0  0  0  0  0
    8.3407    1.1219   23.6099 H   0  0  0  0  0  0  0  0  0  0  0  0
    9.4587    2.3337   24.1983 H   0  0  0  0  0  0  0  0  0  0  0  0
   10.4868    2.4758   21.8669 H   0  0  0  0  0  0  0  0  0  0  0  0
   10.6774    0.8897   22.6226 H   0  0  0  0  0  0  0  0  0  0  0  0
    9.9227    0.7822   20.1757 H   0  0  0  0  0  0  0  0  0  0  0  0
    8.4437    1.5928   20.6261 H   0  0  0  0  0  0  0  0  0  0  0  0
    6.6650    0.0079   19.8739 C   0  0  0  0  0  0  0  0  0  0  0  0
    5.4605    0.6757   20.1368 C   0  0  0  0  0  0  0  0  0  0  0  0
    4.8032    1.3324   19.0895 C   0  0  0  0  0  0  0  0  0  0  0  0
    5.3784    1.3111   17.8154 C   0  0  0  0  0  0  0  0  0  0  0  0
    6.5235    0.6712   17.5323 N   0  0  0  0  0  0  0  0  0  0  0  0
    7.1481    0.0412   18.5387 C   0  0  0  0  0  0  0  0  0  0  0  0
    8.0901   -0.4522   18.2904 H   0  0  0  0  0  0  0  0  0  0  0  0
    4.9014    1.8258   16.9871 H   0  0  0  0  0  0  0  0  0  0  0  0
    3.8606    1.8485   19.2412 H   0  0  0  0  0  0  0  0  0  0  0  0
    5.1009    0.7061   21.1656 H   0  0  0  0  0  0  0  0  0  0  0  0
    7.0739   -1.8828   22.6285 H   0  0  0  0  0  0  0  0  0  0  0  0
    5.5999   -1.5305   21.7301 H   0  0  0  0  0  0  0  0  0  0  0  0
    6.5088   -2.8973   19.8050 H   0  0  0  0  0  0  0  0  0  0  0  0
    7.9207   -3.2686   20.7960 H   0  0  0  0  0  0  0  0  0  0  0  0
    5.0695   -4.1465   21.5514 H   0  0  0  0  0  0  0  0  0  0  0  0
    6.5637   -4.5487   22.4138 H   0  0  0  0  0  0  0  0  0  0  0  0
    6.2883   -5.1694   20.7787 H   0  0  0  0  0  0  0  0  0  0  0  0
  1  2  1  0
  2  3  1  0
  3  4  1  0
  4  5  1  0
  5  6  2  0
  5  7  1  0
  7  8  1  0
  8  9  1  0
  9 10  1  0
 10 11  2  0
 11 12  1  0
 12 13  2  0
 13 14  1  0
 14 15  2  0
 14 16  1  0
 13 17  1  0
 12 18  1  0
 11 19  1  0
  9 20  1  0
  9 21  1  0
  8 22  1  0
  8 23  1  0
  7 24  1  0
  7 25  1  0
  4 26  1  0
 26 27  2  0
 27 28  1  0
 28 29  2  0
 29 30  1  0
 30 31  2  0
 31 32  1  0
 29 33  1  0
 28 34  1  0
 27 35  1  0
  3 36  1  0
  3 37  1  0
  2 38  1  0
  2 39  1  0
  1 40  1  0
  1 41  1  0
  1 42  1  0
 15 10  1  0
 31 26  1  0
M  END
>  <cnnaffinity>  (1) 
-5.01821

>  <filename>  (1) 
CCCN(C(=O)CCCc1ccccn1)c1cccnc1

$$$$
