
     RDKit          3D

 45 48  0  0  0  0  0  0  0  0999 V2000
   11.6197   -0.5839   21.7912 C   0  0  0  0  0  0  0  0  0  0  0  0
   11.1898   -1.6952   22.7468 C   0  0  0  0  0  0  0  0  0  0  0  0
   10.0288   -2.5367   22.2129 C   0  0  0  0  0  0  0  0  0  0  0  0
    8.7812   -1.8247   22.0068 N   0  0  0  0  0  0  0  0  0  0  0  0
    8.5079   -1.3312   20.7775 N   0  0  0  0  0  0  0  0  0  0  0  0
    7.3660   -0.7016   20.9629 C   0  0  0  0  0  0  0  0  0  0  0  0
    6.6576    0.0035   19.9072 C   0  0  0  0  0  0  0  0  0  0  0  0
    5.4397    0.6506   20.1641 C   0  0  0  0  0  0  0  0  0  0  0  0
    4.8126    1.3014   19.1084 C   0  0  0  0  0  0  0  0  0  0  0  0
    5.4172    1.2786   17.8464 C   0  0  0  0  0  0  0  0  0  0  0  0
    6.5793    0.6592   17.5933 N   0  0  0  0  0  0  0  0  0  0  0  0
    7.1882    0.0420   18.6100 C   0  0  0  0  0  0  0  0  0  0  0  0
    8.1375   -0.4375   18.3759 H   0  0  0  0  0  0  0  0  0  0  0  0
    4.9529    1.7799   17.0018 H   0  0  0  0  0  0  0  0  0  0  0  0
    3.8801    1.8353   19.2470 H   0  0  0  0  0  0  0  0  0  0  0  0
    5.0106    0.6383   21.1682 H   0  0  0  0  0  0  0  0  0  0  0  0
    6.8914   -0.7618   22.2314 N   0  0  0  0  0  0  0  0  0  0  0  0
    7.7960   -1.4769   22.8636 C   0  0  0  0  0  0  0  0  0  0  0  0
    7.7551   -1.9203   24.2933 C   0  0  0  0  0  0  0  0  0  0  0  0
    7.0970   -0.8977   25.1367 C   0  0  0  0  0  0  0  0  0  0  0  0
    5.9454   -1.0951   25.7423 N   0  0  0  0  0  0  0  0  0  0  0  0
    5.6452    0.0636   26.3699 N   0  0  0  0  0  0  0  0  0  0  0  0
    4.4251    0.2320   27.1180 C   0  0  0  0  0  0  0  0  0  0  0  0
    3.8840   -0.7173   27.1234 H   0  0  0  0  0  0  0  0  0  0  0  0
    3.8157    1.0141   26.6512 H   0  0  0  0  0  0  0  0  0  0  0  0
    4.6772    0.5337   28.1400 H   0  0  0  0  0  0  0  0  0  0  0  0
    6.6008    1.0149   26.1782 C   0  0  0  0  0  0  0  0  0  0  0  0
    6.7084    2.3505   26.6178 C   0  0  0  0  0  0  0  0  0  0  0  0
    7.8277    3.0598   26.2210 C   0  0  0  0  0  0  0  0  0  0  0  0
    8.8248    2.4729   25.4018 C   0  0  0  0  0  0  0  0  0  0  0  0
    8.7239    1.1690   24.9675 C   0  0  0  0  0  0  0  0  0  0  0  0
    7.5899    0.4200   25.3681 C   0  0  0  0  0  0  0  0  0  0  0  0
    9.4879    0.7304   24.3317 H   0  0  0  0  0  0  0  0  0  0  0  0
    9.6802    3.0679   25.1058 H   0  0  0  0  0  0  0  0  0  0  0  0
    7.9461    4.0890   26.5371 H   0  0  0  0  0  0  0  0  0  0  0  0
    5.9378    2.7965   27.2362 H   0  0  0  0  0  0  0  0  0  0  0  0
    8.7807   -2.0550   24.6596 H   0  0  0  0  0  0  0  0  0  0  0  0
    7.2276   -2.8763   24.3742 H   0  0  0  0  0  0  0  0  0  0  0  0
    9.8531   -3.4004   22.8699 H   0  0  0  0  0  0  0  0  0  0  0  0
   10.2839   -2.8835   21.2124 H   0  0  0  0  0  0  0  0  0  0  0  0
   10.9561   -1.2876   23.7462 H   0  0  0  0  0  0  0  0  0  0  0  0
   12.0096   -2.4156   22.8592 H   0  0  0  0  0  0  0  0  0  0  0  0
   11.9147   -1.0131   20.8255 H   0  0  0  0  0  0  0  0  0  0  0  0
   12.4784   -0.0310   22.1895 H   0  0  0  0  0  0  0  0  0  0  0  0
   10.8047    0.1253   21.6005 H   0  0  0  0  0  0  0  0  0  0  0  0
  1  2  1  0
  2  3  1  0
  3  4  1  0
  4  5  1  0
  5  6  2  0
  6  7  1  0
  7  8  2  0
  8  9  1  0
  9 10  2  0
 10 11  1  0
 11 12  2  0
 12 13  1  0
 10 14  1  0
  9 15  1  0
  8 16  1  0
  6 17  1  0
 17 18  2  0
 18 19  1  0
 19 20  1  0
 20 21  2  0
 21 22  1  0
 22 23  1  0
 23 24  1  0
 23 25  1  0
 23 26  1  0
 22 27  1  0
 27 28  2  0
 28 29  1  0
 29 30  2  0
 30 31  1  0
 31 32  2  0
 31 33  1  0
 30 34  1  0
 29 35  1  0
 28 36  1  0
 19 37  1  0
 19 38  1  0
  3 39  1  0
  3 40  1  0
  2 41  1  0
  2 42  1  0
  1 43  1  0
  1 44  1  0
  1 45  1  0
 18  4  1  0
 32 20  1  0
 12  7  1  0
 32 27  1  0
M  END
>  <cnnaffinity>  (1) 
-6.26118

>  <filename>  (1) 
CCCn1nc(-c2cccnc2)nc1Cc1nn(C)c2ccccc12

$$$$
