
     RDKit          3D

 39 42  0  0  0  0  0  0  0  0999 V2000
    8.4025    0.7085   24.9316 C   0  0  0  0  0  0  0  0  0  0  0  0
    8.4910   -0.8101   25.1030 C   0  0  0  0  0  0  0  0  0  0  0  0
    7.3189   -1.4846   24.3770 C   0  0  0  0  0  0  0  0  0  0  0  0
    7.3539   -1.1431   22.9431 N   0  0  0  0  0  0  0  0  0  0  0  0
    6.3285   -0.6251   22.2227 N   0  0  0  0  0  0  0  0  0  0  0  0
    6.8815   -0.3793   21.0600 C   0  0  0  0  0  0  0  0  0  0  0  0
    6.2530    0.2234   19.9084 C   0  0  0  0  0  0  0  0  0  0  0  0
    5.0320    0.9080   19.9345 C   0  0  0  0  0  0  0  0  0  0  0  0
    4.6019    1.4733   18.7346 C   0  0  0  0  0  0  0  0  0  0  0  0
    5.3951    1.3483   17.5852 C   0  0  0  0  0  0  0  0  0  0  0  0
    6.5616    0.6829   17.5668 N   0  0  0  0  0  0  0  0  0  0  0  0
    6.9711    0.1354   18.7154 C   0  0  0  0  0  0  0  0  0  0  0  0
    7.9133   -0.4024   18.7115 H   0  0  0  0  0  0  0  0  0  0  0  0
    5.0565    1.8158   16.6693 H   0  0  0  0  0  0  0  0  0  0  0  0
    3.6701    2.0293   18.6829 H   0  0  0  0  0  0  0  0  0  0  0  0
    4.4531    1.0214   20.8534 H   0  0  0  0  0  0  0  0  0  0  0  0
    8.2139   -0.7139   20.9662 N   0  0  0  0  0  0  0  0  0  0  0  0
    8.4793   -1.1616   22.1443 C   0  0  0  0  0  0  0  0  0  0  0  0
    9.8120   -1.5881   22.4177 C   0  0  0  0  0  0  0  0  0  0  0  0
   10.9330   -0.8344   22.3111 C   0  0  0  0  0  0  0  0  0  0  0  0
   11.2170    0.5894   22.1126 C   0  0  0  0  0  0  0  0  0  0  0  0
    9.8234    1.8916   22.1891 Br  0  0  0  0  0  0  0  0  0  0  0  0
   12.5348    0.9810   21.9933 C   0  0  0  0  0  0  0  0  0  0  0  0
   13.6182   -0.0187   22.0732 C   0  0  0  0  0  0  0  0  0  0  0  0
   13.3010   -1.3579   22.2376 C   0  0  0  0  0  0  0  0  0  0  0  0
   11.9700   -1.7428   22.4253 N   0  0  0  0  0  0  0  0  0  0  0  0
   11.5294   -2.9921   22.7638 N   0  0  0  0  0  0  0  0  0  0  0  0
   10.2232   -2.9223   22.7267 C   0  0  0  0  0  0  0  0  0  0  0  0
    9.5467   -3.7560   22.8972 H   0  0  0  0  0  0  0  0  0  0  0  0
   14.0760   -2.1146   22.2458 H   0  0  0  0  0  0  0  0  0  0  0  0
   14.6570    0.2971   21.9851 H   0  0  0  0  0  0  0  0  0  0  0  0
   12.7616    2.0319   21.8327 H   0  0  0  0  0  0  0  0  0  0  0  0
    7.3708   -2.5682   24.4979 H   0  0  0  0  0  0  0  0  0  0  0  0
    6.3700   -1.1666   24.8192 H   0  0  0  0  0  0  0  0  0  0  0  0
    9.4366   -1.1723   24.6870 H   0  0  0  0  0  0  0  0  0  0  0  0
    8.4790   -1.0749   26.1662 H   0  0  0  0  0  0  0  0  0  0  0  0
    7.4822    1.0856   25.3910 H   0  0  0  0  0  0  0  0  0  0  0  0
    8.3863    0.9677   23.8663 H   0  0  0  0  0  0  0  0  0  0  0  0
    9.2644    1.1958   25.3993 H   0  0  0  0  0  0  0  0  0  0  0  0
  1  2  1  0
  2  3  1  0
  3  4  1  0
  4  5  1  0
  5  6  2  0
  6  7  1  0
  7  8  2  0
  8  9  1  0
  9 10  2  0
 10 11  1  0
 11 12  2  0
 12 13  1  0
 10 14  1  0
  9 15  1  0
  8 16  1  0
  6 17  1  0
 17 18  2  0
 18 19  1  0
 19 20  2  0
 20 21  1  0
 21 22  1  0
 21 23  2  0
 23 24  1  0
 24 25  2  0
 25 26  1  0
 26 27  1  0
 27 28  2  0
 28 29  1  0
 25 30  1  0
 24 31  1  0
 23 32  1  0
  3 33  1  0
  3 34  1  0
  2 35  1  0
  2 36  1  0
  1 37  1  0
  1 38  1  0
  1 39  1  0
 18  4  1  0
 28 19  1  0
 12  7  1  0
 26 20  1  0
M  END
>  <cnnaffinity>  (1) 
-6.34232

>  <filename>  (1) 
CCCn1nc(-c2cccnc2)nc1-c1cnn2cccc(Br)c12

$$$$
