
     RDKit          3D

 42 45  0  0  0  0  0  0  0  0999 V2000
    7.3624   -4.1922   23.9360 C   0  0  0  0  0  0  0  0  0  0  0  0
    6.6152   -2.9928   24.5208 C   0  0  0  0  0  0  0  0  0  0  0  0
    7.3664   -1.6608   24.3937 C   0  0  0  0  0  0  0  0  0  0  0  0
    7.6525   -1.2444   23.0208 N   0  0  0  0  0  0  0  0  0  0  0  0
    6.6827   -0.6199   22.3155 N   0  0  0  0  0  0  0  0  0  0  0  0
    7.2149   -0.4827   21.1180 C   0  0  0  0  0  0  0  0  0  0  0  0
    6.5239    0.1273   19.9839 C   0  0  0  0  0  0  0  0  0  0  0  0
    5.2847    0.7864   20.0825 C   0  0  0  0  0  0  0  0  0  0  0  0
    4.7617    1.3666   18.9290 C   0  0  0  0  0  0  0  0  0  0  0  0
    5.4788    1.2589   17.7299 C   0  0  0  0  0  0  0  0  0  0  0  0
    6.6462    0.6066   17.6227 N   0  0  0  0  0  0  0  0  0  0  0  0
    7.1519    0.0588   18.7323 C   0  0  0  0  0  0  0  0  0  0  0  0
    8.1073   -0.4562   18.6317 H   0  0  0  0  0  0  0  0  0  0  0  0
    5.1002    1.7207   16.8195 H   0  0  0  0  0  0  0  0  0  0  0  0
    3.8324    1.9259   18.9487 H   0  0  0  0  0  0  0  0  0  0  0  0
    4.7669    0.8519   21.0429 H   0  0  0  0  0  0  0  0  0  0  0  0
    8.4706   -0.9970   21.0026 N   0  0  0  0  0  0  0  0  0  0  0  0
    8.7221   -1.4514   22.2118 C   0  0  0  0  0  0  0  0  0  0  0  0
    9.9376   -2.2254   22.5993 C   0  0  0  0  0  0  0  0  0  0  0  0
   11.1669   -1.5557   22.2644 N   0  0  0  0  0  0  0  0  0  0  0  0
   11.9687   -2.0577   21.3083 N   0  0  0  0  0  0  0  0  0  0  0  0
   13.0898   -1.3779   21.3378 C   0  0  0  0  0  0  0  0  0  0  0  0
   13.0414   -0.3596   22.3388 C   0  0  0  0  0  0  0  0  0  0  0  0
   13.8846    0.6939   22.7728 C   0  0  0  0  0  0  0  0  0  0  0  0
   13.4278    1.5101   23.7870 C   0  0  0  0  0  0  0  0  0  0  0  0
   12.1971    1.2562   24.4491 C   0  0  0  0  0  0  0  0  0  0  0  0
   11.3518    0.2471   24.0336 C   0  0  0  0  0  0  0  0  0  0  0  0
   11.7732   -0.5351   22.9382 C   0  0  0  0  0  0  0  0  0  0  0  0
   10.3913    0.0864   24.5095 H   0  0  0  0  0  0  0  0  0  0  0  0
   11.9126    1.8662   25.2986 H   0  0  0  0  0  0  0  0  0  0  0  0
   13.9810    2.3960   24.0576 H   0  0  0  0  0  0  0  0  0  0  0  0
   14.8625    0.8436   22.3218 H   0  0  0  0  0  0  0  0  0  0  0  0
   13.9053   -1.6467   20.6778 H   0  0  0  0  0  0  0  0  0  0  0  0
    9.9329   -3.1646   22.0464 H   0  0  0  0  0  0  0  0  0  0  0  0
    9.9506   -2.4443   23.6715 H   0  0  0  0  0  0  0  0  0  0  0  0
    6.7756   -0.8514   24.8314 H   0  0  0  0  0  0  0  0  0  0  0  0
    8.3118   -1.7219   24.9427 H   0  0  0  0  0  0  0  0  0  0  0  0
    6.4271   -3.1476   25.5904 H   0  0  0  0  0  0  0  0  0  0  0  0
    5.6299   -2.8874   24.0539 H   0  0  0  0  0  0  0  0  0  0  0  0
    8.3420   -4.3241   24.4123 H   0  0  0  0  0  0  0  0  0  0  0  0
    6.8034   -5.1271   24.0663 H   0  0  0  0  0  0  0  0  0  0  0  0
    7.5376   -4.0691   22.8617 H   0  0  0  0  0  0  0  0  0  0  0  0
  1  2  1  0
  2  3  1  0
  3  4  1  0
  4  5  1  0
  5  6  2  0
  6  7  1  0
  7  8  2  0
  8  9  1  0
  9 10  2  0
 10 11  1  0
 11 12  2  0
 12 13  1  0
 10 14  1  0
  9 15  1  0
  8 16  1  0
  6 17  1  0
 17 18  2  0
 18 19  1  0
 19 20  1  0
 20 21  1  0
 21 22  2  0
 22 23  1  0
 23 24  2  0
 24 25  1  0
 25 26  2  0
 26 27  1  0
 27 28  2  0
 27 29  1  0
 26 30  1  0
 25 31  1  0
 24 32  1  0
 22 33  1  0
 19 34  1  0
 19 35  1  0
  3 36  1  0
  3 37  1  0
  2 38  1  0
  2 39  1  0
  1 40  1  0
  1 41  1  0
  1 42  1  0
 18  4  1  0
 28 20  1  0
 12  7  1  0
 28 23  1  0
M  END
>  <cnnaffinity>  (1) 
-6.34536

>  <filename>  (1) 
CCCn1nc(-c2cccnc2)nc1Cn1ncc2ccccc21

$$$$
