
     RDKit          3D

 26 27  0  0  0  0  0  0  0  0999 V2000
    4.9180    1.7793   16.9982 H   0  0  0  0  0  0  0  0  0  0  0  0
    5.4031    1.2905   17.8399 C   0  0  0  0  0  0  0  0  0  0  0  0
    6.5680    0.6793   17.5777 N   0  0  0  0  0  0  0  0  0  0  0  0
    7.1722    0.0536   18.5929 C   0  0  0  0  0  0  0  0  0  0  0  0
    8.1223   -0.4326   18.3723 H   0  0  0  0  0  0  0  0  0  0  0  0
    6.6488    0.0150   19.9001 C   0  0  0  0  0  0  0  0  0  0  0  0
    7.3756   -0.6676   20.9794 C   0  0  0  0  0  0  0  0  0  0  0  0
    8.1051   -1.7946   20.7085 N   0  0  0  0  0  0  0  0  0  0  0  0
    8.6815   -2.3397   21.6861 N   0  0  0  0  0  0  0  0  0  0  0  0
    8.3963   -1.4601   23.1538 S   0  0  0  0  0  0  0  0  0  0  0  0
    7.4327   -0.3112   22.3163 C   0  0  0  0  0  0  0  0  0  0  0  0
    6.8331    0.7653   22.8252 O   0  0  0  0  0  0  0  0  0  0  0  0
    6.9421    1.0960   24.2231 C   0  0  0  0  0  0  0  0  0  0  0  0
    7.9956    1.2331   24.4895 H   0  0  0  0  0  0  0  0  0  0  0  0
    6.5360    0.2734   24.8206 H   0  0  0  0  0  0  0  0  0  0  0  0
    6.1648    2.3768   24.5068 C   0  0  0  0  0  0  0  0  0  0  0  0
    6.5578    3.2002   23.8990 H   0  0  0  0  0  0  0  0  0  0  0  0
    5.1131    2.2510   24.2241 H   0  0  0  0  0  0  0  0  0  0  0  0
    6.2410    2.7677   25.9895 C   0  0  0  0  0  0  0  0  0  0  0  0
    7.2753    2.9405   26.3122 H   0  0  0  0  0  0  0  0  0  0  0  0
    5.8239    1.9870   26.6378 H   0  0  0  0  0  0  0  0  0  0  0  0
    5.6830    3.6877   26.1973 H   0  0  0  0  0  0  0  0  0  0  0  0
    5.4330    0.6550   20.1548 C   0  0  0  0  0  0  0  0  0  0  0  0
    5.0111    0.6381   21.1626 H   0  0  0  0  0  0  0  0  0  0  0  0
    4.8009    1.3084   19.1024 C   0  0  0  0  0  0  0  0  0  0  0  0
    3.8724    1.8432   19.2569 H   0  0  0  0  0  0  0  0  0  0  0  0
  1  2  1  0
  2  3  2  0
  3  4  1  0
  4  5  1  0
  4  6  2  0
  6  7  1  0
  7  8  1  0
  8  9  2  0
  9 10  1  0
 10 11  1  0
 11 12  1  0
 12 13  1  0
 13 14  1  0
 13 15  1  0
 13 16  1  0
 16 17  1  0
 16 18  1  0
 16 19  1  0
 19 20  1  0
 19 21  1  0
 19 22  1  0
  6 23  1  0
 23 24  1  0
 23 25  2  0
 25 26  1  0
 25  2  1  0
 11  7  2  0
M  END
>  <cnnaffinity>  (1) 
-4.52641

>  <filename>  (1) 
CCCOc1snnc1-c1cccnc1

$$$$
