
     RDKit          3D

 41 42  0  0  0  0  0  0  0  0999 V2000
    4.9782    1.7661   16.8522 H   0  0  0  0  0  0  0  0  0  0  0  0
    5.4261    1.3026   17.7282 C   0  0  0  0  0  0  0  0  0  0  0  0
    6.5974    0.6751   17.5330 N   0  0  0  0  0  0  0  0  0  0  0  0
    7.1596    0.0808   18.5908 C   0  0  0  0  0  0  0  0  0  0  0  0
    8.0990   -0.4382   18.3938 H   0  0  0  0  0  0  0  0  0  0  0  0
    6.6189    0.1131   19.8916 C   0  0  0  0  0  0  0  0  0  0  0  0
    7.3282   -0.5142   21.0190 C   0  0  0  0  0  0  0  0  0  0  0  0
    7.5317    0.0552   22.2516 C   0  0  0  0  0  0  0  0  0  0  0  0
    7.1405    1.0468   22.4579 H   0  0  0  0  0  0  0  0  0  0  0  0
    8.2506   -0.6645   23.2463 C   0  0  0  0  0  0  0  0  0  0  0  0
    8.4427   -0.1742   24.2025 H   0  0  0  0  0  0  0  0  0  0  0  0
    8.6817   -1.9630   23.0388 C   0  0  0  0  0  0  0  0  0  0  0  0
    9.3747   -2.7953   24.0808 C   0  0  0  0  0  0  0  0  0  0  0  0
   10.1613   -3.4060   23.6222 H   0  0  0  0  0  0  0  0  0  0  0  0
    9.8730   -2.1603   24.8279 H   0  0  0  0  0  0  0  0  0  0  0  0
    8.4169   -3.7687   24.7947 C   0  0  0  0  0  0  0  0  0  0  0  0
    7.9334   -4.3700   24.0149 H   0  0  0  0  0  0  0  0  0  0  0  0
    7.6157   -3.1956   25.3056 H   0  0  0  0  0  0  0  0  0  0  0  0
    9.1086   -4.6612   25.7163 N   0  0  0  0  0  0  0  0  0  0  0  0
    8.5074   -6.0006   25.7961 C   0  0  0  0  0  0  0  0  0  0  0  0
    9.1855   -6.6836   26.3244 H   0  0  0  0  0  0  0  0  0  0  0  0
    8.4593   -6.3899   24.7715 H   0  0  0  0  0  0  0  0  0  0  0  0
    7.1201   -6.0506   26.4358 C   0  0  0  0  0  0  0  0  0  0  0  0
    6.4317   -5.3723   25.9214 H   0  0  0  0  0  0  0  0  0  0  0  0
    6.6934   -7.0547   26.3856 H   0  0  0  0  0  0  0  0  0  0  0  0
    7.1652   -5.7542   27.4885 H   0  0  0  0  0  0  0  0  0  0  0  0
    9.3645   -4.0222   27.0042 C   0  0  0  0  0  0  0  0  0  0  0  0
    9.8873   -3.0764   26.8268 H   0  0  0  0  0  0  0  0  0  0  0  0
    8.4416   -3.7369   27.5519 H   0  0  0  0  0  0  0  0  0  0  0  0
   10.2125   -4.8972   27.9020 C   0  0  0  0  0  0  0  0  0  0  0  0
    9.6179   -5.6886   28.3649 H   0  0  0  0  0  0  0  0  0  0  0  0
   10.6719   -4.2964   28.6821 H   0  0  0  0  0  0  0  0  0  0  0  0
   11.0172   -5.3652   27.3370 H   0  0  0  0  0  0  0  0  0  0  0  0
    8.3317   -2.6180   21.7671 C   0  0  0  0  0  0  0  0  0  0  0  0
    8.4399   -3.8043   21.4791 O   0  0  0  0  0  0  0  0  0  0  0  0
    7.8340   -1.7721   20.7906 N   0  0  0  0  0  0  0  0  0  0  0  0
    7.5899   -2.3151   19.9778 H   0  0  0  0  0  0  0  0  0  0  0  0
    5.3903    0.7707   20.0724 C   0  0  0  0  0  0  0  0  0  0  0  0
    4.9158    0.7902   21.0547 H   0  0  0  0  0  0  0  0  0  0  0  0
    4.7814    1.3625   18.9667 C   0  0  0  0  0  0  0  0  0  0  0  0
    3.8268    1.8679   19.0499 H   0  0  0  0  0  0  0  0  0  0  0  0
  1  2  1  0
  2  3  2  0
  3  4  1  0
  4  5  1  0
  4  6  2  0
  6  7  1  0
  7  8  2  0
  8  9  1  0
  8 10  1  0
 10 11  1  0
 10 12  2  0
 12 13  1  0
 13 14  1  0
 13 15  1  0
 13 16  1  0
 16 17  1  0
 16 18  1  0
 16 19  1  0
 19 20  1  0
 20 21  1  0
 20 22  1  0
 20 23  1  0
 23 24  1  0
 23 25  1  0
 23 26  1  0
 19 27  1  0
 27 28  1  0
 27 29  1  0
 27 30  1  0
 30 31  1  0
 30 32  1  0
 30 33  1  0
 12 34  1  0
 34 35  2  0
 34 36  1  0
 36 37  1  0
  6 38  1  0
 38 39  1  0
 38 40  2  0
 40 41  1  0
 40  2  1  0
 36  7  1  0
M  END
>  <cnnaffinity>  (1) 
-4.95739

>  <filename>  (1) 
CCN(CC)CCc1ccc(-c2cccnc2)[nH]c1=O

$$$$
