
     RDKit          3D

 34 35  0  0  0  0  0  0  0  0999 V2000
    9.2008    0.9091   21.2506 C   0  0  0  0  0  0  0  0  0  0  0  0
    8.7720   -0.5522   21.1545 C   0  0  0  0  0  0  0  0  0  0  0  0
    7.3156   -0.7096   20.9798 N   0  0  0  0  0  0  0  0  0  0  0  0
    6.5938   -1.7195   21.6588 C   0  0  0  0  0  0  0  0  0  0  0  0
    5.8538   -2.4971   21.0902 O   0  0  0  0  0  0  0  0  0  0  0  0
    6.7865   -1.7769   23.1374 C   0  0  0  0  0  0  0  0  0  0  0  0
    7.0807   -0.6461   23.9176 C   0  0  0  0  0  0  0  0  0  0  0  0
    7.1527   -0.8120   25.2950 C   0  0  0  0  0  0  0  0  0  0  0  0
    7.4603    0.2238   26.1761 O   0  0  0  0  0  0  0  0  0  0  0  0
    7.7237    1.4852   25.7518 C   0  0  0  0  0  0  0  0  0  0  0  0
    6.6857    2.0448   25.1070 F   0  0  0  0  0  0  0  0  0  0  0  0
    7.9930    2.2009   26.8344 F   0  0  0  0  0  0  0  0  0  0  0  0
    8.7768    1.5532   24.9139 F   0  0  0  0  0  0  0  0  0  0  0  0
    6.9120   -2.0868   25.8468 C   0  0  0  0  0  0  0  0  0  0  0  0
    6.6054   -3.1490   25.0950 N   0  0  0  0  0  0  0  0  0  0  0  0
    6.5275   -2.9993   23.7698 C   0  0  0  0  0  0  0  0  0  0  0  0
    6.2508   -3.8894   23.2161 H   0  0  0  0  0  0  0  0  0  0  0  0
    6.9701   -2.2460   26.9204 H   0  0  0  0  0  0  0  0  0  0  0  0
    7.2218    0.3432   23.4808 H   0  0  0  0  0  0  0  0  0  0  0  0
    6.6586   -0.0210   19.9102 C   0  0  0  0  0  0  0  0  0  0  0  0
    5.4423    0.6373   20.1545 C   0  0  0  0  0  0  0  0  0  0  0  0
    4.8168    1.3097   19.1035 C   0  0  0  0  0  0  0  0  0  0  0  0
    5.4065    1.2933   17.8362 C   0  0  0  0  0  0  0  0  0  0  0  0
    6.5680    0.6756   17.5815 N   0  0  0  0  0  0  0  0  0  0  0  0
    7.1795    0.0526   18.5992 C   0  0  0  0  0  0  0  0  0  0  0  0
    8.1271   -0.4244   18.3564 H   0  0  0  0  0  0  0  0  0  0  0  0
    4.9287    1.7880   16.9920 H   0  0  0  0  0  0  0  0  0  0  0  0
    3.8854    1.8386   19.2536 H   0  0  0  0  0  0  0  0  0  0  0  0
    5.0120    0.6208   21.1601 H   0  0  0  0  0  0  0  0  0  0  0  0
    9.0747   -1.0922   22.0609 H   0  0  0  0  0  0  0  0  0  0  0  0
    9.3038   -1.0327   20.3159 H   0  0  0  0  0  0  0  0  0  0  0  0
    8.9970    1.4250   20.3128 H   0  0  0  0  0  0  0  0  0  0  0  0
    8.6628    1.4461   22.0378 H   0  0  0  0  0  0  0  0  0  0  0  0
   10.2755    0.9832   21.4570 H   0  0  0  0  0  0  0  0  0  0  0  0
  1  2  1  0
  2  3  1  0
  3  4  1  0
  4  5  2  0
  4  6  1  0
  6  7  2  0
  7  8  1  0
  8  9  1  0
  9 10  1  0
 10 11  1  0
 10 12  1  0
 10 13  1  0
  8 14  2  0
 14 15  1  0
 15 16  2  0
 16 17  1  0
 14 18  1  0
  7 19  1  0
  3 20  1  0
 20 21  2  0
 21 22  1  0
 22 23  2  0
 23 24  1  0
 24 25  2  0
 25 26  1  0
 23 27  1  0
 22 28  1  0
 21 29  1  0
  2 30  1  0
  2 31  1  0
  1 32  1  0
  1 33  1  0
  1 34  1  0
 16  6  1  0
 25 20  1  0
M  END
>  <cnnaffinity>  (1) 
-5.28422

>  <filename>  (1) 
CCN(C(=O)c1cncc(OC(F)(F)F)c1)c1cccnc1

$$$$
