
     RDKit          3D

 38 39  0  0  0  0  0  0  0  0999 V2000
    4.9518    1.8724   17.0209 H   0  0  0  0  0  0  0  0  0  0  0  0
    5.4213    1.3099   17.8247 C   0  0  0  0  0  0  0  0  0  0  0  0
    6.5607    0.6774   17.4997 N   0  0  0  0  0  0  0  0  0  0  0  0
    7.1798   -0.0049   18.4721 C   0  0  0  0  0  0  0  0  0  0  0  0
    8.0983   -0.5215   18.1885 H   0  0  0  0  0  0  0  0  0  0  0  0
    6.7075   -0.1117   19.8005 C   0  0  0  0  0  0  0  0  0  0  0  0
    7.4773   -0.8335   20.8512 C   0  0  0  0  0  0  0  0  0  0  0  0
    8.8604   -0.5965   21.1778 C   0  0  0  0  0  0  0  0  0  0  0  0
    9.4801    0.1354   20.6618 H   0  0  0  0  0  0  0  0  0  0  0  0
    9.3920   -1.2718   22.1543 N   0  0  0  0  0  0  0  0  0  0  0  0
    8.2371   -2.3071   22.7875 S   0  0  0  0  0  0  0  0  0  0  0  0
    6.9941   -1.8042   21.6964 C   0  0  0  0  0  0  0  0  0  0  0  0
    5.7931   -2.3874   21.6328 O   0  0  0  0  0  0  0  0  0  0  0  0
    5.3293   -3.2318   22.7127 C   0  0  0  0  0  0  0  0  0  0  0  0
    4.2570   -3.0648   22.7715 H   0  0  0  0  0  0  0  0  0  0  0  0
    5.7789   -2.9512   23.6777 H   0  0  0  0  0  0  0  0  0  0  0  0
    5.5287   -4.7187   22.4332 C   0  0  0  0  0  0  0  0  0  0  0  0
    5.1874   -4.9465   21.4157 H   0  0  0  0  0  0  0  0  0  0  0  0
    6.6076   -4.9558   22.4562 H   0  0  0  0  0  0  0  0  0  0  0  0
    4.7268   -5.4966   23.3852 N   0  0  0  0  0  0  0  0  0  0  0  0
    4.2458   -6.7946   22.9110 C   0  0  0  0  0  0  0  0  0  0  0  0
    3.8682   -6.6466   21.8918 H   0  0  0  0  0  0  0  0  0  0  0  0
    5.0574   -7.5500   22.8400 H   0  0  0  0  0  0  0  0  0  0  0  0
    3.0899   -7.3606   23.7420 C   0  0  0  0  0  0  0  0  0  0  0  0
    2.2550   -6.6476   23.7800 H   0  0  0  0  0  0  0  0  0  0  0  0
    3.3921   -7.5917   24.7708 H   0  0  0  0  0  0  0  0  0  0  0  0
    2.7193   -8.2915   23.2947 H   0  0  0  0  0  0  0  0  0  0  0  0
    5.2222   -5.4878   24.7663 C   0  0  0  0  0  0  0  0  0  0  0  0
    5.4695   -6.5096   25.1066 H   0  0  0  0  0  0  0  0  0  0  0  0
    6.1666   -4.9261   24.8167 H   0  0  0  0  0  0  0  0  0  0  0  0
    4.2142   -4.8492   25.7261 C   0  0  0  0  0  0  0  0  0  0  0  0
    4.6151   -4.8102   26.7445 H   0  0  0  0  0  0  0  0  0  0  0  0
    3.9742   -3.8252   25.4131 H   0  0  0  0  0  0  0  0  0  0  0  0
    3.2745   -5.4096   25.7482 H   0  0  0  0  0  0  0  0  0  0  0  0
    5.4920    0.5217   20.0965 C   0  0  0  0  0  0  0  0  0  0  0  0
    5.0806    0.4397   21.1030 H   0  0  0  0  0  0  0  0  0  0  0  0
    4.8431    1.2580   19.0983 C   0  0  0  0  0  0  0  0  0  0  0  0
    3.9153    1.7901   19.2853 H   0  0  0  0  0  0  0  0  0  0  0  0
  1  2  1  0
  2  3  2  0
  3  4  1  0
  4  5  1  0
  4  6  2  0
  6  7  1  0
  7  8  1  0
  8  9  1  0
  8 10  2  0
 10 11  1  0
 11 12  1  0
 12 13  1  0
 13 14  1  0
 14 15  1  0
 14 16  1  0
 14 17  1  0
 17 18  1  0
 17 19  1  0
 17 20  1  0
 20 21  1  0
 21 22  1  0
 21 23  1  0
 21 24  1  0
 24 25  1  0
 24 26  1  0
 24 27  1  0
 20 28  1  0
 28 29  1  0
 28 30  1  0
 28 31  1  0
 31 32  1  0
 31 33  1  0
 31 34  1  0
  6 35  1  0
 35 36  1  0
 35 37  2  0
 37 38  1  0
 37  2  1  0
 12  7  2  0
M  END
>  <cnnaffinity>  (1) 
-4.9173

>  <filename>  (1) 
CCN(CC)CCOc1sncc1-c1cccnc1

$$$$
