
     RDKit          3D

 34 35  0  0  0  0  0  0  0  0999 V2000
    4.9420    1.8233   17.0012 H   0  0  0  0  0  0  0  0  0  0  0  0
    5.4028    1.2926   17.8281 C   0  0  0  0  0  0  0  0  0  0  0  0
    6.5478    0.6494   17.5529 N   0  0  0  0  0  0  0  0  0  0  0  0
    7.1720    0.0201   18.5530 C   0  0  0  0  0  0  0  0  0  0  0  0
    8.0967   -0.4940   18.2860 H   0  0  0  0  0  0  0  0  0  0  0  0
    6.6936   -0.0032   19.8788 C   0  0  0  0  0  0  0  0  0  0  0  0
    7.4067   -0.6908   20.9117 N   0  0  0  0  0  0  0  0  0  0  0  0
    8.7677   -0.8545   21.0714 C   0  0  0  0  0  0  0  0  0  0  0  0
    9.4851   -0.4189   20.3853 H   0  0  0  0  0  0  0  0  0  0  0  0
    9.0679   -1.5448   22.1290 N   0  0  0  0  0  0  0  0  0  0  0  0
    7.8550   -1.8504   22.7462 C   0  0  0  0  0  0  0  0  0  0  0  0
    7.6203   -2.5568   24.0821 C   0  0  0  0  0  0  0  0  0  0  0  0
    6.5566   -2.3920   24.6721 O   0  0  0  0  0  0  0  0  0  0  0  0
    8.6037   -3.3687   24.6014 N   0  0  0  0  0  0  0  0  0  0  0  0
    9.6566   -3.9641   23.7885 C   0  0  0  0  0  0  0  0  0  0  0  0
    9.8115   -5.0063   24.1075 H   0  0  0  0  0  0  0  0  0  0  0  0
    9.3133   -4.0047   22.7499 H   0  0  0  0  0  0  0  0  0  0  0  0
   10.9358   -3.1677   23.9420 C   0  0  0  0  0  0  0  0  0  0  0  0
   11.2785   -3.2498   24.9776 H   0  0  0  0  0  0  0  0  0  0  0  0
   11.7312   -3.5201   23.2794 H   0  0  0  0  0  0  0  0  0  0  0  0
   10.7527   -2.1144   23.7183 H   0  0  0  0  0  0  0  0  0  0  0  0
    8.5811   -3.7103   26.0265 C   0  0  0  0  0  0  0  0  0  0  0  0
    9.6163   -3.8289   26.3843 H   0  0  0  0  0  0  0  0  0  0  0  0
    8.1533   -2.8641   26.5728 H   0  0  0  0  0  0  0  0  0  0  0  0
    7.7633   -4.9674   26.2757 C   0  0  0  0  0  0  0  0  0  0  0  0
    8.1765   -5.8297   25.7380 H   0  0  0  0  0  0  0  0  0  0  0  0
    7.7241   -5.2142   27.3411 H   0  0  0  0  0  0  0  0  0  0  0  0
    6.7432   -4.8019   25.9213 H   0  0  0  0  0  0  0  0  0  0  0  0
    6.8399   -1.3404   21.9870 C   0  0  0  0  0  0  0  0  0  0  0  0
    5.7756   -1.4437   22.1215 H   0  0  0  0  0  0  0  0  0  0  0  0
    5.4817    0.6569   20.1475 C   0  0  0  0  0  0  0  0  0  0  0  0
    5.0697    0.6902   21.1566 H   0  0  0  0  0  0  0  0  0  0  0  0
    4.8243    1.3056   19.0988 C   0  0  0  0  0  0  0  0  0  0  0  0
    3.8865    1.8274   19.2576 H   0  0  0  0  0  0  0  0  0  0  0  0
  1  2  1  0
  2  3  2  0
  3  4  1  0
  4  5  1  0
  4  6  2  0
  6  7  1  0
  7  8  1  0
  8  9  1  0
  8 10  2  0
 10 11  1  0
 11 12  1  0
 12 13  2  0
 12 14  1  0
 14 15  1  0
 15 16  1  0
 15 17  1  0
 15 18  1  0
 18 19  1  0
 18 20  1  0
 18 21  1  0
 14 22  1  0
 22 23  1  0
 22 24  1  0
 22 25  1  0
 25 26  1  0
 25 27  1  0
 25 28  1  0
 11 29  2  0
 29 30  1  0
  6 31  1  0
 31 32  1  0
 31 33  2  0
 33 34  1  0
 33  2  1  0
 29  7  1  0
M  END
>  <cnnaffinity>  (1) 
-4.78515

>  <filename>  (1) 
CCN(CC)C(=O)c1cn(-c2cccnc2)cn1

$$$$
