
     RDKit          3D

 36 36  0  0  0  0  0  0  0  0999 V2000
    9.3338   -0.5213   20.3793 H   0  0  0  0  0  0  0  0  0  0  0  0
    8.6423   -0.9194   21.1222 C   0  0  0  0  0  0  0  0  0  0  0  0
    9.3389   -1.5436   22.1032 O   0  0  0  0  0  0  0  0  0  0  0  0
    8.6451   -2.2382   23.1430 C   0  0  0  0  0  0  0  0  0  0  0  0
    7.8617   -1.6195   23.5951 H   0  0  0  0  0  0  0  0  0  0  0  0
    9.4102   -2.4026   23.9018 H   0  0  0  0  0  0  0  0  0  0  0  0
    8.0618   -3.5765   22.6800 C   0  0  0  0  0  0  0  0  0  0  0  0
    8.8865   -4.1871   22.2774 H   0  0  0  0  0  0  0  0  0  0  0  0
    7.3955   -3.3800   21.8295 H   0  0  0  0  0  0  0  0  0  0  0  0
    7.3396   -4.2702   23.7536 N   0  0  0  0  0  0  0  0  0  0  0  0
    8.2106   -5.1293   24.5673 C   0  0  0  0  0  0  0  0  0  0  0  0
    8.5332   -6.0383   24.0237 H   0  0  0  0  0  0  0  0  0  0  0  0
    9.1333   -4.5764   24.7799 H   0  0  0  0  0  0  0  0  0  0  0  0
    7.5853   -5.5328   25.8986 C   0  0  0  0  0  0  0  0  0  0  0  0
    8.3379   -5.9890   26.5519 H   0  0  0  0  0  0  0  0  0  0  0  0
    6.7780   -6.2614   25.7725 H   0  0  0  0  0  0  0  0  0  0  0  0
    7.1766   -4.6556   26.4082 H   0  0  0  0  0  0  0  0  0  0  0  0
    6.1109   -4.9286   23.2972 C   0  0  0  0  0  0  0  0  0  0  0  0
    5.5029   -4.1688   22.7893 H   0  0  0  0  0  0  0  0  0  0  0  0
    5.5207   -5.2305   24.1702 H   0  0  0  0  0  0  0  0  0  0  0  0
    6.3229   -6.1254   22.3633 C   0  0  0  0  0  0  0  0  0  0  0  0
    6.7469   -6.9766   22.9037 H   0  0  0  0  0  0  0  0  0  0  0  0
    7.0244   -5.8667   21.5622 H   0  0  0  0  0  0  0  0  0  0  0  0
    5.3820   -6.4466   21.9064 H   0  0  0  0  0  0  0  0  0  0  0  0
    7.3228   -0.7204   21.0320 C   0  0  0  0  0  0  0  0  0  0  0  0
    6.6660   -1.0510   21.8395 H   0  0  0  0  0  0  0  0  0  0  0  0
    6.6628   -0.0023   19.9164 C   0  0  0  0  0  0  0  0  0  0  0  0
    7.1771    0.0680   18.6015 C   0  0  0  0  0  0  0  0  0  0  0  0
    8.1153   -0.4238   18.3522 H   0  0  0  0  0  0  0  0  0  0  0  0
    6.5644    0.6825   17.5760 N   0  0  0  0  0  0  0  0  0  0  0  0
    5.3987    1.2960   17.8356 C   0  0  0  0  0  0  0  0  0  0  0  0
    4.9188    1.7853   16.9907 H   0  0  0  0  0  0  0  0  0  0  0  0
    4.8017    1.3125   19.1015 C   0  0  0  0  0  0  0  0  0  0  0  0
    3.8713    1.8455   19.2520 H   0  0  0  0  0  0  0  0  0  0  0  0
    5.4359    0.6435   20.1495 C   0  0  0  0  0  0  0  0  0  0  0  0
    5.0122    0.6273   21.1544 H   0  0  0  0  0  0  0  0  0  0  0  0
  1  2  1  0
  2  3  1  0
  3  4  1  0
  4  5  1  0
  4  6  1  0
  4  7  1  0
  7  8  1  0
  7  9  1  0
  7 10  1  0
 10 11  1  0
 11 12  1  0
 11 13  1  0
 11 14  1  0
 14 15  1  0
 14 16  1  0
 14 17  1  0
 10 18  1  0
 18 19  1  0
 18 20  1  0
 18 21  1  0
 21 22  1  0
 21 23  1  0
 21 24  1  0
  2 25  2  3
 25 26  1  0
 25 27  1  0
 27 28  2  0
 28 29  1  0
 28 30  1  0
 30 31  2  0
 31 32  1  0
 31 33  1  0
 33 34  1  0
 33 35  2  0
 35 36  1  0
 35 27  1  0
M  END
>  <cnnaffinity>  (1) 
-4.28664

>  <filename>  (1) 
CCN(CC)CCOC=Cc1cccnc1

$$$$
