
     RDKit          3D

 41 43  0  0  0  0  0  0  0  0999 V2000
    8.3549    0.9217   22.5270 C   0  0  0  0  0  0  0  0  0  0  0  0
    8.5979   -0.1234   21.4404 C   0  0  0  0  0  0  0  0  0  0  0  0
    7.3455   -0.7064   20.9494 N   0  0  0  0  0  0  0  0  0  0  0  0
    6.6770   -1.7669   21.5655 C   0  0  0  0  0  0  0  0  0  0  0  0
    5.5736   -2.1284   21.1929 O   0  0  0  0  0  0  0  0  0  0  0  0
    7.4446   -2.5190   22.6353 C   0  0  2  0  0  0  0  0  0  0  0  0
    8.5214   -3.4911   22.2049 C   0  0  0  0  0  0  0  0  0  0  0  0
    7.2246   -4.0077   22.7852 C   0  0  1  0  0  0  0  0  0  0  0  0
    7.2154   -4.6680   24.1381 C   0  0  0  0  0  0  0  0  0  0  0  0
    8.2376   -5.5753   24.4552 C   0  0  0  0  0  0  0  0  0  0  0  0
    8.3433   -6.1485   25.7235 C   0  0  0  0  0  0  0  0  0  0  0  0
    7.3957   -5.8321   26.7010 C   0  0  0  0  0  0  0  0  0  0  0  0
    6.3353   -4.9755   26.3894 C   0  0  0  0  0  0  0  0  0  0  0  0
    6.2113   -4.4261   25.1003 C   0  0  0  0  0  0  0  0  0  0  0  0
    5.0411   -3.5072   24.7895 C   0  0  0  0  0  0  0  0  0  0  0  0
    5.4076   -2.2062   24.8425 F   0  0  0  0  0  0  0  0  0  0  0  0
    4.0307   -3.6562   25.6704 F   0  0  0  0  0  0  0  0  0  0  0  0
    4.5244   -3.7182   23.5639 F   0  0  0  0  0  0  0  0  0  0  0  0
    5.5933   -4.7410   27.1468 H   0  0  0  0  0  0  0  0  0  0  0  0
    7.4693   -6.2662   27.6940 H   0  0  0  0  0  0  0  0  0  0  0  0
    9.1688   -6.8204   25.9487 H   0  0  0  0  0  0  0  0  0  0  0  0
    8.9746   -5.7829   23.6845 H   0  0  0  0  0  0  0  0  0  0  0  0
    6.5115   -4.4479   22.0911 H   0  0  0  0  0  0  0  0  0  0  0  0
    8.7055   -3.6116   21.1382 H   0  0  0  0  0  0  0  0  0  0  0  0
    9.4192   -3.5819   22.8161 H   0  0  0  0  0  0  0  0  0  0  0  0
    7.5989   -1.9557   23.5515 H   0  0  0  0  0  0  0  0  0  0  0  0
    6.6642    0.0055   19.9010 C   0  0  0  0  0  0  0  0  0  0  0  0
    5.4485    0.6434   20.1581 C   0  0  0  0  0  0  0  0  0  0  0  0
    4.8164    1.3139   19.1070 C   0  0  0  0  0  0  0  0  0  0  0  0
    5.4035    1.2985   17.8381 C   0  0  0  0  0  0  0  0  0  0  0  0
    6.5673    0.6845   17.5735 N   0  0  0  0  0  0  0  0  0  0  0  0
    7.1831    0.0707   18.5919 C   0  0  0  0  0  0  0  0  0  0  0  0
    8.1272   -0.4228   18.3613 H   0  0  0  0  0  0  0  0  0  0  0  0
    4.9236    1.7903   16.9935 H   0  0  0  0  0  0  0  0  0  0  0  0
    3.8817    1.8386   19.2559 H   0  0  0  0  0  0  0  0  0  0  0  0
    5.0193    0.5959   21.1631 H   0  0  0  0  0  0  0  0  0  0  0  0
    9.0859    0.3449   20.5770 H   0  0  0  0  0  0  0  0  0  0  0  0
    9.2756   -0.9146   21.7834 H   0  0  0  0  0  0  0  0  0  0  0  0
    7.8349    0.4836   23.3870 H   0  0  0  0  0  0  0  0  0  0  0  0
    7.7335    1.7388   22.1406 H   0  0  0  0  0  0  0  0  0  0  0  0
    9.2993    1.3491   22.8822 H   0  0  0  0  0  0  0  0  0  0  0  0
  1  2  1  0
  2  3  1  0
  3  4  1  0
  4  5  2  0
  4  6  1  0
  6  7  1  0
  7  8  1  0
  8  9  1  0
  9 10  2  0
 10 11  1  0
 11 12  2  0
 12 13  1  0
 13 14  2  0
 14 15  1  0
 15 16  1  0
 15 17  1  0
 15 18  1  0
 13 19  1  0
 12 20  1  0
 11 21  1  0
 10 22  1  0
  8 23  1  6
  7 24  1  0
  7 25  1  0
  6 26  1  1
  3 27  1  0
 27 28  2  0
 28 29  1  0
 29 30  2  0
 30 31  1  0
 31 32  2  0
 32 33  1  0
 30 34  1  0
 29 35  1  0
 28 36  1  0
  2 37  1  0
  2 38  1  0
  1 39  1  0
  1 40  1  0
  1 41  1  0
  8  6  1  0
 14  9  1  0
 32 27  1  0
M  END
>  <cnnaffinity>  (1) 
-5.48717

>  <filename>  (1) 
CCN(C(=O)[C@@H]1C[C@H]1c1ccccc1C(F)(F)F)c1cccnc1

$$$$
