
     RDKit          3D

 34 35  0  0  0  0  0  0  0  0999 V2000
    4.9439    1.8103   16.9872 H   0  0  0  0  0  0  0  0  0  0  0  0
    5.4077    1.2931   17.8239 C   0  0  0  0  0  0  0  0  0  0  0  0
    6.5672    0.6663   17.5673 N   0  0  0  0  0  0  0  0  0  0  0  0
    7.1809    0.0469   18.5843 C   0  0  0  0  0  0  0  0  0  0  0  0
    8.1258   -0.4282   18.3260 H   0  0  0  0  0  0  0  0  0  0  0  0
    6.6766    0.0039   19.9087 C   0  0  0  0  0  0  0  0  0  0  0  0
    7.3721   -0.6787   21.0278 C   0  0  0  0  0  0  0  0  0  0  0  0
    8.6201   -1.8552   20.7666 S   0  0  0  0  0  0  0  0  0  0  0  0
    8.8263   -2.1403   22.4333 C   0  0  0  0  0  0  0  0  0  0  0  0
    9.5607   -2.8651   22.7677 H   0  0  0  0  0  0  0  0  0  0  0  0
    7.9934   -1.3578   23.1973 C   0  0  0  0  0  0  0  0  0  0  0  0
    8.1021   -1.2858   24.7053 C   0  0  0  0  0  0  0  0  0  0  0  0
    9.1612   -1.5271   25.2645 O   0  0  0  0  0  0  0  0  0  0  0  0
    6.9860   -0.8823   25.4240 N   0  0  0  0  0  0  0  0  0  0  0  0
    7.2337   -0.0961   26.6328 C   0  0  0  0  0  0  0  0  0  0  0  0
    8.0447   -0.5659   27.1967 H   0  0  0  0  0  0  0  0  0  0  0  0
    6.3421   -0.1358   27.2693 H   0  0  0  0  0  0  0  0  0  0  0  0
    7.5843    1.3484   26.2904 C   0  0  0  0  0  0  0  0  0  0  0  0
    8.4987    1.3996   25.6910 H   0  0  0  0  0  0  0  0  0  0  0  0
    7.7450    1.9323   27.2008 H   0  0  0  0  0  0  0  0  0  0  0  0
    6.7868    1.8233   25.7072 H   0  0  0  0  0  0  0  0  0  0  0  0
    5.6264   -1.3542   25.1798 C   0  0  0  0  0  0  0  0  0  0  0  0
    5.6040   -1.8546   24.2103 H   0  0  0  0  0  0  0  0  0  0  0  0
    5.3609   -2.1217   25.9288 H   0  0  0  0  0  0  0  0  0  0  0  0
    4.6010   -0.2257   25.2251 C   0  0  0  0  0  0  0  0  0  0  0  0
    4.6605    0.3094   26.1736 H   0  0  0  0  0  0  0  0  0  0  0  0
    4.7566    0.5152   24.4342 H   0  0  0  0  0  0  0  0  0  0  0  0
    3.5891   -0.6277   25.0960 H   0  0  0  0  0  0  0  0  0  0  0  0
    7.1679   -0.5143   22.3720 C   0  0  0  0  0  0  0  0  0  0  0  0
    6.4879    0.2462   22.7645 H   0  0  0  0  0  0  0  0  0  0  0  0
    5.4475    0.6511   20.1366 C   0  0  0  0  0  0  0  0  0  0  0  0
    5.0034    0.6371   21.1315 H   0  0  0  0  0  0  0  0  0  0  0  0
    4.8026    1.3058   19.0833 C   0  0  0  0  0  0  0  0  0  0  0  0
    3.8677    1.8390   19.2339 H   0  0  0  0  0  0  0  0  0  0  0  0
  1  2  1  0
  2  3  2  0
  3  4  1  0
  4  5  1  0
  4  6  2  0
  6  7  1  0
  7  8  1  0
  8  9  1  0
  9 10  1  0
  9 11  2  0
 11 12  1  0
 12 13  2  0
 12 14  1  0
 14 15  1  0
 15 16  1  0
 15 17  1  0
 15 18  1  0
 18 19  1  0
 18 20  1  0
 18 21  1  0
 14 22  1  0
 22 23  1  0
 22 24  1  0
 22 25  1  0
 25 26  1  0
 25 27  1  0
 25 28  1  0
 11 29  1  0
 29 30  1  0
  6 31  1  0
 31 32  1  0
 31 33  2  0
 33 34  1  0
 33  2  1  0
 29  7  2  0
M  END
>  <cnnaffinity>  (1) 
-4.37152

>  <filename>  (1) 
CCN(CC)C(=O)c1csc(-c2cccnc2)c1

$$$$
