
     RDKit          3D

 31 32  0  0  0  0  0  0  0  0999 V2000
    8.9447   -3.3815   21.8028 H   0  0  0  0  0  0  0  0  0  0  0  0
    8.4543   -2.4170   21.7750 C   0  0  0  0  0  0  0  0  0  0  0  0
    7.9566   -1.9144   20.6958 N   0  0  0  0  0  0  0  0  0  0  0  0
    7.3791   -0.6998   20.9641 C   0  0  0  0  0  0  0  0  0  0  0  0
    6.6494   -0.0035   19.8960 C   0  0  0  0  0  0  0  0  0  0  0  0
    7.1687    0.0456   18.5919 C   0  0  0  0  0  0  0  0  0  0  0  0
    8.1195   -0.4334   18.3690 H   0  0  0  0  0  0  0  0  0  0  0  0
    6.5713    0.6770   17.5787 N   0  0  0  0  0  0  0  0  0  0  0  0
    5.4068    1.2920   17.8379 C   0  0  0  0  0  0  0  0  0  0  0  0
    4.9222    1.7810   16.9967 H   0  0  0  0  0  0  0  0  0  0  0  0
    4.8046    1.3080   19.1015 C   0  0  0  0  0  0  0  0  0  0  0  0
    3.8734    1.8429   19.2578 H   0  0  0  0  0  0  0  0  0  0  0  0
    5.4346    0.6482   20.1513 C   0  0  0  0  0  0  0  0  0  0  0  0
    5.0001    0.6332   21.1561 H   0  0  0  0  0  0  0  0  0  0  0  0
    7.4981   -0.2489   22.2688 C   0  0  0  0  0  0  0  0  0  0  0  0
    7.1081    0.9740   22.7915 N   0  0  0  0  0  0  0  0  0  0  0  0
    6.3057    1.0562   24.0044 C   0  0  0  0  0  0  0  0  0  0  0  0
    5.7552    0.1182   24.1019 H   0  0  0  0  0  0  0  0  0  0  0  0
    5.5525    1.8487   23.8746 H   0  0  0  0  0  0  0  0  0  0  0  0
    7.1303    1.3362   25.2520 C   0  0  0  0  0  0  0  0  0  0  0  0
    7.8997    0.5689   25.3745 H   0  0  0  0  0  0  0  0  0  0  0  0
    6.4975    1.3364   26.1452 H   0  0  0  0  0  0  0  0  0  0  0  0
    7.6234    2.3104   25.1815 H   0  0  0  0  0  0  0  0  0  0  0  0
    7.6840    2.1955   22.2319 C   0  0  0  0  0  0  0  0  0  0  0  0
    7.2421    3.0594   22.7438 H   0  0  0  0  0  0  0  0  0  0  0  0
    7.3976    2.2841   21.1783 H   0  0  0  0  0  0  0  0  0  0  0  0
    9.2024    2.2394   22.3491 C   0  0  0  0  0  0  0  0  0  0  0  0
    9.5184    2.1264   23.3914 H   0  0  0  0  0  0  0  0  0  0  0  0
    9.6510    1.4271   21.7701 H   0  0  0  0  0  0  0  0  0  0  0  0
    9.5996    3.1895   21.9783 H   0  0  0  0  0  0  0  0  0  0  0  0
    8.3134   -1.4758   23.2033 S   0  0  0  0  0  0  0  0  0  0  0  0
  1  2  1  0
  2  3  2  0
  3  4  1  0
  4  5  1  0
  5  6  2  0
  6  7  1  0
  6  8  1  0
  8  9  2  0
  9 10  1  0
  9 11  1  0
 11 12  1  0
 11 13  2  0
 13 14  1  0
  4 15  2  0
 15 16  1  0
 16 17  1  0
 17 18  1  0
 17 19  1  0
 17 20  1  0
 20 21  1  0
 20 22  1  0
 20 23  1  0
 16 24  1  0
 24 25  1  0
 24 26  1  0
 24 27  1  0
 27 28  1  0
 27 29  1  0
 27 30  1  0
 15 31  1  0
 31  2  1  0
 13  5  1  0
M  END
>  <cnnaffinity>  (1) 
-4.72879

>  <filename>  (1) 
CCN(CC)c1scnc1-c1cccnc1

$$$$
