
     RDKit          3D

 46 47  0  0  0  0  0  0  0  0999 V2000
    9.2293    0.8009   21.2773 C   0  0  0  0  0  0  0  0  0  0  0  0
    8.7251   -0.6323   21.1484 C   0  0  0  0  0  0  0  0  0  0  0  0
    7.2690   -0.7204   20.9798 N   0  0  0  0  0  0  0  0  0  0  0  0
    6.5100   -1.6467   21.7272 C   0  0  0  0  0  0  0  0  0  0  0  0
    5.7619   -2.4599   21.2014 O   0  0  0  0  0  0  0  0  0  0  0  0
    6.6816   -1.5805   23.1038 N   0  0  0  0  0  0  0  0  0  0  0  0
    7.0460   -0.3597   23.8194 C   0  0  0  0  0  0  0  0  0  0  0  0
    6.6979   -0.4268   24.8549 H   0  0  0  0  0  0  0  0  0  0  0  0
    8.1310   -0.2049   23.8724 H   0  0  0  0  0  0  0  0  0  0  0  0
    6.5800    0.5268   23.3710 H   0  0  0  0  0  0  0  0  0  0  0  0
    6.1743   -2.7311   23.8707 C   0  0  0  0  0  0  0  0  0  0  0  0
    7.0757   -3.9540   23.7361 C   0  0  0  0  0  0  0  0  0  0  0  0
    8.3469   -3.9114   24.1746 C   0  0  0  0  0  0  0  0  0  0  0  0
    8.9868   -2.7804   24.9126 C   0  0  0  0  0  0  0  0  0  0  0  0
   10.0632   -2.0850   24.3317 C   0  0  0  0  0  0  0  0  0  0  0  0
   10.5581   -0.9100   24.9077 C   0  0  0  0  0  0  0  0  0  0  0  0
   10.0744   -0.4876   26.1571 C   0  0  0  0  0  0  0  0  0  0  0  0
    9.0753   -1.2261   26.7950 C   0  0  0  0  0  0  0  0  0  0  0  0
    8.5161   -2.3449   26.1621 C   0  0  0  0  0  0  0  0  0  0  0  0
    7.6862   -2.8749   26.6191 H   0  0  0  0  0  0  0  0  0  0  0  0
    8.7287   -0.9404   27.7845 H   0  0  0  0  0  0  0  0  0  0  0  0
   10.4868    0.3920   26.6432 H   0  0  0  0  0  0  0  0  0  0  0  0
   11.3130   -0.3402   24.3729 H   0  0  0  0  0  0  0  0  0  0  0  0
   10.4981   -2.4450   23.4010 H   0  0  0  0  0  0  0  0  0  0  0  0
    9.0286   -4.7309   23.9321 H   0  0  0  0  0  0  0  0  0  0  0  0
    6.4916   -5.1571   23.0082 C   0  0  0  0  0  0  0  0  0  0  0  0
    5.4422   -4.9812   22.7425 H   0  0  0  0  0  0  0  0  0  0  0  0
    6.5332   -6.0748   23.6106 H   0  0  0  0  0  0  0  0  0  0  0  0
    7.0225   -5.3491   22.0658 H   0  0  0  0  0  0  0  0  0  0  0  0
    6.1182   -2.4379   24.9220 H   0  0  0  0  0  0  0  0  0  0  0  0
    5.1502   -2.9683   23.5530 H   0  0  0  0  0  0  0  0  0  0  0  0
    6.6367   -0.0502   19.9010 C   0  0  0  0  0  0  0  0  0  0  0  0
    5.4158    0.6008   20.1246 C   0  0  0  0  0  0  0  0  0  0  0  0
    4.8202    1.2924   19.0714 C   0  0  0  0  0  0  0  0  0  0  0  0
    5.4417    1.2956   17.8182 C   0  0  0  0  0  0  0  0  0  0  0  0
    6.6022    0.6684   17.5768 N   0  0  0  0  0  0  0  0  0  0  0  0
    7.1862    0.0269   18.6001 C   0  0  0  0  0  0  0  0  0  0  0  0
    8.1362   -0.4589   18.3883 H   0  0  0  0  0  0  0  0  0  0  0  0
    4.9876    1.8214   16.9805 H   0  0  0  0  0  0  0  0  0  0  0  0
    3.8914    1.8287   19.2193 H   0  0  0  0  0  0  0  0  0  0  0  0
    4.9694    0.5731   21.1208 H   0  0  0  0  0  0  0  0  0  0  0  0
    9.2361   -1.1161   20.2989 H   0  0  0  0  0  0  0  0  0  0  0  0
    8.9977   -1.2143   22.0312 H   0  0  0  0  0  0  0  0  0  0  0  0
    8.7783    1.3180   22.1298 H   0  0  0  0  0  0  0  0  0  0  0  0
    8.9876    1.3760   20.3795 H   0  0  0  0  0  0  0  0  0  0  0  0
   10.3174    0.7969   21.4157 H   0  0  0  0  0  0  0  0  0  0  0  0
  1  2  1  0
  2  3  1  0
  3  4  1  0
  4  5  2  0
  4  6  1  0
  6  7  1  0
  7  8  1  0
  7  9  1  0
  7 10  1  0
  6 11  1  0
 11 12  1  0
 12 13  2  3
 13 14  1  0
 14 15  2  0
 15 16  1  0
 16 17  2  0
 17 18  1  0
 18 19  2  0
 19 20  1  0
 18 21  1  0
 17 22  1  0
 16 23  1  0
 15 24  1  0
 13 25  1  0
 12 26  1  0
 26 27  1  0
 26 28  1  0
 26 29  1  0
 11 30  1  0
 11 31  1  0
  3 32  1  0
 32 33  2  0
 33 34  1  0
 34 35  2  0
 35 36  1  0
 36 37  2  0
 37 38  1  0
 35 39  1  0
 34 40  1  0
 33 41  1  0
  2 42  1  0
  2 43  1  0
  1 44  1  0
  1 45  1  0
  1 46  1  0
 19 14  1  0
 37 32  1  0
M  END
>  <cnnaffinity>  (1) 
-5.47252

>  <filename>  (1) 
CCN(C(=O)N(C)CC(C)=Cc1ccccc1)c1cccnc1

$$$$
