
     RDKit          3D

 37 39  0  0  0  0  0  0  0  0999 V2000
   10.6644   -0.8888   22.4047 C   0  0  0  0  0  0  0  0  0  0  0  0
    9.9274   -0.6205   21.1061 C   0  0  0  0  0  0  0  0  0  0  0  0
    8.6324    0.0275   21.3168 N   0  0  0  0  0  0  0  0  0  0  0  0
    7.4016   -0.6888   20.9958 C   0  0  0  0  0  0  0  0  0  0  0  0
    6.6325   -0.0028   19.8982 C   0  0  0  0  0  0  0  0  0  0  0  0
    5.4201    0.6455   20.1504 C   0  0  0  0  0  0  0  0  0  0  0  0
    4.7952    1.3147   19.0959 C   0  0  0  0  0  0  0  0  0  0  0  0
    5.3973    1.2946   17.8347 C   0  0  0  0  0  0  0  0  0  0  0  0
    6.5600    0.6782   17.5765 N   0  0  0  0  0  0  0  0  0  0  0  0
    7.1605    0.0633   18.6005 C   0  0  0  0  0  0  0  0  0  0  0  0
    8.1120   -0.4151   18.3662 H   0  0  0  0  0  0  0  0  0  0  0  0
    4.9219    1.7860   16.9889 H   0  0  0  0  0  0  0  0  0  0  0  0
    3.8668    1.8506   19.2441 H   0  0  0  0  0  0  0  0  0  0  0  0
    5.0024    0.6331   21.1612 H   0  0  0  0  0  0  0  0  0  0  0  0
    7.6801   -1.7042   20.6791 H   0  0  0  0  0  0  0  0  0  0  0  0
    6.7919   -0.7774   21.9027 H   0  0  0  0  0  0  0  0  0  0  0  0
    8.6575    1.3713   21.6673 C   0  0  0  0  0  0  0  0  0  0  0  0
    9.5913    2.0853   21.3158 O   0  0  0  0  0  0  0  0  0  0  0  0
    7.5464    1.9445   22.5382 C   0  0  0  0  0  0  0  0  0  0  0  0
    7.2815    3.2939   22.6917 C   0  0  0  0  0  0  0  0  0  0  0  0
    6.2535    3.3792   23.6010 N   0  0  0  0  0  0  0  0  0  0  0  0
    5.5541    4.4659   24.1143 C   0  0  0  0  0  0  0  0  0  0  0  0
    4.5457    4.2610   25.0069 C   0  0  0  0  0  0  0  0  0  0  0  0
    4.2055    2.9130   25.4180 C   0  0  0  0  0  0  0  0  0  0  0  0
    4.8918    1.8422   24.9156 C   0  0  0  0  0  0  0  0  0  0  0  0
    5.9493    2.0630   23.9739 C   0  0  0  0  0  0  0  0  0  0  0  0
    6.7103    1.1971   23.3348 N   0  0  0  0  0  0  0  0  0  0  0  0
    4.6834    0.8086   25.1824 H   0  0  0  0  0  0  0  0  0  0  0  0
    3.3965    2.7580   26.1348 H   0  0  0  0  0  0  0  0  0  0  0  0
    3.9912    5.1071   25.4157 H   0  0  0  0  0  0  0  0  0  0  0  0
    5.8710    5.4393   23.7479 H   0  0  0  0  0  0  0  0  0  0  0  0
    7.7275    4.1733   22.2462 H   0  0  0  0  0  0  0  0  0  0  0  0
    9.7722   -1.5453   20.5390 H   0  0  0  0  0  0  0  0  0  0  0  0
   10.5338    0.0506   20.5178 H   0  0  0  0  0  0  0  0  0  0  0  0
   10.8801    0.0596   22.9088 H   0  0  0  0  0  0  0  0  0  0  0  0
   11.6193   -1.3848   22.1960 H   0  0  0  0  0  0  0  0  0  0  0  0
   10.0642   -1.5203   23.0637 H   0  0  0  0  0  0  0  0  0  0  0  0
  1  2  1  0
  2  3  1  0
  3  4  1  0
  4  5  1  0
  5  6  2  0
  6  7  1  0
  7  8  2  0
  8  9  1  0
  9 10  2  0
 10 11  1  0
  8 12  1  0
  7 13  1  0
  6 14  1  0
  4 15  1  0
  4 16  1  0
  3 17  1  0
 17 18  2  0
 17 19  1  0
 19 20  2  0
 20 21  1  0
 21 22  1  0
 22 23  2  0
 23 24  1  0
 24 25  2  0
 25 26  1  0
 26 27  2  0
 25 28  1  0
 24 29  1  0
 23 30  1  0
 22 31  1  0
 20 32  1  0
  2 33  1  0
  2 34  1  0
  1 35  1  0
  1 36  1  0
  1 37  1  0
 10  5  1  0
 27 19  1  0
 26 21  1  0
M  END
>  <cnnaffinity>  (1) 
-5.1145

>  <filename>  (1) 
CCN(Cc1cccnc1)C(=O)c1cn2ccccc2n1

$$$$
