
     RDKit          3D

 39 39  0  0  0  0  0  0  0  0999 V2000
    4.9483    1.8158   16.9422 H   0  0  0  0  0  0  0  0  0  0  0  0
    5.4297    1.3221   17.7853 C   0  0  0  0  0  0  0  0  0  0  0  0
    6.5994    0.7172   17.5250 N   0  0  0  0  0  0  0  0  0  0  0  0
    7.2029    0.0800   18.5375 C   0  0  0  0  0  0  0  0  0  0  0  0
    8.1527   -0.3986   18.3090 H   0  0  0  0  0  0  0  0  0  0  0  0
    6.6782   -0.0063   19.8476 C   0  0  0  0  0  0  0  0  0  0  0  0
    7.3773   -0.6967   20.8880 N   0  0  0  0  0  0  0  0  0  0  0  0
    8.3094   -0.3846   21.1051 H   0  0  0  0  0  0  0  0  0  0  0  0
    6.8071   -1.6165   21.7461 C   0  0  0  0  0  0  0  0  0  0  0  0
    5.7801   -2.2061   21.4868 O   0  0  0  0  0  0  0  0  0  0  0  0
    7.6517   -1.9692   23.0544 C   0  0  0  0  0  0  0  0  0  0  0  0
    8.6149   -1.0213   23.2872 F   0  0  0  0  0  0  0  0  0  0  0  0
    8.3605   -3.1141   22.7975 F   0  0  0  0  0  0  0  0  0  0  0  0
    6.8775   -2.1037   24.1599 O   0  0  0  0  0  0  0  0  0  0  0  0
    7.4552   -2.7478   25.3227 C   0  0  0  0  0  0  0  0  0  0  0  0
    7.0413   -2.2364   26.1969 H   0  0  0  0  0  0  0  0  0  0  0  0
    8.5455   -2.6269   25.3381 H   0  0  0  0  0  0  0  0  0  0  0  0
    7.0673   -4.2400   25.3787 C   0  0  0  0  0  0  0  0  0  0  0  0
    5.9780   -4.2851   25.5221 H   0  0  0  0  0  0  0  0  0  0  0  0
    7.2565   -4.6998   24.3931 H   0  0  0  0  0  0  0  0  0  0  0  0
    7.7606   -4.9358   26.4669 N   0  0  0  0  0  0  0  0  0  0  0  0
    6.9964   -5.9801   27.1643 C   0  0  0  0  0  0  0  0  0  0  0  0
    7.6914   -6.6331   27.7129 H   0  0  0  0  0  0  0  0  0  0  0  0
    6.4556   -6.6455   26.4612 H   0  0  0  0  0  0  0  0  0  0  0  0
    6.0278   -5.3825   28.1809 C   0  0  0  0  0  0  0  0  0  0  0  0
    5.3219   -4.6958   27.6991 H   0  0  0  0  0  0  0  0  0  0  0  0
    6.5848   -4.8248   28.9432 H   0  0  0  0  0  0  0  0  0  0  0  0
    5.4565   -6.1743   28.6800 H   0  0  0  0  0  0  0  0  0  0  0  0
    9.1489   -5.3163   26.1758 C   0  0  0  0  0  0  0  0  0  0  0  0
    9.5392   -4.6996   25.3528 H   0  0  0  0  0  0  0  0  0  0  0  0
    9.2233   -6.3666   25.8267 H   0  0  0  0  0  0  0  0  0  0  0  0
   10.0068   -5.0756   27.4138 C   0  0  0  0  0  0  0  0  0  0  0  0
   11.0354   -5.4145   27.2754 H   0  0  0  0  0  0  0  0  0  0  0  0
   10.0103   -4.0063   27.6391 H   0  0  0  0  0  0  0  0  0  0  0  0
    9.5760   -5.5854   28.2800 H   0  0  0  0  0  0  0  0  0  0  0  0
    5.4640    0.6373   20.1049 C   0  0  0  0  0  0  0  0  0  0  0  0
    5.0450    0.6194   21.1139 H   0  0  0  0  0  0  0  0  0  0  0  0
    4.8331    1.3170   19.0524 C   0  0  0  0  0  0  0  0  0  0  0  0
    3.8930    1.8366   19.1956 H   0  0  0  0  0  0  0  0  0  0  0  0
  1  2  1  0
  2  3  2  0
  3  4  1  0
  4  5  1  0
  4  6  2  0
  6  7  1  0
  7  8  1  0
  7  9  1  0
  9 10  2  0
  9 11  1  0
 11 12  1  0
 11 13  1  0
 11 14  1  0
 14 15  1  0
 15 16  1  0
 15 17  1  0
 15 18  1  0
 18 19  1  0
 18 20  1  0
 18 21  1  0
 21 22  1  0
 22 23  1  0
 22 24  1  0
 22 25  1  0
 25 26  1  0
 25 27  1  0
 25 28  1  0
 21 29  1  0
 29 30  1  0
 29 31  1  0
 29 32  1  0
 32 33  1  0
 32 34  1  0
 32 35  1  0
  6 36  1  0
 36 37  1  0
 36 38  2  0
 38 39  1  0
 38  2  1  0
M  END
>  <cnnaffinity>  (1) 
-4.60349

>  <filename>  (1) 
CCN(CC)CCOC(F)(F)C(=O)Nc1cccnc1

$$$$
