
     RDKit          3D

 42 43  0  0  0  0  0  0  0  0999 V2000
    8.5797    0.9911   22.2622 C   0  0  0  0  0  0  0  0  0  0  0  0
    8.6387   -0.2563   21.3819 C   0  0  0  0  0  0  0  0  0  0  0  0
    7.3097   -0.7526   20.9967 N   0  0  0  0  0  0  0  0  0  0  0  0
    6.6082   -1.7908   21.6430 C   0  0  0  0  0  0  0  0  0  0  0  0
    5.6367   -2.3352   21.1462 O   0  0  0  0  0  0  0  0  0  0  0  0
    7.1156   -2.1766   22.8542 N   0  0  0  0  0  0  0  0  0  0  0  0
    6.5730   -3.3175   23.5975 C   0  0  0  0  0  0  0  0  0  0  0  0
    5.3490   -2.9703   24.4606 C   0  0  0  0  0  0  0  0  0  0  0  0
    5.1441   -3.7909   25.1612 H   0  0  0  0  0  0  0  0  0  0  0  0
    5.4920   -2.0601   25.0524 H   0  0  0  0  0  0  0  0  0  0  0  0
    4.4644   -2.8351   23.8330 H   0  0  0  0  0  0  0  0  0  0  0  0
    7.6517   -3.9849   24.4477 C   0  0  0  0  0  0  0  0  0  0  0  0
    8.1344   -3.3143   25.5819 C   0  0  0  0  0  0  0  0  0  0  0  0
    9.0824   -3.8897   26.4294 C   0  0  0  0  0  0  0  0  0  0  0  0
    9.5575   -5.1721   26.1581 C   0  0  0  0  0  0  0  0  0  0  0  0
    9.0990   -5.8606   25.0329 C   0  0  0  0  0  0  0  0  0  0  0  0
    8.1536   -5.2808   24.1711 C   0  0  0  0  0  0  0  0  0  0  0  0
    7.6720   -6.0534   22.9509 C   0  0  0  0  0  0  0  0  0  0  0  0
    8.3295   -7.2054   22.7529 F   0  0  0  0  0  0  0  0  0  0  0  0
    7.8138   -5.3381   21.8098 F   0  0  0  0  0  0  0  0  0  0  0  0
    6.3604   -6.3708   23.0425 F   0  0  0  0  0  0  0  0  0  0  0  0
    9.4965   -6.8512   24.8265 H   0  0  0  0  0  0  0  0  0  0  0  0
   10.2879   -5.6381   26.8131 H   0  0  0  0  0  0  0  0  0  0  0  0
    9.4335   -3.3391   27.2972 H   0  0  0  0  0  0  0  0  0  0  0  0
    7.7449   -2.3296   25.8222 H   0  0  0  0  0  0  0  0  0  0  0  0
    6.2270   -4.0233   22.8425 H   0  0  0  0  0  0  0  0  0  0  0  0
    7.7618   -1.5417   23.2833 H   0  0  0  0  0  0  0  0  0  0  0  0
    6.6560   -0.0486   19.9263 C   0  0  0  0  0  0  0  0  0  0  0  0
    5.4456    0.6202   20.1686 C   0  0  0  0  0  0  0  0  0  0  0  0
    4.8230    1.2999   19.1161 C   0  0  0  0  0  0  0  0  0  0  0  0
    5.4303    1.2868   17.8563 C   0  0  0  0  0  0  0  0  0  0  0  0
    6.5929    0.6661   17.6035 N   0  0  0  0  0  0  0  0  0  0  0  0
    7.1944    0.0327   18.6184 C   0  0  0  0  0  0  0  0  0  0  0  0
    8.1411   -0.4524   18.3771 H   0  0  0  0  0  0  0  0  0  0  0  0
    4.9629    1.7906   17.0138 H   0  0  0  0  0  0  0  0  0  0  0  0
    3.8881    1.8354   19.2591 H   0  0  0  0  0  0  0  0  0  0  0  0
    5.0139    0.5983   21.1697 H   0  0  0  0  0  0  0  0  0  0  0  0
    9.1663   -0.0082   20.4530 H   0  0  0  0  0  0  0  0  0  0  0  0
    9.2362   -1.0536   21.8419 H   0  0  0  0  0  0  0  0  0  0  0  0
    9.5876    1.3138   22.5463 H   0  0  0  0  0  0  0  0  0  0  0  0
    8.0090    0.8291   23.1840 H   0  0  0  0  0  0  0  0  0  0  0  0
    8.1113    1.8160   21.7155 H   0  0  0  0  0  0  0  0  0  0  0  0
  1  2  1  0
  2  3  1  0
  3  4  1  0
  4  5  2  0
  4  6  1  0
  6  7  1  0
  7  8  1  0
  8  9  1  0
  8 10  1  0
  8 11  1  0
  7 12  1  0
 12 13  2  0
 13 14  1  0
 14 15  2  0
 15 16  1  0
 16 17  2  0
 17 18  1  0
 18 19  1  0
 18 20  1  0
 18 21  1  0
 16 22  1  0
 15 23  1  0
 14 24  1  0
 13 25  1  0
  7 26  1  0
  6 27  1  0
  3 28  1  0
 28 29  2  0
 29 30  1  0
 30 31  2  0
 31 32  1  0
 32 33  2  0
 33 34  1  0
 31 35  1  0
 30 36  1  0
 29 37  1  0
  2 38  1  0
  2 39  1  0
  1 40  1  0
  1 41  1  0
  1 42  1  0
 17 12  1  0
 33 28  1  0
M  END
>  <cnnaffinity>  (1) 
-5.62609

>  <filename>  (1) 
CCN(C(=O)NC(C)c1ccccc1C(F)(F)F)c1cccnc1

$$$$
