
     RDKit          3D

 36 37  0  0  0  0  0  0  0  0999 V2000
   11.9642    2.3935   22.4500 C   0  0  0  0  0  0  0  0  0  0  0  0
   10.5432    2.9101   22.2530 C   0  0  0  0  0  0  0  0  0  0  0  0
    9.4852    1.9774   22.6230 N   0  0  0  0  0  0  0  0  0  0  0  0
    9.0648    1.0679   21.6464 C   0  0  0  0  0  0  0  0  0  0  0  0
    9.5968    1.0117   20.5441 O   0  0  0  0  0  0  0  0  0  0  0  0
    8.0275    0.2664   21.9899 N   0  0  0  0  0  0  0  0  0  0  0  0
    7.4355   -0.6574   21.0370 C   0  0  0  0  0  0  0  0  0  0  0  0
    6.6720    0.0296   19.9182 C   0  0  0  0  0  0  0  0  0  0  0  0
    5.4446    0.6637   20.1510 C   0  0  0  0  0  0  0  0  0  0  0  0
    4.8008    1.3089   19.0931 C   0  0  0  0  0  0  0  0  0  0  0  0
    5.4015    1.2896   17.8304 C   0  0  0  0  0  0  0  0  0  0  0  0
    6.5663    0.6759   17.5782 N   0  0  0  0  0  0  0  0  0  0  0  0
    7.1802    0.0794   18.6106 C   0  0  0  0  0  0  0  0  0  0  0  0
    8.1344   -0.3974   18.3775 H   0  0  0  0  0  0  0  0  0  0  0  0
    4.9299    1.7918   16.9854 H   0  0  0  0  0  0  0  0  0  0  0  0
    3.8645    1.8427   19.2356 H   0  0  0  0  0  0  0  0  0  0  0  0
    5.0015    0.6504   21.1494 H   0  0  0  0  0  0  0  0  0  0  0  0
    6.7700   -1.3251   21.5982 H   0  0  0  0  0  0  0  0  0  0  0  0
    8.2296   -1.2768   20.6042 H   0  0  0  0  0  0  0  0  0  0  0  0
    7.5368    0.5219   22.8287 H   0  0  0  0  0  0  0  0  0  0  0  0
    9.1310    1.9107   24.0006 C   0  0  0  0  0  0  0  0  0  0  0  0
    8.3819    2.9547   24.5667 C   0  0  0  0  0  0  0  0  0  0  0  0
    7.9735    2.9116   25.9049 C   0  0  0  0  0  0  0  0  0  0  0  0
    8.3381    1.8188   26.7022 C   0  0  0  0  0  0  0  0  0  0  0  0
    9.1160    0.7858   26.1647 C   0  0  0  0  0  0  0  0  0  0  0  0
    9.5153    0.8375   24.8266 C   0  0  0  0  0  0  0  0  0  0  0  0
   10.5022   -0.4539   24.1990 Cl  0  0  0  0  0  0  0  0  0  0  0  0
    9.4189   -0.0670   26.7683 H   0  0  0  0  0  0  0  0  0  0  0  0
    8.0253    1.7627   27.7426 H   0  0  0  0  0  0  0  0  0  0  0  0
    7.3816    3.7256   26.3241 H   0  0  0  0  0  0  0  0  0  0  0  0
    8.1286    3.7963   23.9246 H   0  0  0  0  0  0  0  0  0  0  0  0
   10.3762    3.8494   22.7992 H   0  0  0  0  0  0  0  0  0  0  0  0
   10.4159    3.0840   21.1854 H   0  0  0  0  0  0  0  0  0  0  0  0
   12.2125    2.1327   23.4843 H   0  0  0  0  0  0  0  0  0  0  0  0
   12.1362    1.5253   21.8078 H   0  0  0  0  0  0  0  0  0  0  0  0
   12.6458    3.1885   22.1312 H   0  0  0  0  0  0  0  0  0  0  0  0
  1  2  1  0
  2  3  1  0
  3  4  1  0
  4  5  2  0
  4  6  1  0
  6  7  1  0
  7  8  1  0
  8  9  2  0
  9 10  1  0
 10 11  2  0
 11 12  1  0
 12 13  2  0
 13 14  1  0
 11 15  1  0
 10 16  1  0
  9 17  1  0
  7 18  1  0
  7 19  1  0
  6 20  1  0
  3 21  1  0
 21 22  2  0
 22 23  1  0
 23 24  2  0
 24 25  1  0
 25 26  2  0
 26 27  1  0
 25 28  1  0
 24 29  1  0
 23 30  1  0
 22 31  1  0
  2 32  1  0
  2 33  1  0
  1 34  1  0
  1 35  1  0
  1 36  1  0
 13  8  1  0
 26 21  1  0
M  END
>  <cnnaffinity>  (1) 
-5.26199

>  <filename>  (1) 
CCN(C(=O)NCc1cccnc1)c1ccccc1Cl

$$$$
