
     RDKit          3D

 39 41  0  0  0  0  0  0  0  0999 V2000
    5.1688    1.9761   16.4713 H   0  0  0  0  0  0  0  0  0  0  0  0
    5.5642    1.4260   17.3237 C   0  0  0  0  0  0  0  0  0  0  0  0
    6.7170    0.7739   17.1291 N   0  0  0  0  0  0  0  0  0  0  0  0
    7.2508    0.1271   18.1737 C   0  0  0  0  0  0  0  0  0  0  0  0
    8.1833   -0.3993   17.9652 H   0  0  0  0  0  0  0  0  0  0  0  0
    6.6855    0.0854   19.4607 C   0  0  0  0  0  0  0  0  0  0  0  0
    7.3203   -0.6930   20.5981 C   0  0  1  0  0  0  0  0  0  0  0  0
    6.9206   -1.7177   20.5288 H   0  0  0  0  0  0  0  0  0  0  0  0
    8.8785   -0.8153   20.6113 C   0  0  0  0  0  0  0  0  0  0  0  0
    9.2737   -1.5594   19.9156 H   0  0  0  0  0  0  0  0  0  0  0  0
    9.3372    0.1565   20.3898 H   0  0  0  0  0  0  0  0  0  0  0  0
    9.1380   -1.1732   22.0518 C   0  0  0  0  0  0  0  0  0  0  0  0
   10.1332   -1.7427   22.7047 N   0  0  0  0  0  0  0  0  0  0  0  0
    9.6314   -1.8381   23.9675 N   0  0  0  0  0  0  0  0  0  0  0  0
   10.2144   -2.0782   24.7520 H   0  0  0  0  0  0  0  0  0  0  0  0
    8.3737   -1.3138   24.1112 C   0  0  0  0  0  0  0  0  0  0  0  0
    7.7333   -1.3416   25.3436 N   0  0  0  0  0  0  0  0  0  0  0  0
    7.4772   -2.6361   25.9830 C   0  0  0  0  0  0  0  0  0  0  0  0
    7.4787   -3.4205   25.2172 H   0  0  0  0  0  0  0  0  0  0  0  0
    6.4727   -2.6260   26.4347 H   0  0  0  0  0  0  0  0  0  0  0  0
    8.4901   -2.9459   27.0759 C   0  0  0  0  0  0  0  0  0  0  0  0
    8.5186   -2.1153   27.7864 H   0  0  0  0  0  0  0  0  0  0  0  0
    8.2150   -3.8666   27.6051 H   0  0  0  0  0  0  0  0  0  0  0  0
    9.5000   -3.0731   26.6708 H   0  0  0  0  0  0  0  0  0  0  0  0
    6.7942   -0.2690   25.6464 C   0  0  0  0  0  0  0  0  0  0  0  0
    7.0366    0.5894   25.0151 H   0  0  0  0  0  0  0  0  0  0  0  0
    5.7576   -0.5526   25.3920 H   0  0  0  0  0  0  0  0  0  0  0  0
    6.8653    0.1470   27.1095 C   0  0  0  0  0  0  0  0  0  0  0  0
    7.8663    0.5109   27.3581 H   0  0  0  0  0  0  0  0  0  0  0  0
    6.1504    0.9458   27.3247 H   0  0  0  0  0  0  0  0  0  0  0  0
    6.6338   -0.6869   27.7775 H   0  0  0  0  0  0  0  0  0  0  0  0
    8.0425   -0.8431   22.8591 C   0  0  0  0  0  0  0  0  0  0  0  0
    6.9853   -0.1774   22.0340 C   0  0  0  0  0  0  0  0  0  0  0  0
    7.1218    0.9160   22.0576 H   0  0  0  0  0  0  0  0  0  0  0  0
    5.9486   -0.3830   22.3292 H   0  0  0  0  0  0  0  0  0  0  0  0
    5.4431    0.7251   19.6197 C   0  0  0  0  0  0  0  0  0  0  0  0
    4.9094    0.6682   20.5709 H   0  0  0  0  0  0  0  0  0  0  0  0
    4.8873    1.4167   18.5450 C   0  0  0  0  0  0  0  0  0  0  0  0
    3.9516    1.9537   18.6425 H   0  0  0  0  0  0  0  0  0  0  0  0
  1  2  1  0
  2  3  2  0
  3  4  1  0
  4  5  1  0
  4  6  2  0
  6  7  1  0
  7  8  1  1
  7  9  1  0
  9 10  1  0
  9 11  1  0
  9 12  1  0
 12 13  2  0
 13 14  1  0
 14 15  1  0
 14 16  1  0
 16 17  1  0
 17 18  1  0
 18 19  1  0
 18 20  1  0
 18 21  1  0
 21 22  1  0
 21 23  1  0
 21 24  1  0
 17 25  1  0
 25 26  1  0
 25 27  1  0
 25 28  1  0
 28 29  1  0
 28 30  1  0
 28 31  1  0
 16 32  2  0
 32 33  1  0
 33 34  1  0
 33 35  1  0
  6 36  1  0
 36 37  1  0
 36 38  2  0
 38 39  1  0
 38  2  1  0
 33  7  1  0
 32 12  1  0
M  END
>  <cnnaffinity>  (1) 
-4.93939

>  <filename>  (1) 
CCN(CC)c1[nH]nc2c1C[C@@H](c1cccnc1)C2

$$$$
