
     RDKit          3D

 40 42  0  0  0  0  0  0  0  0999 V2000
   10.5555   -1.8267   22.0107 C   0  0  0  0  0  0  0  0  0  0  0  0
    9.8346   -1.2432   20.8006 C   0  0  0  0  0  0  0  0  0  0  0  0
    8.7657   -0.2947   21.1388 N   0  0  0  0  0  0  0  0  0  0  0  0
    7.3579   -0.6796   21.0482 C   0  0  0  0  0  0  0  0  0  0  0  0
    6.6022    0.0345   19.9379 C   0  0  0  0  0  0  0  0  0  0  0  0
    5.3583    0.6594   20.1217 C   0  0  0  0  0  0  0  0  0  0  0  0
    4.7591    1.3109   19.0364 C   0  0  0  0  0  0  0  0  0  0  0  0
    5.4169    1.3096   17.8026 C   0  0  0  0  0  0  0  0  0  0  0  0
    6.5894    0.6922   17.5947 N   0  0  0  0  0  0  0  0  0  0  0  0
    7.1524    0.0825   18.6443 C   0  0  0  0  0  0  0  0  0  0  0  0
    8.1016   -0.4126   18.4444 H   0  0  0  0  0  0  0  0  0  0  0  0
    4.9842    1.8265   16.9467 H   0  0  0  0  0  0  0  0  0  0  0  0
    3.8184    1.8440   19.1406 H   0  0  0  0  0  0  0  0  0  0  0  0
    4.8610    0.6655   21.0966 H   0  0  0  0  0  0  0  0  0  0  0  0
    7.3103   -1.7620   20.8812 H   0  0  0  0  0  0  0  0  0  0  0  0
    6.8393   -0.5100   22.0017 H   0  0  0  0  0  0  0  0  0  0  0  0
    9.1611    0.9966   21.4700 C   0  0  0  0  0  0  0  0  0  0  0  0
   10.2462    1.4300   21.1138 O   0  0  0  0  0  0  0  0  0  0  0  0
    8.1438    1.8157   22.3323 C   0  0  1  0  0  0  0  0  0  0  0  0
    7.8958    1.1641   23.7397 C   0  0  0  0  0  0  0  0  0  0  0  0
    8.2018    2.2836   24.7022 C   0  0  0  0  0  0  0  0  0  0  0  0
    8.1052    2.3589   26.0941 C   0  0  0  0  0  0  0  0  0  0  0  0
    8.4018    3.5804   26.7206 C   0  0  0  0  0  0  0  0  0  0  0  0
    8.8735    4.6746   25.9784 C   0  0  0  0  0  0  0  0  0  0  0  0
    9.0345    4.5795   24.5917 C   0  0  0  0  0  0  0  0  0  0  0  0
    8.6205    3.4022   23.9693 C   0  0  0  0  0  0  0  0  0  0  0  0
    8.4793    3.2165   22.6038 N   0  0  0  0  0  0  0  0  0  0  0  0
    9.1760    3.6555   22.0122 H   0  0  0  0  0  0  0  0  0  0  0  0
    9.4635    5.3851   24.0024 H   0  0  0  0  0  0  0  0  0  0  0  0
    9.0950    5.6062   26.4916 H   0  0  0  0  0  0  0  0  0  0  0  0
    8.2221    3.6970   27.7848 H   0  0  0  0  0  0  0  0  0  0  0  0
    7.8024    1.4970   26.6920 H   0  0  0  0  0  0  0  0  0  0  0  0
    8.5427    0.2930   23.9091 H   0  0  0  0  0  0  0  0  0  0  0  0
    6.8586    0.8180   23.8363 H   0  0  0  0  0  0  0  0  0  0  0  0
    7.2042    1.7941   21.7715 H   0  0  0  0  0  0  0  0  0  0  0  0
   10.5655   -0.6889   20.2084 H   0  0  0  0  0  0  0  0  0  0  0  0
    9.4084   -2.0459   20.1853 H   0  0  0  0  0  0  0  0  0  0  0  0
   11.4042   -2.4252   21.6645 H   0  0  0  0  0  0  0  0  0  0  0  0
   10.9597   -1.0345   22.6511 H   0  0  0  0  0  0  0  0  0  0  0  0
    9.9083   -2.4774   22.6069 H   0  0  0  0  0  0  0  0  0  0  0  0
  1  2  1  0
  2  3  1  0
  3  4  1  0
  4  5  1  0
  5  6  2  0
  6  7  1  0
  7  8  2  0
  8  9  1  0
  9 10  2  0
 10 11  1  0
  8 12  1  0
  7 13  1  0
  6 14  1  0
  4 15  1  0
  4 16  1  0
  3 17  1  0
 17 18  2  0
 17 19  1  0
 19 20  1  0
 20 21  1  0
 21 22  2  0
 22 23  1  0
 23 24  2  0
 24 25  1  0
 25 26  2  0
 26 27  1  0
 27 28  1  0
 25 29  1  0
 24 30  1  0
 23 31  1  0
 22 32  1  0
 20 33  1  0
 20 34  1  0
 19 35  1  6
  2 36  1  0
  2 37  1  0
  1 38  1  0
  1 39  1  0
  1 40  1  0
 10  5  1  0
 27 19  1  0
 26 21  1  0
M  END
>  <cnnaffinity>  (1) 
-5.27408

>  <filename>  (1) 
CCN(Cc1cccnc1)C(=O)[C@H]1Cc2ccccc2N1

$$$$
