
     RDKit          3D

 31 32  0  0  0  0  0  0  0  0999 V2000
    8.7813   -3.1737   22.1135 H   0  0  0  0  0  0  0  0  0  0  0  0
    8.3020   -2.2167   21.9446 C   0  0  0  0  0  0  0  0  0  0  0  0
    8.0840   -1.3072   22.9274 N   0  0  0  0  0  0  0  0  0  0  0  0
    7.5131   -0.3167   22.2567 C   0  0  0  0  0  0  0  0  0  0  0  0
    7.1191    0.9012   22.7538 N   0  0  0  0  0  0  0  0  0  0  0  0
    6.4547    0.9440   24.0500 C   0  0  0  0  0  0  0  0  0  0  0  0
    5.8568    0.0331   24.1471 H   0  0  0  0  0  0  0  0  0  0  0  0
    5.7424    1.7833   24.0363 H   0  0  0  0  0  0  0  0  0  0  0  0
    7.3982    1.0882   25.2348 C   0  0  0  0  0  0  0  0  0  0  0  0
    8.1155    0.2632   25.2347 H   0  0  0  0  0  0  0  0  0  0  0  0
    7.9459    2.0346   25.1802 H   0  0  0  0  0  0  0  0  0  0  0  0
    6.8375    1.0772   26.1772 H   0  0  0  0  0  0  0  0  0  0  0  0
    7.7171    2.1248   22.2126 C   0  0  0  0  0  0  0  0  0  0  0  0
    7.3495    2.2853   21.1925 H   0  0  0  0  0  0  0  0  0  0  0  0
    7.3505    2.9750   22.8010 H   0  0  0  0  0  0  0  0  0  0  0  0
    9.2439    2.1184   22.2097 C   0  0  0  0  0  0  0  0  0  0  0  0
    9.6344    3.0783   21.8547 H   0  0  0  0  0  0  0  0  0  0  0  0
    9.6368    1.9440   23.2166 H   0  0  0  0  0  0  0  0  0  0  0  0
    9.6250    1.3278   21.5568 H   0  0  0  0  0  0  0  0  0  0  0  0
    7.3626   -0.6689   20.9365 N   0  0  0  0  0  0  0  0  0  0  0  0
    6.6537    0.0020   19.8999 C   0  0  0  0  0  0  0  0  0  0  0  0
    7.1744    0.0414   18.5954 C   0  0  0  0  0  0  0  0  0  0  0  0
    8.1235   -0.4408   18.3708 H   0  0  0  0  0  0  0  0  0  0  0  0
    6.5721    0.6729   17.5886 N   0  0  0  0  0  0  0  0  0  0  0  0
    5.4054    1.2928   17.8400 C   0  0  0  0  0  0  0  0  0  0  0  0
    4.9228    1.7827   16.9957 H   0  0  0  0  0  0  0  0  0  0  0  0
    4.8103    1.3044   19.1047 C   0  0  0  0  0  0  0  0  0  0  0  0
    3.8791    1.8393   19.2597 H   0  0  0  0  0  0  0  0  0  0  0  0
    5.4365    0.6445   20.1640 C   0  0  0  0  0  0  0  0  0  0  0  0
    5.0100    0.6334   21.1668 H   0  0  0  0  0  0  0  0  0  0  0  0
    7.8949   -1.9014   20.7367 N   0  0  0  0  0  0  0  0  0  0  0  0
  1  2  1  0
  2  3  1  0
  3  4  2  0
  4  5  1  0
  5  6  1  0
  6  7  1  0
  6  8  1  0
  6  9  1  0
  9 10  1  0
  9 11  1  0
  9 12  1  0
  5 13  1  0
 13 14  1  0
 13 15  1  0
 13 16  1  0
 16 17  1  0
 16 18  1  0
 16 19  1  0
  4 20  1  0
 20 21  1  0
 21 22  2  0
 22 23  1  0
 22 24  1  0
 24 25  2  0
 25 26  1  0
 25 27  1  0
 27 28  1  0
 27 29  2  0
 29 30  1  0
 20 31  1  0
 31  2  2  0
 29 21  1  0
M  END
>  <cnnaffinity>  (1) 
-4.66273

>  <filename>  (1) 
CCN(CC)c1ncnn1-c1cccnc1

$$$$
