
     RDKit          3D

 41 42  0  0  0  0  0  0  0  0999 V2000
    4.9337    1.7992   16.9781 H   0  0  0  0  0  0  0  0  0  0  0  0
    5.3969    1.2978   17.8258 C   0  0  0  0  0  0  0  0  0  0  0  0
    6.5580    0.6747   17.5757 N   0  0  0  0  0  0  0  0  0  0  0  0
    7.1608    0.0590   18.6021 C   0  0  0  0  0  0  0  0  0  0  0  0
    8.1068   -0.4272   18.3652 H   0  0  0  0  0  0  0  0  0  0  0  0
    6.6441    0.0023   19.9093 C   0  0  0  0  0  0  0  0  0  0  0  0
    7.3678   -0.7166   20.9901 C   0  0  0  0  0  0  0  0  0  0  0  0
    8.7594   -0.5864   21.1521 C   0  0  0  0  0  0  0  0  0  0  0  0
    9.3295    0.0534   20.4968 H   0  0  0  0  0  0  0  0  0  0  0  0
    9.3839   -1.2593   22.1930 C   0  0  0  0  0  0  0  0  0  0  0  0
   10.4594   -1.1686   22.3419 H   0  0  0  0  0  0  0  0  0  0  0  0
    8.7338   -2.0549   23.0584 N   0  0  0  0  0  0  0  0  0  0  0  0
    7.4303   -2.2052   22.8675 C   0  0  0  0  0  0  0  0  0  0  0  0
    6.7196   -3.0430   23.6409 O   0  0  0  0  0  0  0  0  0  0  0  0
    7.2865   -3.6005   24.8399 C   0  0  0  0  0  0  0  0  0  0  0  0
    6.5558   -4.3711   25.0988 H   0  0  0  0  0  0  0  0  0  0  0  0
    8.2560   -4.0581   24.6085 H   0  0  0  0  0  0  0  0  0  0  0  0
    7.4702   -2.6291   26.0263 C   0  0  0  0  0  0  0  0  0  0  0  0
    8.2504   -1.8957   25.7655 H   0  0  0  0  0  0  0  0  0  0  0  0
    7.8839   -3.2180   26.8561 H   0  0  0  0  0  0  0  0  0  0  0  0
    6.2992   -1.8969   26.5149 N   0  0  0  0  0  0  0  0  0  0  0  0
    5.9318   -0.7804   25.6284 C   0  0  0  0  0  0  0  0  0  0  0  0
    5.1638   -1.0935   24.9031 H   0  0  0  0  0  0  0  0  0  0  0  0
    6.8077   -0.4870   25.0339 H   0  0  0  0  0  0  0  0  0  0  0  0
    5.4497    0.4323   26.4172 C   0  0  0  0  0  0  0  0  0  0  0  0
    4.5325    0.2116   26.9755 H   0  0  0  0  0  0  0  0  0  0  0  0
    5.2377    1.2671   25.7394 H   0  0  0  0  0  0  0  0  0  0  0  0
    6.2152    0.7495   27.1341 H   0  0  0  0  0  0  0  0  0  0  0  0
    5.1340   -2.7255   26.8575 C   0  0  0  0  0  0  0  0  0  0  0  0
    4.7616   -3.2871   25.9767 H   0  0  0  0  0  0  0  0  0  0  0  0
    4.3262   -2.0388   27.1398 H   0  0  0  0  0  0  0  0  0  0  0  0
    5.3614   -3.6559   28.0440 C   0  0  0  0  0  0  0  0  0  0  0  0
    4.4423   -4.2072   28.2791 H   0  0  0  0  0  0  0  0  0  0  0  0
    5.6293   -3.0651   28.9199 H   0  0  0  0  0  0  0  0  0  0  0  0
    6.1441   -4.3991   27.8548 H   0  0  0  0  0  0  0  0  0  0  0  0
    6.6968   -1.5465   21.8721 C   0  0  0  0  0  0  0  0  0  0  0  0
    5.6358   -1.7393   21.8205 H   0  0  0  0  0  0  0  0  0  0  0  0
    5.4234    0.6540   20.1437 C   0  0  0  0  0  0  0  0  0  0  0  0
    4.9960    0.6524   21.1475 H   0  0  0  0  0  0  0  0  0  0  0  0
    4.7939    1.3186   19.0895 C   0  0  0  0  0  0  0  0  0  0  0  0
    3.8623    1.8545   19.2323 H   0  0  0  0  0  0  0  0  0  0  0  0
  1  2  1  0
  2  3  2  0
  3  4  1  0
  4  5  1  0
  4  6  2  0
  6  7  1  0
  7  8  2  0
  8  9  1  0
  8 10  1  0
 10 11  1  0
 10 12  2  0
 12 13  1  0
 13 14  1  0
 14 15  1  0
 15 16  1  0
 15 17  1  0
 15 18  1  0
 18 19  1  0
 18 20  1  0
 18 21  1  0
 21 22  1  0
 22 23  1  0
 22 24  1  0
 22 25  1  0
 25 26  1  0
 25 27  1  0
 25 28  1  0
 21 29  1  0
 29 30  1  0
 29 31  1  0
 29 32  1  0
 32 33  1  0
 32 34  1  0
 32 35  1  0
 13 36  2  0
 36 37  1  0
  6 38  1  0
 38 39  1  0
 38 40  2  0
 40 41  1  0
 40  2  1  0
 36  7  1  0
M  END
>  <cnnaffinity>  (1) 
-4.84157

>  <filename>  (1) 
CCN(CC)CCOc1cc(-c2cccnc2)ccn1

$$$$
