
     RDKit          3D

 36 37  0  0  0  0  0  0  0  0999 V2000
    6.6707   -1.3500   21.6207 H   0  0  0  0  0  0  0  0  0  0  0  0
    7.3196   -0.7327   20.9956 C   0  0  0  0  0  0  0  0  0  0  0  0
    8.6022   -0.5566   21.3389 C   0  0  0  0  0  0  0  0  0  0  0  0
    9.3531   -1.1780   22.4582 C   0  0  0  0  0  0  0  0  0  0  0  0
    8.8492   -2.2600   23.1624 N   0  0  0  0  0  0  0  0  0  0  0  0
    8.3549   -3.4623   22.4936 C   0  0  0  0  0  0  0  0  0  0  0  0
    9.0789   -4.2835   22.6267 H   0  0  0  0  0  0  0  0  0  0  0  0
    8.2916   -3.2769   21.4170 H   0  0  0  0  0  0  0  0  0  0  0  0
    6.9979   -3.9323   23.0117 C   0  0  0  0  0  0  0  0  0  0  0  0
    7.0635   -4.3099   24.0374 H   0  0  0  0  0  0  0  0  0  0  0  0
    6.6044   -4.7462   22.3914 H   0  0  0  0  0  0  0  0  0  0  0  0
    6.2674   -3.1183   23.0004 H   0  0  0  0  0  0  0  0  0  0  0  0
    9.1059   -2.3090   24.5976 C   0  0  0  0  0  0  0  0  0  0  0  0
    8.9670   -3.3354   24.9548 H   0  0  0  0  0  0  0  0  0  0  0  0
   10.1531   -2.0503   24.7877 H   0  0  0  0  0  0  0  0  0  0  0  0
    8.1830   -1.3745   25.3778 C   0  0  0  0  0  0  0  0  0  0  0  0
    7.1326   -1.6365   25.2025 H   0  0  0  0  0  0  0  0  0  0  0  0
    8.3761   -1.4335   26.4544 H   0  0  0  0  0  0  0  0  0  0  0  0
    8.3318   -0.3393   25.0575 H   0  0  0  0  0  0  0  0  0  0  0  0
   10.4668   -0.6001   22.7382 N   0  0  0  0  0  0  0  0  0  0  0  0
   10.6922    0.4743   21.7698 C   0  0  0  0  0  0  0  0  0  0  0  0
   10.7547    1.4259   22.3080 H   0  0  0  0  0  0  0  0  0  0  0  0
   11.6565    0.3331   21.2723 H   0  0  0  0  0  0  0  0  0  0  0  0
    9.5130    0.4919   20.7682 C   0  0  0  0  0  0  0  0  0  0  0  0
    9.7581    0.1852   19.7507 H   0  0  0  0  0  0  0  0  0  0  0  0
    9.0427    1.4798   20.6734 H   0  0  0  0  0  0  0  0  0  0  0  0
    6.6436   -0.0173   19.8990 C   0  0  0  0  0  0  0  0  0  0  0  0
    7.1646    0.0645   18.5931 C   0  0  0  0  0  0  0  0  0  0  0  0
    8.1085   -0.4286   18.3710 H   0  0  0  0  0  0  0  0  0  0  0  0
    6.5627    0.6859   17.5701 N   0  0  0  0  0  0  0  0  0  0  0  0
    5.3988    1.2992   17.8346 C   0  0  0  0  0  0  0  0  0  0  0  0
    4.9148    1.7859   16.9918 H   0  0  0  0  0  0  0  0  0  0  0  0
    4.7996    1.3136   19.1008 C   0  0  0  0  0  0  0  0  0  0  0  0
    3.8697    1.8482   19.2550 H   0  0  0  0  0  0  0  0  0  0  0  0
    5.4227    0.6343   20.1466 C   0  0  0  0  0  0  0  0  0  0  0  0
    5.0065    0.6236   21.1572 H   0  0  0  0  0  0  0  0  0  0  0  0
  1  2  1  0
  2  3  2  3
  3  4  1  0
  4  5  1  0
  5  6  1  0
  6  7  1  0
  6  8  1  0
  6  9  1  0
  9 10  1  0
  9 11  1  0
  9 12  1  0
  5 13  1  0
 13 14  1  0
 13 15  1  0
 13 16  1  0
 16 17  1  0
 16 18  1  0
 16 19  1  0
  4 20  2  0
 20 21  1  0
 21 22  1  0
 21 23  1  0
 21 24  1  0
 24 25  1  0
 24 26  1  0
  2 27  1  0
 27 28  2  0
 28 29  1  0
 28 30  1  0
 30 31  2  0
 31 32  1  0
 31 33  1  0
 33 34  1  0
 33 35  2  0
 35 36  1  0
 24  3  1  0
 35 27  1  0
M  END
>  <cnnaffinity>  (1) 
-4.99542

>  <filename>  (1) 
CCN(CC)C1=NCCC1=Cc1cccnc1

$$$$
