
     RDKit          3D

 42 43  0  0  0  0  0  0  0  0999 V2000
    4.9506    1.7918   17.0160 H   0  0  0  0  0  0  0  0  0  0  0  0
    5.4316    1.2903   17.8508 C   0  0  0  0  0  0  0  0  0  0  0  0
    6.5980    0.6840   17.5799 N   0  0  0  0  0  0  0  0  0  0  0  0
    7.2245    0.0691   18.5925 C   0  0  0  0  0  0  0  0  0  0  0  0
    8.1698   -0.4189   18.3535 H   0  0  0  0  0  0  0  0  0  0  0  0
    6.7113   -0.0073   19.9087 C   0  0  0  0  0  0  0  0  0  0  0  0
    7.3771   -0.7053   20.9627 N   0  0  0  0  0  0  0  0  0  0  0  0
    6.7473   -1.6710   21.7284 C   0  0  0  0  0  0  0  0  0  0  0  0
    5.6262   -2.1025   21.5490 O   0  0  0  0  0  0  0  0  0  0  0  0
    7.7353   -2.1599   22.7719 C   0  0  0  0  0  0  0  0  0  0  0  0
    7.6946   -3.2514   22.7532 H   0  0  0  0  0  0  0  0  0  0  0  0
    7.3972   -1.8290   23.7599 H   0  0  0  0  0  0  0  0  0  0  0  0
    9.0944   -1.5604   22.3737 C   0  0  0  0  0  0  0  0  0  0  0  0
    9.5398   -0.9694   23.1759 H   0  0  0  0  0  0  0  0  0  0  0  0
    9.8305   -2.3255   22.1227 H   0  0  0  0  0  0  0  0  0  0  0  0
    8.8357   -0.6738   21.1374 C   0  0  2  0  0  0  0  0  0  0  0  0
    9.3041   -1.1429   20.2577 H   0  0  0  0  0  0  0  0  0  0  0  0
    9.4112    0.7430   21.2269 C   0  0  0  0  0  0  0  0  0  0  0  0
   10.4576    0.6674   21.5580 H   0  0  0  0  0  0  0  0  0  0  0  0
    9.4245    1.1372   20.2113 H   0  0  0  0  0  0  0  0  0  0  0  0
    8.6563    1.7432   22.1099 C   0  0  0  0  0  0  0  0  0  0  0  0
    9.1056    2.7405   21.9582 H   0  0  0  0  0  0  0  0  0  0  0  0
    7.6294    1.8119   21.7229 H   0  0  0  0  0  0  0  0  0  0  0  0
    8.6330    1.3875   23.5333 N   0  0  0  0  0  0  0  0  0  0  0  0
    9.5815    2.1264   24.3696 C   0  0  0  0  0  0  0  0  0  0  0  0
    9.4562    3.2244   24.2683 H   0  0  0  0  0  0  0  0  0  0  0  0
    9.3581    1.8799   25.4156 H   0  0  0  0  0  0  0  0  0  0  0  0
   11.0366    1.7725   24.0885 C   0  0  0  0  0  0  0  0  0  0  0  0
   11.3586    2.1313   23.1053 H   0  0  0  0  0  0  0  0  0  0  0  0
   11.6891    2.2374   24.8362 H   0  0  0  0  0  0  0  0  0  0  0  0
   11.1854    0.6866   24.1273 H   0  0  0  0  0  0  0  0  0  0  0  0
    7.2873    1.3287   24.1126 C   0  0  0  0  0  0  0  0  0  0  0  0
    6.6792    0.6915   23.4563 H   0  0  0  0  0  0  0  0  0  0  0  0
    7.3565    0.7983   25.0746 H   0  0  0  0  0  0  0  0  0  0  0  0
    6.6048    2.6880   24.3071 C   0  0  0  0  0  0  0  0  0  0  0  0
    5.5660    2.5763   24.6247 H   0  0  0  0  0  0  0  0  0  0  0  0
    7.1186    3.2857   25.0682 H   0  0  0  0  0  0  0  0  0  0  0  0
    6.6077    3.2625   23.3720 H   0  0  0  0  0  0  0  0  0  0  0  0
    5.4820    0.6269   20.1658 C   0  0  0  0  0  0  0  0  0  0  0  0
    5.0450    0.5740   21.1607 H   0  0  0  0  0  0  0  0  0  0  0  0
    4.8341    1.2973   19.1178 C   0  0  0  0  0  0  0  0  0  0  0  0
    3.8920    1.8195   19.2739 H   0  0  0  0  0  0  0  0  0  0  0  0
  1  2  1  0
  2  3  2  0
  3  4  1  0
  4  5  1  0
  4  6  2  0
  6  7  1  0
  7  8  1  0
  8  9  2  0
  8 10  1  0
 10 11  1  0
 10 12  1  0
 10 13  1  0
 13 14  1  0
 13 15  1  0
 13 16  1  0
 16 17  1  6
 16 18  1  0
 18 19  1  0
 18 20  1  0
 18 21  1  0
 21 22  1  0
 21 23  1  0
 21 24  1  0
 24 25  1  0
 25 26  1  0
 25 27  1  0
 25 28  1  0
 28 29  1  0
 28 30  1  0
 28 31  1  0
 24 32  1  0
 32 33  1  0
 32 34  1  0
 32 35  1  0
 35 36  1  0
 35 37  1  0
 35 38  1  0
  6 39  1  0
 39 40  1  0
 39 41  2  0
 41 42  1  0
 41  2  1  0
 16  7  1  0
M  END
>  <cnnaffinity>  (1) 
-5.02528

>  <filename>  (1) 
CCN(CC)CC[C@H]1CCC(=O)N1c1cccnc1

$$$$
