
     RDKit          3D

 47 48  0  0  0  0  0  0  0  0999 V2000
    4.9160    1.7901   16.9896 H   0  0  0  0  0  0  0  0  0  0  0  0
    5.4007    1.3033   17.8323 C   0  0  0  0  0  0  0  0  0  0  0  0
    6.5625    0.6899   17.5696 N   0  0  0  0  0  0  0  0  0  0  0  0
    7.1605    0.0613   18.5866 C   0  0  0  0  0  0  0  0  0  0  0  0
    8.1094   -0.4259   18.3569 H   0  0  0  0  0  0  0  0  0  0  0  0
    6.6563   -0.0019   19.8988 C   0  0  0  0  0  0  0  0  0  0  0  0
    7.3933   -0.7291   20.9944 C   0  0  0  0  0  0  0  0  0  0  0  0
    7.9945   -1.5476   20.5713 H   0  0  0  0  0  0  0  0  0  0  0  0
    6.6658   -1.1962   21.6738 H   0  0  0  0  0  0  0  0  0  0  0  0
    8.3549    0.1377   21.8594 C   0  0  1  0  0  0  0  0  0  0  0  0
    9.0698   -0.7352   22.7340 O   0  0  0  0  0  0  0  0  0  0  0  0
    8.3254   -1.3077   23.7993 C   0  0  0  0  0  0  0  0  0  0  0  0
    8.7337   -0.9488   24.7572 H   0  0  0  0  0  0  0  0  0  0  0  0
    7.2651   -1.0186   23.7732 H   0  0  0  0  0  0  0  0  0  0  0  0
    8.4283   -2.8236   23.6959 C   0  0  0  0  0  0  0  0  0  0  0  0
    8.1053   -3.1016   22.6832 H   0  0  0  0  0  0  0  0  0  0  0  0
    9.4974   -3.0976   23.7433 H   0  0  0  0  0  0  0  0  0  0  0  0
    7.6134   -3.4881   24.7118 N   0  0  0  0  0  0  0  0  0  0  0  0
    6.9375   -4.6861   24.2265 C   0  0  0  0  0  0  0  0  0  0  0  0
    6.1901   -4.9920   24.9662 H   0  0  0  0  0  0  0  0  0  0  0  0
    6.3625   -4.3965   23.3385 H   0  0  0  0  0  0  0  0  0  0  0  0
    7.8666   -5.8487   23.8849 C   0  0  0  0  0  0  0  0  0  0  0  0
    8.3011   -6.2789   24.7934 H   0  0  0  0  0  0  0  0  0  0  0  0
    7.3327   -6.6279   23.3353 H   0  0  0  0  0  0  0  0  0  0  0  0
    8.6958   -5.5076   23.2568 H   0  0  0  0  0  0  0  0  0  0  0  0
    8.3310   -3.6549   25.9738 C   0  0  0  0  0  0  0  0  0  0  0  0
    9.1133   -4.4319   25.9086 H   0  0  0  0  0  0  0  0  0  0  0  0
    8.8700   -2.7237   26.1856 H   0  0  0  0  0  0  0  0  0  0  0  0
    7.4132   -3.9496   27.1475 C   0  0  0  0  0  0  0  0  0  0  0  0
    7.9732   -3.8784   28.0839 H   0  0  0  0  0  0  0  0  0  0  0  0
    6.5854   -3.2353   27.1758 H   0  0  0  0  0  0  0  0  0  0  0  0
    6.9927   -4.9584   27.0990 H   0  0  0  0  0  0  0  0  0  0  0  0
    9.3828    0.8952   21.0032 C   0  0  0  0  0  0  0  0  0  0  0  0
    9.6094    0.3574   20.0753 H   0  0  0  0  0  0  0  0  0  0  0  0
   10.3255    0.9697   21.5675 H   0  0  0  0  0  0  0  0  0  0  0  0
    8.8303    2.2258   20.7170 N   0  0  0  0  0  0  0  0  0  0  0  0
    8.4176    2.2895   19.7944 H   0  0  0  0  0  0  0  0  0  0  0  0
    7.8270    2.5584   21.7267 C   0  0  0  0  0  0  0  0  0  0  0  0
    8.1540    3.4214   22.3288 H   0  0  0  0  0  0  0  0  0  0  0  0
    6.8819    2.8515   21.2421 H   0  0  0  0  0  0  0  0  0  0  0  0
    7.6583    1.3045   22.6009 C   0  0  0  0  0  0  0  0  0  0  0  0
    8.1647    1.4411   23.5616 H   0  0  0  0  0  0  0  0  0  0  0  0
    6.6091    1.0940   22.8270 H   0  0  0  0  0  0  0  0  0  0  0  0
    5.4409    0.6520   20.1525 C   0  0  0  0  0  0  0  0  0  0  0  0
    5.0035    0.6327   21.1526 H   0  0  0  0  0  0  0  0  0  0  0  0
    4.8083    1.3179   19.0984 C   0  0  0  0  0  0  0  0  0  0  0  0
    3.8730    1.8439   19.2529 H   0  0  0  0  0  0  0  0  0  0  0  0
  1  2  1  0
  2  3  2  0
  3  4  1  0
  4  5  1  0
  4  6  2  0
  6  7  1  0
  7  8  1  0
  7  9  1  0
  7 10  1  0
 10 11  1  1
 11 12  1  0
 12 13  1  0
 12 14  1  0
 12 15  1  0
 15 16  1  0
 15 17  1  0
 15 18  1  0
 18 19  1  0
 19 20  1  0
 19 21  1  0
 19 22  1  0
 22 23  1  0
 22 24  1  0
 22 25  1  0
 18 26  1  0
 26 27  1  0
 26 28  1  0
 26 29  1  0
 29 30  1  0
 29 31  1  0
 29 32  1  0
 10 33  1  0
 33 34  1  0
 33 35  1  0
 33 36  1  0
 36 37  1  0
 36 38  1  0
 38 39  1  0
 38 40  1  0
 38 41  1  0
 41 42  1  0
 41 43  1  0
  6 44  1  0
 44 45  1  0
 44 46  2  0
 46 47  1  0
 46  2  1  0
 41 10  1  0
M  END
>  <cnnaffinity>  (1) 
-4.81988

>  <filename>  (1) 
CCN(CC)CCO[C@@]1(Cc2cccnc2)CCNC1

$$$$
