
     RDKit          3D

 42 43  0  0  0  0  0  0  0  0999 V2000
    5.3470    1.8426   17.1271 H   0  0  0  0  0  0  0  0  0  0  0  0
    5.6910    1.1834   17.9227 C   0  0  0  0  0  0  0  0  0  0  0  0
    6.8540    0.5505   17.7083 N   0  0  0  0  0  0  0  0  0  0  0  0
    7.3242   -0.2373   18.6891 C   0  0  0  0  0  0  0  0  0  0  0  0
    8.2650   -0.7488   18.4893 H   0  0  0  0  0  0  0  0  0  0  0  0
    6.6653   -0.4375   19.9259 C   0  0  0  0  0  0  0  0  0  0  0  0
    7.2238   -1.2173   20.9778 N   0  0  0  0  0  0  0  0  0  0  0  0
    6.4855   -2.1516   21.7135 C   0  0  0  0  0  0  0  0  0  0  0  0
    5.3460   -2.5180   21.5170 O   0  0  0  0  0  0  0  0  0  0  0  0
    7.3064   -2.6517   22.6700 N   0  0  0  0  0  0  0  0  0  0  0  0
    6.9321   -3.3856   23.2431 H   0  0  0  0  0  0  0  0  0  0  0  0
    8.6297   -2.0759   22.6758 C   0  0  0  0  0  0  0  0  0  0  0  0
    8.8451   -1.5235   23.5978 H   0  0  0  0  0  0  0  0  0  0  0  0
    9.4137   -2.8268   22.5321 H   0  0  0  0  0  0  0  0  0  0  0  0
    8.5838   -1.0858   21.4863 C   0  0  2  0  0  0  0  0  0  0  0  0
    9.3191   -1.3887   20.7187 H   0  0  0  0  0  0  0  0  0  0  0  0
    8.8403    0.2015   21.9709 O   0  0  0  0  0  0  0  0  0  0  0  0
    9.6610    1.0828   21.2066 C   0  0  0  0  0  0  0  0  0  0  0  0
    9.3627    1.0420   20.1480 H   0  0  0  0  0  0  0  0  0  0  0  0
    9.4324    2.0786   21.6025 H   0  0  0  0  0  0  0  0  0  0  0  0
   11.1927    0.8927   21.3152 C   0  0  0  0  0  0  0  0  0  0  0  0
   11.4608   -0.1087   20.9507 H   0  0  0  0  0  0  0  0  0  0  0  0
   11.6361    1.6133   20.6038 H   0  0  0  0  0  0  0  0  0  0  0  0
   11.7406    1.0906   22.6493 N   0  0  0  0  0  0  0  0  0  0  0  0
   12.6001    0.0406   23.1736 C   0  0  0  0  0  0  0  0  0  0  0  0
   12.6765    0.1685   24.2619 H   0  0  0  0  0  0  0  0  0  0  0  0
   12.0776   -0.9117   23.0065 H   0  0  0  0  0  0  0  0  0  0  0  0
   14.0051   -0.0246   22.5753 C   0  0  0  0  0  0  0  0  0  0  0  0
   14.5830   -0.8499   22.9959 H   0  0  0  0  0  0  0  0  0  0  0  0
   13.9656   -0.1826   21.4982 H   0  0  0  0  0  0  0  0  0  0  0  0
   14.5544    0.9030   22.7566 H   0  0  0  0  0  0  0  0  0  0  0  0
   12.0986    2.4515   23.0129 C   0  0  0  0  0  0  0  0  0  0  0  0
   11.6652    3.1531   22.2901 H   0  0  0  0  0  0  0  0  0  0  0  0
   13.1869    2.6189   22.9677 H   0  0  0  0  0  0  0  0  0  0  0  0
   11.5758    2.8404   24.3855 C   0  0  0  0  0  0  0  0  0  0  0  0
   11.8621    3.8681   24.6259 H   0  0  0  0  0  0  0  0  0  0  0  0
   10.4860    2.7841   24.3954 H   0  0  0  0  0  0  0  0  0  0  0  0
   11.9477    2.1853   25.1776 H   0  0  0  0  0  0  0  0  0  0  0  0
    5.4139    0.1736   20.0993 C   0  0  0  0  0  0  0  0  0  0  0  0
    4.8530   -0.0158   21.0144 H   0  0  0  0  0  0  0  0  0  0  0  0
    4.9302    1.0108   19.0866 C   0  0  0  0  0  0  0  0  0  0  0  0
    3.9803    1.5250   19.1871 H   0  0  0  0  0  0  0  0  0  0  0  0
  1  2  1  0
  2  3  2  0
  3  4  1  0
  4  5  1  0
  4  6  2  0
  6  7  1  0
  7  8  1  0
  8  9  2  0
  8 10  1  0
 10 11  1  0
 10 12  1  0
 12 13  1  0
 12 14  1  0
 12 15  1  0
 15 16  1  6
 15 17  1  0
 17 18  1  0
 18 19  1  0
 18 20  1  0
 18 21  1  0
 21 22  1  0
 21 23  1  0
 21 24  1  0
 24 25  1  0
 25 26  1  0
 25 27  1  0
 25 28  1  0
 28 29  1  0
 28 30  1  0
 28 31  1  0
 24 32  1  0
 32 33  1  0
 32 34  1  0
 32 35  1  0
 35 36  1  0
 35 37  1  0
 35 38  1  0
  6 39  1  0
 39 40  1  0
 39 41  2  0
 41 42  1  0
 41  2  1  0
 15  7  1  0
M  END
>  <cnnaffinity>  (1) 
-4.51172

>  <filename>  (1) 
CCN(CC)CCO[C@H]1CNC(=O)N1c1cccnc1

$$$$
