
     RDKit          3D

 38 38  0  0  0  0  0  0  0  0999 V2000
    5.1735    2.1863   16.5568 H   0  0  0  0  0  0  0  0  0  0  0  0
    5.5410    1.5484   17.3583 C   0  0  0  0  0  0  0  0  0  0  0  0
    6.7128    0.9310   17.1357 N   0  0  0  0  0  0  0  0  0  0  0  0
    7.2010    0.1649   18.1190 C   0  0  0  0  0  0  0  0  0  0  0  0
    8.1647   -0.3131   17.9373 H   0  0  0  0  0  0  0  0  0  0  0  0
    6.5461   -0.0479   19.3553 C   0  0  0  0  0  0  0  0  0  0  0  0
    7.1669   -0.7949   20.3941 N   0  0  0  0  0  0  0  0  0  0  0  0
    8.1668   -0.7118   20.4983 H   0  0  0  0  0  0  0  0  0  0  0  0
    6.5421   -1.5909   21.3371 C   0  0  0  0  0  0  0  0  0  0  0  0
    5.4428   -2.0720   21.1956 O   0  0  0  0  0  0  0  0  0  0  0  0
    7.3633   -1.7748   22.6690 C   0  0  0  0  0  0  0  0  0  0  0  0
    6.9959   -2.9527   23.2528 F   0  0  0  0  0  0  0  0  0  0  0  0
    8.6941   -1.9007   22.3219 F   0  0  0  0  0  0  0  0  0  0  0  0
    7.1765   -0.5785   23.6113 C   0  0  0  0  0  0  0  0  0  0  0  0
    6.1048   -0.3997   23.7433 H   0  0  0  0  0  0  0  0  0  0  0  0
    7.5905    0.2798   23.0752 H   0  0  0  0  0  0  0  0  0  0  0  0
    7.8647   -0.6578   24.9860 C   0  0  0  0  0  0  0  0  0  0  0  0
    7.2455   -1.2254   25.6995 H   0  0  0  0  0  0  0  0  0  0  0  0
    7.8934    0.3640   25.3940 H   0  0  0  0  0  0  0  0  0  0  0  0
    9.1999   -1.2198   24.8895 N   0  0  0  0  0  0  0  0  0  0  0  0
   10.3125   -0.3457   25.2219 C   0  0  0  0  0  0  0  0  0  0  0  0
   10.2576    0.0188   26.2667 H   0  0  0  0  0  0  0  0  0  0  0  0
   11.2333   -0.9331   25.1703 H   0  0  0  0  0  0  0  0  0  0  0  0
   10.4428    0.8145   24.2389 C   0  0  0  0  0  0  0  0  0  0  0  0
    9.5454    1.4437   24.2387 H   0  0  0  0  0  0  0  0  0  0  0  0
   11.2995    1.4481   24.4936 H   0  0  0  0  0  0  0  0  0  0  0  0
   10.5843    0.4215   23.2246 H   0  0  0  0  0  0  0  0  0  0  0  0
    9.3248   -2.6186   25.2935 C   0  0  0  0  0  0  0  0  0  0  0  0
    9.5720   -2.7233   26.3705 H   0  0  0  0  0  0  0  0  0  0  0  0
    8.3508   -3.0964   25.1738 H   0  0  0  0  0  0  0  0  0  0  0  0
   10.3322   -3.3853   24.4356 C   0  0  0  0  0  0  0  0  0  0  0  0
   10.2206   -4.4638   24.5870 H   0  0  0  0  0  0  0  0  0  0  0  0
   10.1678   -3.1465   23.3816 H   0  0  0  0  0  0  0  0  0  0  0  0
   11.3613   -3.1386   24.6896 H   0  0  0  0  0  0  0  0  0  0  0  0
    5.3031    0.5670   19.5512 C   0  0  0  0  0  0  0  0  0  0  0  0
    4.7554    0.4124   20.4787 H   0  0  0  0  0  0  0  0  0  0  0  0
    4.8041    1.3924   18.5349 C   0  0  0  0  0  0  0  0  0  0  0  0
    3.8627    1.9183   18.6475 H   0  0  0  0  0  0  0  0  0  0  0  0
  1  2  1  0
  2  3  2  0
  3  4  1  0
  4  5  1  0
  4  6  2  0
  6  7  1  0
  7  8  1  0
  7  9  1  0
  9 10  2  0
  9 11  1  0
 11 12  1  0
 11 13  1  0
 11 14  1  0
 14 15  1  0
 14 16  1  0
 14 17  1  0
 17 18  1  0
 17 19  1  0
 17 20  1  0
 20 21  1  0
 21 22  1  0
 21 23  1  0
 21 24  1  0
 24 25  1  0
 24 26  1  0
 24 27  1  0
 20 28  1  0
 28 29  1  0
 28 30  1  0
 28 31  1  0
 31 32  1  0
 31 33  1  0
 31 34  1  0
  6 35  1  0
 35 36  1  0
 35 37  2  0
 37 38  1  0
 37  2  1  0
M  END
>  <cnnaffinity>  (1) 
-4.76087

>  <filename>  (1) 
CCN(CC)CCC(F)(F)C(=O)Nc1cccnc1

$$$$
