
     RDKit          3D

 41 42  0  0  0  0  0  0  0  0999 V2000
    4.9109    1.8352   16.9328 H   0  0  0  0  0  0  0  0  0  0  0  0
    5.3885    1.3244   17.7665 C   0  0  0  0  0  0  0  0  0  0  0  0
    6.5312    0.6804   17.4857 N   0  0  0  0  0  0  0  0  0  0  0  0
    7.1526    0.0386   18.4820 C   0  0  0  0  0  0  0  0  0  0  0  0
    8.0773   -0.4768   18.2289 H   0  0  0  0  0  0  0  0  0  0  0  0
    6.6663    0.0036   19.8047 C   0  0  0  0  0  0  0  0  0  0  0  0
    7.3793   -0.6901   20.8566 N   0  0  0  0  0  0  0  0  0  0  0  0
    6.7435   -1.7180   21.5286 C   0  0  0  0  0  0  0  0  0  0  0  0
    5.7133   -1.8875   21.2404 H   0  0  0  0  0  0  0  0  0  0  0  0
    7.3694   -2.4438   22.4965 C   0  0  0  0  0  0  0  0  0  0  0  0
    6.8351   -3.2517   22.9907 H   0  0  0  0  0  0  0  0  0  0  0  0
    8.7013   -2.1106   22.8929 C   0  0  0  0  0  0  0  0  0  0  0  0
    9.3399   -2.7835   24.0838 C   0  0  0  0  0  0  0  0  0  0  0  0
   10.4321   -2.7153   24.0196 H   0  0  0  0  0  0  0  0  0  0  0  0
    9.0910   -3.8496   24.1026 H   0  0  0  0  0  0  0  0  0  0  0  0
    8.8702   -2.1387   25.3952 C   0  0  0  0  0  0  0  0  0  0  0  0
    7.7847   -2.2910   25.4701 H   0  0  0  0  0  0  0  0  0  0  0  0
    9.3137   -2.6726   26.2632 H   0  0  0  0  0  0  0  0  0  0  0  0
    9.1185   -0.7019   25.4275 N   0  0  0  0  0  0  0  0  0  0  0  0
    8.1514    0.0500   26.2215 C   0  0  0  0  0  0  0  0  0  0  0  0
    7.1710   -0.1163   25.7539 H   0  0  0  0  0  0  0  0  0  0  0  0
    8.3506    1.1237   26.1244 H   0  0  0  0  0  0  0  0  0  0  0  0
    8.0576   -0.3196   27.6996 C   0  0  0  0  0  0  0  0  0  0  0  0
    8.9777   -0.0803   28.2408 H   0  0  0  0  0  0  0  0  0  0  0  0
    7.2337    0.2191   28.1753 H   0  0  0  0  0  0  0  0  0  0  0  0
    7.8697   -1.3910   27.8135 H   0  0  0  0  0  0  0  0  0  0  0  0
   10.5166   -0.3351   25.5875 C   0  0  0  0  0  0  0  0  0  0  0  0
   11.1366   -1.0046   24.9810 H   0  0  0  0  0  0  0  0  0  0  0  0
   10.8665   -0.4614   26.6299 H   0  0  0  0  0  0  0  0  0  0  0  0
   10.8254    1.0936   25.1502 C   0  0  0  0  0  0  0  0  0  0  0  0
   10.2675    1.3801   24.2506 H   0  0  0  0  0  0  0  0  0  0  0  0
   11.8934    1.2094   24.9355 H   0  0  0  0  0  0  0  0  0  0  0  0
   10.5799    1.7989   25.9479 H   0  0  0  0  0  0  0  0  0  0  0  0
    9.3264   -1.0689   22.2727 C   0  0  0  0  0  0  0  0  0  0  0  0
   10.3046   -0.7166   22.5701 H   0  0  0  0  0  0  0  0  0  0  0  0
    8.7205   -0.2995   21.2107 C   0  0  0  0  0  0  0  0  0  0  0  0
    9.2954    0.6132   20.6344 O   0  0  0  0  0  0  0  0  0  0  0  0
    5.4594    0.6577   20.0781 C   0  0  0  0  0  0  0  0  0  0  0  0
    5.0590    0.6387   21.0918 H   0  0  0  0  0  0  0  0  0  0  0  0
    4.8153    1.3404   19.0417 C   0  0  0  0  0  0  0  0  0  0  0  0
    3.8829    1.8649   19.2073 H   0  0  0  0  0  0  0  0  0  0  0  0
  1  2  1  0
  2  3  2  0
  3  4  1  0
  4  5  1  0
  4  6  2  0
  6  7  1  0
  7  8  1  0
  8  9  1  0
  8 10  2  0
 10 11  1  0
 10 12  1  0
 12 13  1  0
 13 14  1  0
 13 15  1  0
 13 16  1  0
 16 17  1  0
 16 18  1  0
 16 19  1  0
 19 20  1  0
 20 21  1  0
 20 22  1  0
 20 23  1  0
 23 24  1  0
 23 25  1  0
 23 26  1  0
 19 27  1  0
 27 28  1  0
 27 29  1  0
 27 30  1  0
 30 31  1  0
 30 32  1  0
 30 33  1  0
 12 34  2  0
 34 35  1  0
 34 36  1  0
 36 37  2  0
  6 38  1  0
 38 39  1  0
 38 40  2  0
 40 41  1  0
 40  2  1  0
 36  7  1  0
M  END
>  <cnnaffinity>  (1) 
-5.08599

>  <filename>  (1) 
CCN(CC)CCc1ccn(-c2cccnc2)c(=O)c1

$$$$
