
     RDKit          3D

 38 39  0  0  0  0  0  0  0  0999 V2000
    7.1699   -0.4407   23.3526 C   0  0  0  0  0  0  0  0  0  0  0  0
    7.8395    0.0512   22.0677 C   0  0  0  0  0  0  0  0  0  0  0  0
    7.3247   -0.6566   20.8879 N   0  0  0  0  0  0  0  0  0  0  0  0
    7.5682   -2.0387   20.8552 C   0  0  0  0  0  0  0  0  0  0  0  0
    8.5663   -2.5577   21.3245 O   0  0  0  0  0  0  0  0  0  0  0  0
    6.5221   -2.7421   20.2766 N   0  0  0  0  0  0  0  0  0  0  0  0
    6.3434   -4.1467   20.2958 N   0  0  0  0  0  0  0  0  0  0  0  0
    6.7532   -4.8176   21.4833 C   0  0  0  0  0  0  0  0  0  0  0  0
    7.7251   -5.8211   21.4029 C   0  0  0  0  0  0  0  0  0  0  0  0
    8.2490   -6.3997   22.5580 C   0  0  0  0  0  0  0  0  0  0  0  0
    7.7615   -6.0064   23.8060 C   0  0  0  0  0  0  0  0  0  0  0  0
    6.7142   -5.0770   23.8929 C   0  0  0  0  0  0  0  0  0  0  0  0
    6.2029   -4.6805   25.2629 C   0  0  0  0  0  0  0  0  0  0  0  0
    7.0970   -3.9003   25.9073 F   0  0  0  0  0  0  0  0  0  0  0  0
    5.0506   -3.9892   25.2121 F   0  0  0  0  0  0  0  0  0  0  0  0
    5.9786   -5.7445   26.0635 F   0  0  0  0  0  0  0  0  0  0  0  0
    6.2256   -4.4663   22.7243 C   0  0  0  0  0  0  0  0  0  0  0  0
    5.4947   -3.6634   22.7614 H   0  0  0  0  0  0  0  0  0  0  0  0
    8.1808   -6.4228   24.7176 H   0  0  0  0  0  0  0  0  0  0  0  0
    9.0666   -7.1140   22.4895 H   0  0  0  0  0  0  0  0  0  0  0  0
    8.0955   -6.0907   20.4203 H   0  0  0  0  0  0  0  0  0  0  0  0
    6.8518   -4.5526   19.5124 H   0  0  0  0  0  0  0  0  0  0  0  0
    5.6971   -2.1806   20.1441 H   0  0  0  0  0  0  0  0  0  0  0  0
    6.6627    0.0696   19.8385 C   0  0  0  0  0  0  0  0  0  0  0  0
    5.4489    0.7220   20.0864 C   0  0  0  0  0  0  0  0  0  0  0  0
    4.8013    1.3733   19.0286 C   0  0  0  0  0  0  0  0  0  0  0  0
    5.4014    1.3807   17.7655 C   0  0  0  0  0  0  0  0  0  0  0  0
    6.5747    0.7821   17.5087 N   0  0  0  0  0  0  0  0  0  0  0  0
    7.1855    0.1540   18.5232 C   0  0  0  0  0  0  0  0  0  0  0  0
    8.1425   -0.3110   18.2969 H   0  0  0  0  0  0  0  0  0  0  0  0
    4.9223    1.8868   16.9285 H   0  0  0  0  0  0  0  0  0  0  0  0
    3.8605    1.8880   19.1811 H   0  0  0  0  0  0  0  0  0  0  0  0
    5.0256    0.7087   21.0922 H   0  0  0  0  0  0  0  0  0  0  0  0
    7.6693    1.1232   21.9147 H   0  0  0  0  0  0  0  0  0  0  0  0
    8.9276   -0.0966   22.1261 H   0  0  0  0  0  0  0  0  0  0  0  0
    6.0923   -0.2471   23.3377 H   0  0  0  0  0  0  0  0  0  0  0  0
    7.3327   -1.5195   23.4702 H   0  0  0  0  0  0  0  0  0  0  0  0
    7.5821    0.0659   24.2292 H   0  0  0  0  0  0  0  0  0  0  0  0
  1  2  1  0
  2  3  1  0
  3  4  1  0
  4  5  2  0
  4  6  1  0
  6  7  1  0
  7  8  1  0
  8  9  2  0
  9 10  1  0
 10 11  2  0
 11 12  1  0
 12 13  1  0
 13 14  1  0
 13 15  1  0
 13 16  1  0
 12 17  2  0
 17 18  1  0
 11 19  1  0
 10 20  1  0
  9 21  1  0
  7 22  1  0
  6 23  1  0
  3 24  1  0
 24 25  2  0
 25 26  1  0
 26 27  2  0
 27 28  1  0
 28 29  2  0
 29 30  1  0
 27 31  1  0
 26 32  1  0
 25 33  1  0
  2 34  1  0
  2 35  1  0
  1 36  1  0
  1 37  1  0
  1 38  1  0
 17  8  1  0
 29 24  1  0
M  END
>  <cnnaffinity>  (1) 
-5.04625

>  <filename>  (1) 
CCN(C(=O)NNc1cccc(C(F)(F)F)c1)c1cccnc1

$$$$
