
     RDKit          3D

 37 39  0  0  0  0  0  0  0  0999 V2000
    6.6351    0.5503   23.7857 C   0  0  0  0  0  0  0  0  0  0  0  0
    7.2285    1.1578   22.5250 C   0  0  0  0  0  0  0  0  0  0  0  0
    7.7062    0.1370   21.5874 N   0  0  0  0  0  0  0  0  0  0  0  0
    6.6991   -0.6844   20.8957 C   0  0  0  0  0  0  0  0  0  0  0  0
    6.0792    0.0319   19.7278 C   0  0  0  0  0  0  0  0  0  0  0  0
    4.9158    0.7983   19.8441 C   0  0  0  0  0  0  0  0  0  0  0  0
    4.4881    1.5376   18.7392 C   0  0  0  0  0  0  0  0  0  0  0  0
    5.2316    1.4744   17.5588 C   0  0  0  0  0  0  0  0  0  0  0  0
    6.3287    0.7175   17.4204 N   0  0  0  0  0  0  0  0  0  0  0  0
    6.7324    0.0169   18.4854 C   0  0  0  0  0  0  0  0  0  0  0  0
    7.6393   -0.5705   18.3638 H   0  0  0  0  0  0  0  0  0  0  0  0
    4.9430    2.0569   16.6854 H   0  0  0  0  0  0  0  0  0  0  0  0
    3.6113    2.1688   18.7823 H   0  0  0  0  0  0  0  0  0  0  0  0
    4.3704    0.8412   20.7908 H   0  0  0  0  0  0  0  0  0  0  0  0
    5.9164   -0.9678   21.6094 H   0  0  0  0  0  0  0  0  0  0  0  0
    7.1750   -1.6172   20.5678 H   0  0  0  0  0  0  0  0  0  0  0  0
    9.0088    0.0846   21.1313 C   0  0  0  0  0  0  0  0  0  0  0  0
    9.2788   -0.2485   19.9816 O   0  0  0  0  0  0  0  0  0  0  0  0
   10.1163    0.3681   22.1204 C   0  0  0  0  0  0  0  0  0  0  0  0
   10.1493    0.4205   23.4973 C   0  0  0  0  0  0  0  0  0  0  0  0
   11.5003    0.4097   23.9078 C   0  0  0  0  0  0  0  0  0  0  0  0
   12.1247    0.3539   25.1687 C   0  0  0  0  0  0  0  0  0  0  0  0
   13.5030    0.3358   25.1802 C   0  0  0  0  0  0  0  0  0  0  0  0
   14.2787    0.3954   24.0668 N   0  0  0  0  0  0  0  0  0  0  0  0
   13.7030    0.4680   22.8724 C   0  0  0  0  0  0  0  0  0  0  0  0
   12.2923    0.4516   22.7384 C   0  0  0  0  0  0  0  0  0  0  0  0
   11.4260    0.4392   21.6680 N   0  0  0  0  0  0  0  0  0  0  0  0
   11.6529    0.5488   20.6911 H   0  0  0  0  0  0  0  0  0  0  0  0
   14.3675    0.5383   22.0094 H   0  0  0  0  0  0  0  0  0  0  0  0
   14.0410    0.2550   26.1217 H   0  0  0  0  0  0  0  0  0  0  0  0
   11.5635    0.3194   26.0948 H   0  0  0  0  0  0  0  0  0  0  0  0
    9.3385    0.4876   24.2069 H   0  0  0  0  0  0  0  0  0  0  0  0
    6.4877    1.7951   22.0214 H   0  0  0  0  0  0  0  0  0  0  0  0
    8.0580    1.8217   22.7814 H   0  0  0  0  0  0  0  0  0  0  0  0
    7.3345   -0.1565   24.2420 H   0  0  0  0  0  0  0  0  0  0  0  0
    5.7241    0.0067   23.5489 H   0  0  0  0  0  0  0  0  0  0  0  0
    6.3735    1.3264   24.5129 H   0  0  0  0  0  0  0  0  0  0  0  0
  1  2  1  0
  2  3  1  0
  3  4  1  0
  4  5  1  0
  5  6  2  0
  6  7  1  0
  7  8  2  0
  8  9  1  0
  9 10  2  0
 10 11  1  0
  8 12  1  0
  7 13  1  0
  6 14  1  0
  4 15  1  0
  4 16  1  0
  3 17  1  0
 17 18  2  0
 17 19  1  0
 19 20  2  0
 20 21  1  0
 21 22  2  0
 22 23  1  0
 23 24  2  0
 24 25  1  0
 25 26  2  0
 26 27  1  0
 27 28  1  0
 25 29  1  0
 23 30  1  0
 22 31  1  0
 20 32  1  0
  2 33  1  0
  2 34  1  0
  1 35  1  0
  1 36  1  0
  1 37  1  0
 10  5  1  0
 27 19  1  0
 26 21  1  0
M  END
>  <cnnaffinity>  (1) 
-5.52013

>  <filename>  (1) 
CCN(Cc1cccnc1)C(=O)c1cc2ccncc2[nH]1

$$$$
