
     RDKit          3D

 37 38  0  0  0  0  0  0  0  0999 V2000
    7.0277   -5.5632   20.8604 C   0  0  0  0  0  0  0  0  0  0  0  0
    6.0778   -4.9851   21.8906 C   0  0  0  0  0  0  0  0  0  0  0  0
    6.8628   -4.1544   22.7976 N   0  0  0  0  0  0  0  0  0  0  0  0
    7.4061   -2.9593   22.3129 C   0  0  0  0  0  0  0  0  0  0  0  0
    8.3931   -2.4592   22.8399 O   0  0  0  0  0  0  0  0  0  0  0  0
    6.7485   -2.2272   21.1444 C   0  0  0  0  0  0  0  0  0  0  0  0
    7.3093   -0.8033   20.9985 C   0  0  0  0  0  0  0  0  0  0  0  0
    6.6200   -0.0698   19.8849 C   0  0  0  0  0  0  0  0  0  0  0  0
    5.4275    0.6058   20.1340 C   0  0  0  0  0  0  0  0  0  0  0  0
    4.8401    1.2939   19.0755 C   0  0  0  0  0  0  0  0  0  0  0  0
    5.4482    1.2877   17.8139 C   0  0  0  0  0  0  0  0  0  0  0  0
    6.5963    0.6319   17.5679 N   0  0  0  0  0  0  0  0  0  0  0  0
    7.1696   -0.0288   18.5911 C   0  0  0  0  0  0  0  0  0  0  0  0
    8.1059   -0.5452   18.4070 H   0  0  0  0  0  0  0  0  0  0  0  0
    4.9720    1.8323   17.0050 H   0  0  0  0  0  0  0  0  0  0  0  0
    3.9208    1.8462   19.2218 H   0  0  0  0  0  0  0  0  0  0  0  0
    4.9812    0.6035   21.1287 H   0  0  0  0  0  0  0  0  0  0  0  0
    8.3884   -0.8466   20.8099 H   0  0  0  0  0  0  0  0  0  0  0  0
    7.1652   -0.2532   21.9369 H   0  0  0  0  0  0  0  0  0  0  0  0
    5.6684   -2.1861   21.3148 H   0  0  0  0  0  0  0  0  0  0  0  0
    6.9231   -2.7947   20.2300 H   0  0  0  0  0  0  0  0  0  0  0  0
    7.4928   -4.8272   23.8573 C   0  0  0  0  0  0  0  0  0  0  0  0
    8.8919   -4.8286   23.9000 C   0  0  0  0  0  0  0  0  0  0  0  0
    9.5835   -5.5507   24.8771 C   0  0  0  0  0  0  0  0  0  0  0  0
    8.8683   -6.2532   25.8377 C   0  0  0  0  0  0  0  0  0  0  0  0
    7.4737   -6.2329   25.8348 C   0  0  0  0  0  0  0  0  0  0  0  0
    6.7734   -5.5273   24.8494 C   0  0  0  0  0  0  0  0  0  0  0  0
    4.5176   -5.5792   24.9384 I   0  0  0  0  0  0  0  0  0  0  0  0
    6.9146   -6.7695   26.5925 H   0  0  0  0  0  0  0  0  0  0  0  0
    9.4099   -6.8075   26.5923 H   0  0  0  0  0  0  0  0  0  0  0  0
   10.6682   -5.5833   24.8973 H   0  0  0  0  0  0  0  0  0  0  0  0
    9.4252   -4.2660   23.1401 H   0  0  0  0  0  0  0  0  0  0  0  0
    5.5992   -5.8079   22.4336 H   0  0  0  0  0  0  0  0  0  0  0  0
    5.3003   -4.4107   21.3771 H   0  0  0  0  0  0  0  0  0  0  0  0
    6.4669   -6.1254   20.1094 H   0  0  0  0  0  0  0  0  0  0  0  0
    7.7589   -6.2161   21.3471 H   0  0  0  0  0  0  0  0  0  0  0  0
    7.5711   -4.7568   20.3697 H   0  0  0  0  0  0  0  0  0  0  0  0
  1  2  1  0
  2  3  1  0
  3  4  1  0
  4  5  2  0
  4  6  1  0
  6  7  1  0
  7  8  1  0
  8  9  2  0
  9 10  1  0
 10 11  2  0
 11 12  1  0
 12 13  2  0
 13 14  1  0
 11 15  1  0
 10 16  1  0
  9 17  1  0
  7 18  1  0
  7 19  1  0
  6 20  1  0
  6 21  1  0
  3 22  1  0
 22 23  2  0
 23 24  1  0
 24 25  2  0
 25 26  1  0
 26 27  2  0
 27 28  1  0
 26 29  1  0
 25 30  1  0
 24 31  1  0
 23 32  1  0
  2 33  1  0
  2 34  1  0
  1 35  1  0
  1 36  1  0
  1 37  1  0
 13  8  1  0
 27 22  1  0
M  END
>  <cnnaffinity>  (1) 
-5.00104

>  <filename>  (1) 
CCN(C(=O)CCc1cccnc1)c1ccccc1I

$$$$
