
     RDKit          3D

 32 33  0  0  0  0  0  0  0  0999 V2000
    8.4887   -1.9339   19.9292 H   0  0  0  0  0  0  0  0  0  0  0  0
    8.2478   -1.6133   20.9252 C   0  0  0  0  0  0  0  0  0  0  0  0
    8.8130   -2.2759   21.9138 N   0  0  0  0  0  0  0  0  0  0  0  0
    8.5928   -1.8473   23.1698 N   0  0  0  0  0  0  0  0  0  0  0  0
    7.8360   -0.7506   23.3757 C   0  0  0  0  0  0  0  0  0  0  0  0
    7.7148   -0.2801   24.6502 N   0  0  0  0  0  0  0  0  0  0  0  0
    6.9385    0.9283   24.9132 C   0  0  0  0  0  0  0  0  0  0  0  0
    7.3012    1.3762   25.8489 H   0  0  0  0  0  0  0  0  0  0  0  0
    7.1158    1.6706   24.1202 H   0  0  0  0  0  0  0  0  0  0  0  0
    5.4523    0.6004   25.0053 C   0  0  0  0  0  0  0  0  0  0  0  0
    5.0866    0.3980   23.9985 H   0  0  0  0  0  0  0  0  0  0  0  0
    5.2900   -0.2889   25.6283 H   0  0  0  0  0  0  0  0  0  0  0  0
    4.8764    1.4350   25.4165 H   0  0  0  0  0  0  0  0  0  0  0  0
    8.4806   -0.9110   25.7271 C   0  0  0  0  0  0  0  0  0  0  0  0
    8.4639   -2.0006   25.5902 H   0  0  0  0  0  0  0  0  0  0  0  0
    7.9704   -0.7086   26.6774 H   0  0  0  0  0  0  0  0  0  0  0  0
    9.9160   -0.3931   25.7599 C   0  0  0  0  0  0  0  0  0  0  0  0
   10.4132   -0.6846   26.6912 H   0  0  0  0  0  0  0  0  0  0  0  0
   10.4730   -0.7976   24.9068 H   0  0  0  0  0  0  0  0  0  0  0  0
    9.9261    0.7036   25.7046 H   0  0  0  0  0  0  0  0  0  0  0  0
    7.1741   -0.0760   22.4000 N   0  0  0  0  0  0  0  0  0  0  0  0
    7.3629   -0.5249   21.1692 C   0  0  0  0  0  0  0  0  0  0  0  0
    6.6202    0.1245   20.0672 C   0  0  0  0  0  0  0  0  0  0  0  0
    7.1738    0.1075   18.7769 C   0  0  0  0  0  0  0  0  0  0  0  0
    8.1291   -0.3782   18.5989 H   0  0  0  0  0  0  0  0  0  0  0  0
    6.6095    0.6614   17.7040 N   0  0  0  0  0  0  0  0  0  0  0  0
    5.4314    1.2746   17.8739 C   0  0  0  0  0  0  0  0  0  0  0  0
    4.9942    1.7292   16.9863 H   0  0  0  0  0  0  0  0  0  0  0  0
    4.7739    1.3363   19.1087 C   0  0  0  0  0  0  0  0  0  0  0  0
    3.8186    1.8387   19.1782 H   0  0  0  0  0  0  0  0  0  0  0  0
    5.3793    0.7609   20.2274 C   0  0  0  0  0  0  0  0  0  0  0  0
    4.8954    0.8085   21.2061 H   0  0  0  0  0  0  0  0  0  0  0  0
  1  2  1  0
  2  3  2  0
  3  4  1  0
  4  5  2  0
  5  6  1  0
  6  7  1  0
  7  8  1  0
  7  9  1  0
  7 10  1  0
 10 11  1  0
 10 12  1  0
 10 13  1  0
  6 14  1  0
 14 15  1  0
 14 16  1  0
 14 17  1  0
 17 18  1  0
 17 19  1  0
 17 20  1  0
  5 21  1  0
 21 22  2  0
 22 23  1  0
 23 24  2  0
 24 25  1  0
 24 26  1  0
 26 27  2  0
 27 28  1  0
 27 29  1  0
 29 30  1  0
 29 31  2  0
 31 32  1  0
 22  2  1  0
 31 23  1  0
M  END
>  <cnnaffinity>  (1) 
-4.73644

>  <filename>  (1) 
CCN(CC)c1nncc(-c2cccnc2)n1

$$$$
