
     RDKit          3D

 41 42  0  0  0  0  0  0  0  0999 V2000
    4.8846    1.8024   16.9748 H   0  0  0  0  0  0  0  0  0  0  0  0
    5.3679    1.3204   17.8122 C   0  0  0  0  0  0  0  0  0  0  0  0
    6.5301    0.7262   17.5174 N   0  0  0  0  0  0  0  0  0  0  0  0
    7.1601    0.1254   18.5240 C   0  0  0  0  0  0  0  0  0  0  0  0
    8.0980   -0.3631   18.2893 H   0  0  0  0  0  0  0  0  0  0  0  0
    6.6454    0.0824   19.8426 C   0  0  0  0  0  0  0  0  0  0  0  0
    7.3490   -0.7048   20.8963 N   0  0  0  0  0  0  0  0  0  0  0  0
    8.1823   -1.8911   20.6926 C   0  0  0  0  0  0  0  0  0  0  0  0
    8.1820   -1.8908   20.6924 O   0  0  0  0  0  0  0  0  0  0  0  0
    8.9025   -2.3312   22.2629 O   0  0  0  0  0  0  0  0  0  0  0  0
    8.4521   -1.2775   23.1033 C   0  0  0  0  0  0  0  0  0  0  0  0
    9.2894   -0.6281   23.4729 H   0  0  0  0  0  0  0  0  0  0  0  0
    7.9180   -1.6649   24.0034 H   0  0  0  0  0  0  0  0  0  0  0  0
    7.3993   -0.2971   22.2915 C   0  0  1  0  0  0  0  0  0  0  0  0
    6.4004   -0.3396   22.7788 H   0  0  0  0  0  0  0  0  0  0  0  0
    7.8248    1.0571   22.3958 O   0  0  0  0  0  0  0  0  0  0  0  0
    7.3747    1.7245   23.5985 C   0  0  0  0  0  0  0  0  0  0  0  0
    7.6431    1.1455   24.4996 H   0  0  0  0  0  0  0  0  0  0  0  0
    6.2807    1.8360   23.5808 H   0  0  0  0  0  0  0  0  0  0  0  0
    8.0071    3.1159   23.7078 C   0  0  0  0  0  0  0  0  0  0  0  0
    7.7936    3.6480   22.7729 H   0  0  0  0  0  0  0  0  0  0  0  0
    9.1066    3.0040   23.7671 H   0  0  0  0  0  0  0  0  0  0  0  0
    7.4687    3.8753   24.8443 N   0  0  0  0  0  0  0  0  0  0  0  0
    7.5360    5.3254   24.6669 C   0  0  0  0  0  0  0  0  0  0  0  0
    7.0574    5.7986   25.5316 H   0  0  0  0  0  0  0  0  0  0  0  0
    6.9125    5.5972   23.8055 H   0  0  0  0  0  0  0  0  0  0  0  0
    8.9507    5.8621   24.4806 C   0  0  0  0  0  0  0  0  0  0  0  0
    9.3746    5.4991   23.5391 H   0  0  0  0  0  0  0  0  0  0  0  0
    8.9660    6.9540   24.4697 H   0  0  0  0  0  0  0  0  0  0  0  0
    9.6020    5.5100   25.2872 H   0  0  0  0  0  0  0  0  0  0  0  0
    7.9088    3.3952   26.1591 C   0  0  0  0  0  0  0  0  0  0  0  0
    8.3450    4.2147   26.7440 H   0  0  0  0  0  0  0  0  0  0  0  0
    8.7115    2.6523   26.0548 H   0  0  0  0  0  0  0  0  0  0  0  0
    6.7625    2.7932   26.9574 C   0  0  0  0  0  0  0  0  0  0  0  0
    5.9747    3.5371   27.1104 H   0  0  0  0  0  0  0  0  0  0  0  0
    6.3198    1.9478   26.4217 H   0  0  0  0  0  0  0  0  0  0  0  0
    7.1072    2.4456   27.9388 H   0  0  0  0  0  0  0  0  0  0  0  0
    5.4349    0.6911   20.1543 C   0  0  0  0  0  0  0  0  0  0  0  0
    5.0106    0.6372   21.1749 H   0  0  0  0  0  0  0  0  0  0  0  0
    4.7792    1.3332   19.0918 C   0  0  0  0  0  0  0  0  0  0  0  0
    3.8416    1.8606   19.2517 H   0  0  0  0  0  0  0  0  0  0  0  0
  1  2  1  0
  2  3  2  0
  3  4  1  0
  4  5  1  0
  4  6  2  0
  6  7  1  0
  7  8  1  0
  8  9  2  0
  8 10  1  0
 10 11  1  0
 11 12  1  0
 11 13  1  0
 11 14  1  0
 14 15  1  1
 14 16  1  0
 16 17  1  0
 17 18  1  0
 17 19  1  0
 17 20  1  0
 20 21  1  0
 20 22  1  0
 20 23  1  0
 23 24  1  0
 24 25  1  0
 24 26  1  0
 24 27  1  0
 27 28  1  0
 27 29  1  0
 27 30  1  0
 23 31  1  0
 31 32  1  0
 31 33  1  0
 31 34  1  0
 34 35  1  0
 34 36  1  0
 34 37  1  0
  6 38  1  0
 38 39  1  0
 38 40  2  0
 40 41  1  0
 40  2  1  0
 14  7  1  0
M  END
>  <cnnaffinity>  (1) 
-3.97274

>  <filename>  (1) 
CCN(CC)CCO[C@@H]1COC(=O)N1c1cccnc1

$$$$
