
     RDKit          3D

 37 38  0  0  0  0  0  0  0  0999 V2000
    4.9296    1.8167   16.9611 H   0  0  0  0  0  0  0  0  0  0  0  0
    5.3857    1.3074   17.8087 C   0  0  0  0  0  0  0  0  0  0  0  0
    6.5468    0.6833   17.5562 N   0  0  0  0  0  0  0  0  0  0  0  0
    7.1484    0.0607   18.5830 C   0  0  0  0  0  0  0  0  0  0  0  0
    8.0923   -0.4328   18.3460 H   0  0  0  0  0  0  0  0  0  0  0  0
    6.6433    0.0313   19.8911 C   0  0  0  0  0  0  0  0  0  0  0  0
    7.3596   -0.7025   20.9732 C   0  0  0  0  0  0  0  0  0  0  0  0
    7.4984   -2.0857   20.8673 C   0  0  0  0  0  0  0  0  0  0  0  0
    7.0326   -2.5912   20.0313 H   0  0  0  0  0  0  0  0  0  0  0  0
    8.1579   -2.7833   21.8789 C   0  0  0  0  0  0  0  0  0  0  0  0
    8.3070   -3.8642   21.8271 H   0  0  0  0  0  0  0  0  0  0  0  0
    8.6355   -2.1871   22.9777 N   0  0  0  0  0  0  0  0  0  0  0  0
    8.4846   -0.8612   23.0889 C   0  0  0  0  0  0  0  0  0  0  0  0
    8.8604   -0.4146   24.0154 H   0  0  0  0  0  0  0  0  0  0  0  0
    7.8686   -0.0615   22.1188 C   0  0  0  0  0  0  0  0  0  0  0  0
    7.7599    1.4267   22.3540 C   0  0  0  0  0  0  0  0  0  0  0  0
    6.9343    1.6171   23.0546 H   0  0  0  0  0  0  0  0  0  0  0  0
    7.4854    1.9273   21.4078 H   0  0  0  0  0  0  0  0  0  0  0  0
    8.9971    1.9934   22.9003 N   0  0  0  0  0  0  0  0  0  0  0  0
    8.7531    3.0517   23.8851 C   0  0  0  0  0  0  0  0  0  0  0  0
    7.9393    3.7354   23.5642 H   0  0  0  0  0  0  0  0  0  0  0  0
    9.6548    3.6734   23.9469 H   0  0  0  0  0  0  0  0  0  0  0  0
    8.4616    2.4487   25.2514 C   0  0  0  0  0  0  0  0  0  0  0  0
    9.3045    1.8165   25.5547 H   0  0  0  0  0  0  0  0  0  0  0  0
    8.3171    3.2293   26.0056 H   0  0  0  0  0  0  0  0  0  0  0  0
    7.5599    1.8261   25.2210 H   0  0  0  0  0  0  0  0  0  0  0  0
    9.8695    2.4662   21.8315 C   0  0  0  0  0  0  0  0  0  0  0  0
    9.3166    3.1892   21.1978 H   0  0  0  0  0  0  0  0  0  0  0  0
   10.7084    2.9956   22.2978 H   0  0  0  0  0  0  0  0  0  0  0  0
   10.4244    1.3688   20.9476 C   0  0  0  0  0  0  0  0  0  0  0  0
   10.8249    0.5326   21.5338 H   0  0  0  0  0  0  0  0  0  0  0  0
    9.6544    0.9706   20.2738 H   0  0  0  0  0  0  0  0  0  0  0  0
   11.2218    1.8259   20.3522 H   0  0  0  0  0  0  0  0  0  0  0  0
    5.4234    0.6749   20.1282 C   0  0  0  0  0  0  0  0  0  0  0  0
    5.0078    0.6595   21.1383 H   0  0  0  0  0  0  0  0  0  0  0  0
    4.7818    1.3257   19.0715 C   0  0  0  0  0  0  0  0  0  0  0  0
    3.8503    1.8575   19.2127 H   0  0  0  0  0  0  0  0  0  0  0  0
  1  2  1  0
  2  3  2  0
  3  4  1  0
  4  5  1  0
  4  6  2  0
  6  7  1  0
  7  8  2  0
  8  9  1  0
  8 10  1  0
 10 11  1  0
 10 12  2  0
 12 13  1  0
 13 14  1  0
 13 15  2  0
 15 16  1  0
 16 17  1  0
 16 18  1  0
 16 19  1  0
 19 20  1  0
 20 21  1  0
 20 22  1  0
 20 23  1  0
 23 24  1  0
 23 25  1  0
 23 26  1  0
 19 27  1  0
 27 28  1  0
 27 29  1  0
 27 30  1  0
 30 31  1  0
 30 32  1  0
 30 33  1  0
  6 34  1  0
 34 35  1  0
 34 36  2  0
 36 37  1  0
 36  2  1  0
 15  7  1  0
M  END
>  <cnnaffinity>  (1) 
-4.91176

>  <filename>  (1) 
CCN(CC)Cc1cnccc1-c1cccnc1

$$$$
