
     RDKit          3D

 40 42  0  0  0  0  0  0  0  0999 V2000
   10.3834   -2.0329   22.1489 C   0  0  0  0  0  0  0  0  0  0  0  0
    9.8207   -1.3406   20.9128 C   0  0  0  0  0  0  0  0  0  0  0  0
    8.7991   -0.3411   21.2663 N   0  0  0  0  0  0  0  0  0  0  0  0
    7.3840   -0.6595   21.0896 C   0  0  0  0  0  0  0  0  0  0  0  0
    6.6730    0.0755   19.9679 C   0  0  0  0  0  0  0  0  0  0  0  0
    5.4094    0.6559   20.1485 C   0  0  0  0  0  0  0  0  0  0  0  0
    4.7930    1.3011   19.0712 C   0  0  0  0  0  0  0  0  0  0  0  0
    5.4392    1.3055   17.8328 C   0  0  0  0  0  0  0  0  0  0  0  0
    6.6213    0.7083   17.6216 N   0  0  0  0  0  0  0  0  0  0  0  0
    7.2136    0.1211   18.6712 C   0  0  0  0  0  0  0  0  0  0  0  0
    8.1641   -0.3666   18.4494 H   0  0  0  0  0  0  0  0  0  0  0  0
    4.9869    1.7992   16.9742 H   0  0  0  0  0  0  0  0  0  0  0  0
    3.8378    1.8018   19.1803 H   0  0  0  0  0  0  0  0  0  0  0  0
    4.9168    0.6192   21.1228 H   0  0  0  0  0  0  0  0  0  0  0  0
    7.3230   -1.7380   20.8898 H   0  0  0  0  0  0  0  0  0  0  0  0
    6.8390   -0.5019   22.0290 H   0  0  0  0  0  0  0  0  0  0  0  0
    9.3015    0.8294   21.8302 C   0  0  0  0  0  0  0  0  0  0  0  0
   10.4759    1.1373   21.6742 O   0  0  0  0  0  0  0  0  0  0  0  0
    8.3038    1.7711   22.5810 C   0  0  2  0  0  0  0  0  0  0  0  0
    7.7390    2.7622   21.5252 C   0  0  0  0  0  0  0  0  0  0  0  0
    8.1499    4.1121   22.0277 C   0  0  0  0  0  0  0  0  0  0  0  0
    7.9269    5.3748   21.4895 C   0  0  0  0  0  0  0  0  0  0  0  0
    8.5439    6.4873   22.0759 C   0  0  0  0  0  0  0  0  0  0  0  0
    9.3137    6.3275   23.2375 C   0  0  0  0  0  0  0  0  0  0  0  0
    9.4942    5.0634   23.8180 C   0  0  0  0  0  0  0  0  0  0  0  0
    8.8877    3.9625   23.2042 C   0  0  0  0  0  0  0  0  0  0  0  0
    8.8247    2.6498   23.6567 N   0  0  0  0  0  0  0  0  0  0  0  0
    9.5579    2.3381   24.2796 H   0  0  0  0  0  0  0  0  0  0  0  0
   10.0693    4.9281   24.7284 H   0  0  0  0  0  0  0  0  0  0  0  0
    9.7566    7.2035   23.6991 H   0  0  0  0  0  0  0  0  0  0  0  0
    8.4359    7.4629   21.6142 H   0  0  0  0  0  0  0  0  0  0  0  0
    7.2883    5.4879   20.6172 H   0  0  0  0  0  0  0  0  0  0  0  0
    8.1868    2.5570   20.5508 H   0  0  0  0  0  0  0  0  0  0  0  0
    6.6580    2.6795   21.3845 H   0  0  0  0  0  0  0  0  0  0  0  0
    7.4940    1.1550   22.9825 H   0  0  0  0  0  0  0  0  0  0  0  0
   10.6273   -0.8067   20.4009 H   0  0  0  0  0  0  0  0  0  0  0  0
    9.3907   -2.0672   20.2135 H   0  0  0  0  0  0  0  0  0  0  0  0
    9.6078   -2.6041   22.6694 H   0  0  0  0  0  0  0  0  0  0  0  0
   11.1946   -2.7094   21.8716 H   0  0  0  0  0  0  0  0  0  0  0  0
   10.8031   -1.2980   22.8443 H   0  0  0  0  0  0  0  0  0  0  0  0
  1  2  1  0
  2  3  1  0
  3  4  1  0
  4  5  1  0
  5  6  2  0
  6  7  1  0
  7  8  2  0
  8  9  1  0
  9 10  2  0
 10 11  1  0
  8 12  1  0
  7 13  1  0
  6 14  1  0
  4 15  1  0
  4 16  1  0
  3 17  1  0
 17 18  2  0
 17 19  1  0
 19 20  1  0
 20 21  1  0
 21 22  2  0
 22 23  1  0
 23 24  2  0
 24 25  1  0
 25 26  2  0
 26 27  1  0
 27 28  1  0
 25 29  1  0
 24 30  1  0
 23 31  1  0
 22 32  1  0
 20 33  1  0
 20 34  1  0
 19 35  1  1
  2 36  1  0
  2 37  1  0
  1 38  1  0
  1 39  1  0
  1 40  1  0
 10  5  1  0
 27 19  1  0
 26 21  1  0
M  END
>  <cnnaffinity>  (1) 
-5.07234

>  <filename>  (1) 
CCN(Cc1cccnc1)C(=O)[C@@H]1Cc2ccccc2N1

$$$$
