
     RDKit          3D

 38 41  0  0  0  0  0  0  0  0999 V2000
    7.2135   -3.0276   24.2986 C   0  0  0  0  0  0  0  0  0  0  0  0
    7.4383   -1.5117   24.3804 C   0  0  0  0  0  0  0  0  0  0  0  0
    7.6745   -0.9655   23.0377 N   0  0  0  0  0  0  0  0  0  0  0  0
    6.7628   -0.3001   22.2905 N   0  0  0  0  0  0  0  0  0  0  0  0
    7.3210   -0.2658   21.1058 C   0  0  0  0  0  0  0  0  0  0  0  0
    6.6945    0.2814   19.9265 C   0  0  0  0  0  0  0  0  0  0  0  0
    5.4555    0.9297   19.9493 C   0  0  0  0  0  0  0  0  0  0  0  0
    4.9591    1.3844   18.7347 C   0  0  0  0  0  0  0  0  0  0  0  0
    5.6867    1.1868   17.5598 C   0  0  0  0  0  0  0  0  0  0  0  0
    6.8794    0.5674   17.5489 N   0  0  0  0  0  0  0  0  0  0  0  0
    7.3663    0.1273   18.7159 C   0  0  0  0  0  0  0  0  0  0  0  0
    8.3229   -0.3859   18.7054 H   0  0  0  0  0  0  0  0  0  0  0  0
    5.2670    1.5365   16.6241 H   0  0  0  0  0  0  0  0  0  0  0  0
    4.0114    1.9042   18.6868 H   0  0  0  0  0  0  0  0  0  0  0  0
    4.8983    1.0816   20.8745 H   0  0  0  0  0  0  0  0  0  0  0  0
    8.5786   -0.8465   21.0359 N   0  0  0  0  0  0  0  0  0  0  0  0
    8.7649   -1.2639   22.2445 C   0  0  0  0  0  0  0  0  0  0  0  0
    9.9503   -2.0449   22.6552 C   0  0  0  0  0  0  0  0  0  0  0  0
   11.2246   -1.3313   22.3477 C   0  0  0  0  0  0  0  0  0  0  0  0
   12.2284   -2.0229   21.8832 N   0  0  0  0  0  0  0  0  0  0  0  0
   13.4053   -1.2308   22.0126 O   0  0  0  0  0  0  0  0  0  0  0  0
   13.0368   -0.0537   22.5929 C   0  0  0  0  0  0  0  0  0  0  0  0
   13.8435    1.0055   22.9865 C   0  0  0  0  0  0  0  0  0  0  0  0
   13.2609    2.1628   23.5084 C   0  0  0  0  0  0  0  0  0  0  0  0
   11.8698    2.2491   23.6271 C   0  0  0  0  0  0  0  0  0  0  0  0
   11.1133    3.9032   24.2028 Br  0  0  0  0  0  0  0  0  0  0  0  0
   11.0636    1.1499   23.2810 C   0  0  0  0  0  0  0  0  0  0  0  0
   11.6670   -0.0187   22.7785 C   0  0  0  0  0  0  0  0  0  0  0  0
    9.9832    1.2406   23.3765 H   0  0  0  0  0  0  0  0  0  0  0  0
   13.8826    3.0079   23.7815 H   0  0  0  0  0  0  0  0  0  0  0  0
   14.9137    0.9174   22.8585 H   0  0  0  0  0  0  0  0  0  0  0  0
    9.9211   -3.0030   22.1334 H   0  0  0  0  0  0  0  0  0  0  0  0
    9.9096   -2.2453   23.7241 H   0  0  0  0  0  0  0  0  0  0  0  0
    6.5656   -1.0203   24.8293 H   0  0  0  0  0  0  0  0  0  0  0  0
    8.3098   -1.3033   25.0120 H   0  0  0  0  0  0  0  0  0  0  0  0
    6.2832   -3.2431   23.7635 H   0  0  0  0  0  0  0  0  0  0  0  0
    7.1360   -3.4496   25.3054 H   0  0  0  0  0  0  0  0  0  0  0  0
    8.0406   -3.5199   23.7703 H   0  0  0  0  0  0  0  0  0  0  0  0
  1  2  1  0
  2  3  1  0
  3  4  1  0
  4  5  2  0
  5  6  1  0
  6  7  2  0
  7  8  1  0
  8  9  2  0
  9 10  1  0
 10 11  2  0
 11 12  1  0
  9 13  1  0
  8 14  1  0
  7 15  1  0
  5 16  1  0
 16 17  2  0
 17 18  1  0
 18 19  1  0
 19 20  2  0
 20 21  1  0
 21 22  1  0
 22 23  2  0
 23 24  1  0
 24 25  2  0
 25 26  1  0
 25 27  1  0
 27 28  2  0
 27 29  1  0
 24 30  1  0
 23 31  1  0
 18 32  1  0
 18 33  1  0
  2 34  1  0
  2 35  1  0
  1 36  1  0
  1 37  1  0
  1 38  1  0
 17  3  1  0
 28 19  1  0
 11  6  1  0
 28 22  1  0
M  END
>  <cnnaffinity>  (1) 
-6.50035

>  <filename>  (1) 
CCn1nc(-c2cccnc2)nc1Cc1noc2ccc(Br)cc12

$$$$
