
     RDKit          3D

 35 38  0  0  0  0  0  0  0  0999 V2000
   11.1913   -1.2904   22.5746 C   0  0  0  0  0  0  0  0  0  0  0  0
   10.1436   -2.3011   22.1051 C   0  0  0  0  0  0  0  0  0  0  0  0
    8.8039   -1.7425   21.9072 N   0  0  0  0  0  0  0  0  0  0  0  0
    8.4876   -1.2570   20.6860 N   0  0  0  0  0  0  0  0  0  0  0  0
    7.3347   -0.6499   20.8919 C   0  0  0  0  0  0  0  0  0  0  0  0
    6.6110    0.0348   19.8314 C   0  0  0  0  0  0  0  0  0  0  0  0
    5.3957    0.6900   20.0636 C   0  0  0  0  0  0  0  0  0  0  0  0
    4.7908    1.3398   18.9920 C   0  0  0  0  0  0  0  0  0  0  0  0
    5.4231    1.3178   17.7406 C   0  0  0  0  0  0  0  0  0  0  0  0
    6.5800    0.6777   17.5094 N   0  0  0  0  0  0  0  0  0  0  0  0
    7.1533    0.0508   18.5394 C   0  0  0  0  0  0  0  0  0  0  0  0
    8.0863   -0.4709   18.3374 H   0  0  0  0  0  0  0  0  0  0  0  0
    4.9822    1.8308   16.8874 H   0  0  0  0  0  0  0  0  0  0  0  0
    3.8561    1.8761   19.1130 H   0  0  0  0  0  0  0  0  0  0  0  0
    4.9570    0.6840   21.0644 H   0  0  0  0  0  0  0  0  0  0  0  0
    6.8903   -0.7083   22.1679 N   0  0  0  0  0  0  0  0  0  0  0  0
    7.8103   -1.4319   22.7803 C   0  0  0  0  0  0  0  0  0  0  0  0
    7.7965   -1.8136   24.2101 C   0  0  0  0  0  0  0  0  0  0  0  0
    7.8720   -0.8015   25.1728 C   0  0  0  0  0  0  0  0  0  0  0  0
    8.0358   -1.0929   26.5377 C   0  0  0  0  0  0  0  0  0  0  0  0
    8.0608   -2.4097   26.9667 C   0  0  0  0  0  0  0  0  0  0  0  0
    7.8502   -3.4505   26.0393 C   0  0  0  0  0  0  0  0  0  0  0  0
    7.7330   -3.1587   24.6626 C   0  0  0  0  0  0  0  0  0  0  0  0
    7.4719   -4.6632   23.8130 S   0  0  0  0  0  0  0  0  0  0  0  0
    7.5071   -5.6129   25.2015 N   0  0  0  0  0  0  0  0  0  0  0  0
    7.6961   -4.8803   26.2493 C   0  0  0  0  0  0  0  0  0  0  0  0
    7.6972   -5.3568   27.2280 H   0  0  0  0  0  0  0  0  0  0  0  0
    8.2567   -2.6458   28.0013 H   0  0  0  0  0  0  0  0  0  0  0  0
    8.1535   -0.2774   27.2459 H   0  0  0  0  0  0  0  0  0  0  0  0
    7.8165    0.2299   24.8364 H   0  0  0  0  0  0  0  0  0  0  0  0
   10.4167   -2.6871   21.1234 H   0  0  0  0  0  0  0  0  0  0  0  0
   10.0669   -3.1395   22.8069 H   0  0  0  0  0  0  0  0  0  0  0  0
   11.0024   -0.9895   23.6102 H   0  0  0  0  0  0  0  0  0  0  0  0
   11.2137   -0.3997   21.9370 H   0  0  0  0  0  0  0  0  0  0  0  0
   12.1790   -1.7571   22.5019 H   0  0  0  0  0  0  0  0  0  0  0  0
  1  2  1  0
  2  3  1  0
  3  4  1  0
  4  5  2  0
  5  6  1  0
  6  7  2  0
  7  8  1  0
  8  9  2  0
  9 10  1  0
 10 11  2  0
 11 12  1  0
  9 13  1  0
  8 14  1  0
  7 15  1  0
  5 16  1  0
 16 17  2  0
 17 18  1  0
 18 19  2  0
 19 20  1  0
 20 21  2  0
 21 22  1  0
 22 23  2  0
 23 24  1  0
 24 25  1  0
 25 26  2  0
 26 27  1  0
 21 28  1  0
 20 29  1  0
 19 30  1  0
  2 31  1  0
  2 32  1  0
  1 33  1  0
  1 34  1  0
  1 35  1  0
 17  3  1  0
 23 18  1  0
 11  6  1  0
 26 22  1  0
M  END
>  <cnnaffinity>  (1) 
-5.87149

>  <filename>  (1) 
CCn1nc(-c2cccnc2)nc1-c1cccc2cnsc12

$$$$
