
     RDKit          3D

 44 47  0  0  0  0  0  0  0  0999 V2000
    5.5054    3.2863   24.0018 C   0  0  0  0  0  0  0  0  0  0  0  0
    6.6463    4.0227   23.3104 C   0  0  0  0  0  0  0  0  0  0  0  0
    7.9012    3.9201   24.0603 N   0  0  0  0  0  0  0  0  0  0  0  0
    8.2171    4.7482   25.1033 C   0  0  0  0  0  0  0  0  0  0  0  0
    9.4331    4.3725   25.6194 C   0  0  0  0  0  0  0  0  0  0  0  0
    9.8771    3.2683   24.8640 C   0  0  0  0  0  0  0  0  0  0  0  0
    8.9113    2.9964   23.9142 C   0  0  0  0  0  0  0  0  0  0  0  0
    8.8594    1.9397   22.9168 C   0  0  0  0  0  0  0  0  0  0  0  0
    7.7897    1.2400   22.5539 N   0  0  0  0  0  0  0  0  0  0  0  0
    8.2855    0.3343   21.6810 C   0  0  0  0  0  0  0  0  0  0  0  0
    7.4238   -0.6627   20.9700 C   0  0  0  0  0  0  0  0  0  0  0  0
    6.6412   -0.0376   19.8308 C   0  0  0  0  0  0  0  0  0  0  0  0
    5.4367    0.6275   20.0941 C   0  0  0  0  0  0  0  0  0  0  0  0
    4.8017    1.3015   19.0509 C   0  0  0  0  0  0  0  0  0  0  0  0
    5.3949    1.2967   17.7867 C   0  0  0  0  0  0  0  0  0  0  0  0
    6.5424    0.6556   17.5096 N   0  0  0  0  0  0  0  0  0  0  0  0
    7.1396    0.0108   18.5189 C   0  0  0  0  0  0  0  0  0  0  0  0
    8.0785   -0.4929   18.2784 H   0  0  0  0  0  0  0  0  0  0  0  0
    4.9308    1.8295   16.9585 H   0  0  0  0  0  0  0  0  0  0  0  0
    3.8753    1.8398   19.2106 H   0  0  0  0  0  0  0  0  0  0  0  0
    5.0245    0.6310   21.1063 H   0  0  0  0  0  0  0  0  0  0  0  0
    8.0600   -1.4803   20.6159 H   0  0  0  0  0  0  0  0  0  0  0  0
    6.7312   -1.0758   21.7084 H   0  0  0  0  0  0  0  0  0  0  0  0
    9.5814    0.4148   21.4702 N   0  0  0  0  0  0  0  0  0  0  0  0
    9.9507    1.4661   22.2474 N   0  0  0  0  0  0  0  0  0  0  0  0
   11.2834    1.9695   22.2585 C   0  0  0  0  0  0  0  0  0  0  0  0
   11.4976    3.3529   22.2194 C   0  0  0  0  0  0  0  0  0  0  0  0
   12.7958    3.8236   22.3739 C   0  0  0  0  0  0  0  0  0  0  0  0
   13.0307    5.1432   22.2990 F   0  0  0  0  0  0  0  0  0  0  0  0
   13.8597    2.9766   22.6357 C   0  0  0  0  0  0  0  0  0  0  0  0
   13.6326    1.5961   22.6567 C   0  0  0  0  0  0  0  0  0  0  0  0
   12.3560    1.0830   22.4248 C   0  0  0  0  0  0  0  0  0  0  0  0
   12.1724    0.0165   22.3564 H   0  0  0  0  0  0  0  0  0  0  0  0
   14.4579    0.9127   22.8385 H   0  0  0  0  0  0  0  0  0  0  0  0
   14.8459    3.4194   22.6960 H   0  0  0  0  0  0  0  0  0  0  0  0
   10.6724    4.0521   22.2274 H   0  0  0  0  0  0  0  0  0  0  0  0
   10.8149    2.7283   24.9619 H   0  0  0  0  0  0  0  0  0  0  0  0
    9.9414    4.8300   26.4582 H   0  0  0  0  0  0  0  0  0  0  0  0
    7.5335    5.5300   25.3979 H   0  0  0  0  0  0  0  0  0  0  0  0
    6.8125    3.6383   22.2996 H   0  0  0  0  0  0  0  0  0  0  0  0
    6.4173    5.0918   23.2140 H   0  0  0  0  0  0  0  0  0  0  0  0
    4.5798    3.4195   23.4323 H   0  0  0  0  0  0  0  0  0  0  0  0
    5.7295    2.2170   24.0664 H   0  0  0  0  0  0  0  0  0  0  0  0
    5.3584    3.6823   25.0142 H   0  0  0  0  0  0  0  0  0  0  0  0
  1  2  1  0
  2  3  1  0
  3  4  1  0
  4  5  2  0
  5  6  1  0
  6  7  2  0
  7  8  1  0
  8  9  2  0
  9 10  1  0
 10 11  1  0
 11 12  1  0
 12 13  2  0
 13 14  1  0
 14 15  2  0
 15 16  1  0
 16 17  2  0
 17 18  1  0
 15 19  1  0
 14 20  1  0
 13 21  1  0
 11 22  1  0
 11 23  1  0
 10 24  2  0
 24 25  1  0
 25 26  1  0
 26 27  2  0
 27 28  1  0
 28 29  1  0
 28 30  2  0
 30 31  1  0
 31 32  2  0
 32 33  1  0
 31 34  1  0
 30 35  1  0
 27 36  1  0
  6 37  1  0
  5 38  1  0
  4 39  1  0
  2 40  1  0
  2 41  1  0
  1 42  1  0
  1 43  1  0
  1 44  1  0
  7  3  1  0
 25  8  1  0
 32 26  1  0
 17 12  1  0
M  END
>  <cnnaffinity>  (1) 
-6.16316

>  <filename>  (1) 
CCn1cccc1-c1nc(Cc2cccnc2)nn1-c1cccc(F)c1

$$$$
