
     RDKit          3D

 40 42  0  0  0  0  0  0  0  0999 V2000
   11.1955   -1.6171   22.6439 C   0  0  0  0  0  0  0  0  0  0  0  0
   10.0387   -2.5079   22.2024 C   0  0  0  0  0  0  0  0  0  0  0  0
    8.7890   -1.7997   21.9908 N   0  0  0  0  0  0  0  0  0  0  0  0
    8.4897   -1.3314   20.7599 N   0  0  0  0  0  0  0  0  0  0  0  0
    7.3575   -0.6878   20.9627 C   0  0  0  0  0  0  0  0  0  0  0  0
    6.6486    0.0044   19.9017 C   0  0  0  0  0  0  0  0  0  0  0  0
    5.4344    0.6543   20.1544 C   0  0  0  0  0  0  0  0  0  0  0  0
    4.8081    1.3045   19.0991 C   0  0  0  0  0  0  0  0  0  0  0  0
    5.4170    1.2806   17.8394 C   0  0  0  0  0  0  0  0  0  0  0  0
    6.5796    0.6584   17.5870 N   0  0  0  0  0  0  0  0  0  0  0  0
    7.1845    0.0397   18.6050 C   0  0  0  0  0  0  0  0  0  0  0  0
    8.1360   -0.4406   18.3746 H   0  0  0  0  0  0  0  0  0  0  0  0
    4.9539    1.7862   16.9962 H   0  0  0  0  0  0  0  0  0  0  0  0
    3.8753    1.8383   19.2409 H   0  0  0  0  0  0  0  0  0  0  0  0
    5.0081    0.6461   21.1594 H   0  0  0  0  0  0  0  0  0  0  0  0
    6.9113   -0.7212   22.2450 N   0  0  0  0  0  0  0  0  0  0  0  0
    7.8352   -1.4280   22.8648 C   0  0  0  0  0  0  0  0  0  0  0  0
    7.8163   -1.8655   24.2992 C   0  0  0  0  0  0  0  0  0  0  0  0
    7.3178   -3.3008   24.4777 C   0  0  0  0  0  0  0  0  0  0  0  0
    6.0233   -3.5763   24.0312 C   0  0  0  0  0  0  0  0  0  0  0  0
    5.4824   -4.8532   24.1702 C   0  0  0  0  0  0  0  0  0  0  0  0
    3.8741   -5.1710   23.5953 Cl  0  0  0  0  0  0  0  0  0  0  0  0
    6.2142   -5.8806   24.7568 C   0  0  0  0  0  0  0  0  0  0  0  0
    7.5287   -5.6340   25.1832 C   0  0  0  0  0  0  0  0  0  0  0  0
    8.0786   -4.3489   25.0506 C   0  0  0  0  0  0  0  0  0  0  0  0
    9.3413   -4.0166   25.4524 O   0  0  0  0  0  0  0  0  0  0  0  0
   10.1914   -4.9816   26.0338 C   0  0  0  0  0  0  0  0  0  0  0  0
   10.4038   -5.8031   25.3361 H   0  0  0  0  0  0  0  0  0  0  0  0
   11.1088   -4.4350   26.2540 H   0  0  0  0  0  0  0  0  0  0  0  0
    9.7663   -5.3910   26.9607 H   0  0  0  0  0  0  0  0  0  0  0  0
    8.1346   -6.4242   25.6191 H   0  0  0  0  0  0  0  0  0  0  0  0
    5.7270   -6.8444   24.8776 H   0  0  0  0  0  0  0  0  0  0  0  0
    5.4491   -2.7749   23.5703 H   0  0  0  0  0  0  0  0  0  0  0  0
    7.1422   -1.1640   24.8069 H   0  0  0  0  0  0  0  0  0  0  0  0
    8.8109   -1.7526   24.7390 H   0  0  0  0  0  0  0  0  0  0  0  0
   10.2476   -2.9310   21.2226 H   0  0  0  0  0  0  0  0  0  0  0  0
    9.8609   -3.3179   22.9201 H   0  0  0  0  0  0  0  0  0  0  0  0
   11.3919   -0.8491   21.8910 H   0  0  0  0  0  0  0  0  0  0  0  0
   11.0214   -1.1171   23.6069 H   0  0  0  0  0  0  0  0  0  0  0  0
   12.0842   -2.2463   22.7293 H   0  0  0  0  0  0  0  0  0  0  0  0
  1  2  1  0
  2  3  1  0
  3  4  1  0
  4  5  2  0
  5  6  1  0
  6  7  2  0
  7  8  1  0
  8  9  2  0
  9 10  1  0
 10 11  2  0
 11 12  1  0
  9 13  1  0
  8 14  1  0
  7 15  1  0
  5 16  1  0
 16 17  2  0
 17 18  1  0
 18 19  1  0
 19 20  2  0
 20 21  1  0
 21 22  1  0
 21 23  2  0
 23 24  1  0
 24 25  2  0
 25 26  1  0
 26 27  1  0
 27 28  1  0
 27 29  1  0
 27 30  1  0
 24 31  1  0
 23 32  1  0
 20 33  1  0
 18 34  1  0
 18 35  1  0
  2 36  1  0
  2 37  1  0
  1 38  1  0
  1 39  1  0
  1 40  1  0
 17  3  1  0
 25 19  1  0
 11  6  1  0
M  END
>  <cnnaffinity>  (1) 
-5.88992

>  <filename>  (1) 
CCn1nc(-c2cccnc2)nc1Cc1cc(Cl)ccc1OC

$$$$
