
     RDKit          3D

 42 45  0  0  0  0  0  0  0  0999 V2000
   11.2912   -1.6299   22.3185 C   0  0  0  0  0  0  0  0  0  0  0  0
   10.0503   -2.5017   22.1571 C   0  0  0  0  0  0  0  0  0  0  0  0
    8.8143   -1.7504   22.0073 N   0  0  0  0  0  0  0  0  0  0  0  0
    8.5111   -1.2883   20.7756 N   0  0  0  0  0  0  0  0  0  0  0  0
    7.3578   -0.6823   20.9651 C   0  0  0  0  0  0  0  0  0  0  0  0
    6.6476    0.0045   19.9012 C   0  0  0  0  0  0  0  0  0  0  0  0
    5.4335    0.6534   20.1554 C   0  0  0  0  0  0  0  0  0  0  0  0
    4.8089    1.3045   19.0989 C   0  0  0  0  0  0  0  0  0  0  0  0
    5.4186    1.2800   17.8392 C   0  0  0  0  0  0  0  0  0  0  0  0
    6.5799    0.6576   17.5860 N   0  0  0  0  0  0  0  0  0  0  0  0
    7.1846    0.0401   18.6048 C   0  0  0  0  0  0  0  0  0  0  0  0
    8.1368   -0.4385   18.3729 H   0  0  0  0  0  0  0  0  0  0  0  0
    4.9564    1.7856   16.9954 H   0  0  0  0  0  0  0  0  0  0  0  0
    3.8767    1.8379   19.2404 H   0  0  0  0  0  0  0  0  0  0  0  0
    5.0080    0.6427   21.1616 H   0  0  0  0  0  0  0  0  0  0  0  0
    6.8925   -0.7402   22.2367 N   0  0  0  0  0  0  0  0  0  0  0  0
    7.8217   -1.4342   22.8635 C   0  0  0  0  0  0  0  0  0  0  0  0
    7.7785   -1.8553   24.3131 C   0  0  0  0  0  0  0  0  0  0  0  0
    9.0519   -1.4840   25.1101 C   0  0  0  0  0  0  0  0  0  0  0  0
    9.8659   -2.2019   24.9649 H   0  0  0  0  0  0  0  0  0  0  0  0
    9.4156   -0.4918   24.8277 H   0  0  0  0  0  0  0  0  0  0  0  0
    8.8297   -1.4598   26.1797 H   0  0  0  0  0  0  0  0  0  0  0  0
    7.4270   -3.2797   24.4986 N   0  0  0  0  0  0  0  0  0  0  0  0
    7.4916   -4.3585   23.6366 C   0  0  0  0  0  0  0  0  0  0  0  0
    7.0903   -5.4886   24.1431 N   0  0  0  0  0  0  0  0  0  0  0  0
    6.7116   -5.1688   25.4363 C   0  0  0  0  0  0  0  0  0  0  0  0
    6.1861   -5.9876   26.4507 C   0  0  0  0  0  0  0  0  0  0  0  0
    5.8444   -5.4086   27.6675 C   0  0  0  0  0  0  0  0  0  0  0  0
    6.0107   -4.0237   27.8848 C   0  0  0  0  0  0  0  0  0  0  0  0
    6.5537   -3.1979   26.9016 C   0  0  0  0  0  0  0  0  0  0  0  0
    6.9028   -3.7920   25.6786 C   0  0  0  0  0  0  0  0  0  0  0  0
    6.6981   -2.1354   27.0723 H   0  0  0  0  0  0  0  0  0  0  0  0
    5.6938   -3.6087   28.8358 H   0  0  0  0  0  0  0  0  0  0  0  0
    5.4405   -6.0231   28.4654 H   0  0  0  0  0  0  0  0  0  0  0  0
    6.0518   -7.0446   26.2558 H   0  0  0  0  0  0  0  0  0  0  0  0
    7.8333   -4.2438   22.6151 H   0  0  0  0  0  0  0  0  0  0  0  0
    6.9272   -1.2914   24.7174 H   0  0  0  0  0  0  0  0  0  0  0  0
    9.9505   -3.2222   22.9770 H   0  0  0  0  0  0  0  0  0  0  0  0
   10.0971   -3.0386   21.2122 H   0  0  0  0  0  0  0  0  0  0  0  0
   11.2412   -0.9360   23.1672 H   0  0  0  0  0  0  0  0  0  0  0  0
   12.1624   -2.2755   22.4590 H   0  0  0  0  0  0  0  0  0  0  0  0
   11.4448   -1.0472   21.4071 H   0  0  0  0  0  0  0  0  0  0  0  0
  1  2  1  0
  2  3  1  0
  3  4  1  0
  4  5  2  0
  5  6  1  0
  6  7  2  0
  7  8  1  0
  8  9  2  0
  9 10  1  0
 10 11  2  0
 11 12  1  0
  9 13  1  0
  8 14  1  0
  7 15  1  0
  5 16  1  0
 16 17  2  0
 17 18  1  0
 18 19  1  0
 19 20  1  0
 19 21  1  0
 19 22  1  0
 18 23  1  0
 23 24  1  0
 24 25  2  0
 25 26  1  0
 26 27  2  0
 27 28  1  0
 28 29  2  0
 29 30  1  0
 30 31  2  0
 30 32  1  0
 29 33  1  0
 28 34  1  0
 27 35  1  0
 24 36  1  0
 18 37  1  0
  2 38  1  0
  2 39  1  0
  1 40  1  0
  1 41  1  0
  1 42  1  0
 17  3  1  0
 31 23  1  0
 11  6  1  0
 31 26  1  0
M  END
>  <cnnaffinity>  (1) 
-5.90178

>  <filename>  (1) 
CCn1nc(-c2cccnc2)nc1C(C)n1cnc2ccccc21

$$$$
