
     RDKit          3D

 36 37  0  0  0  0  0  0  0  0999 V2000
    5.0406    1.8245   16.9182 H   0  0  0  0  0  0  0  0  0  0  0  0
    5.4918    1.3161   17.7669 C   0  0  0  0  0  0  0  0  0  0  0  0
    6.6740    0.7176   17.5401 N   0  0  0  0  0  0  0  0  0  0  0  0
    7.2578    0.0891   18.5661 C   0  0  0  0  0  0  0  0  0  0  0  0
    8.2170   -0.3918   18.3764 H   0  0  0  0  0  0  0  0  0  0  0  0
    6.6971    0.0058   19.8564 C   0  0  0  0  0  0  0  0  0  0  0  0
    7.3337   -0.7400   20.8852 N   0  0  0  0  0  0  0  0  0  0  0  0
    8.1730   -0.4152   21.3394 H   0  0  0  0  0  0  0  0  0  0  0  0
    6.6885   -1.6879   21.6400 C   0  0  0  0  0  0  0  0  0  0  0  0
    5.6788   -2.2852   21.3647 O   0  0  0  0  0  0  0  0  0  0  0  0
    7.4850   -1.8639   22.7544 O   0  0  0  0  0  0  0  0  0  0  0  0
    6.9133   -2.6317   23.8287 N   0  0  0  0  0  0  0  0  0  0  0  0
    7.0290   -4.0597   23.4241 C   0  0  0  0  0  0  0  0  0  0  0  0
    6.5616   -4.6701   24.2112 H   0  0  0  0  0  0  0  0  0  0  0  0
    6.4405   -4.1799   22.5138 H   0  0  0  0  0  0  0  0  0  0  0  0
    8.4948   -4.4727   23.2026 C   0  0  0  0  0  0  0  0  0  0  0  0
    8.9033   -3.8612   22.3896 H   0  0  0  0  0  0  0  0  0  0  0  0
    8.5623   -5.5217   22.8899 H   0  0  0  0  0  0  0  0  0  0  0  0
    9.3195   -4.2715   24.3972 N   0  0  0  0  0  0  0  0  0  0  0  0
    9.0608   -5.2313   25.4727 C   0  0  0  0  0  0  0  0  0  0  0  0
    8.1662   -4.9662   26.0653 H   0  0  0  0  0  0  0  0  0  0  0  0
    8.8475   -6.2043   25.0142 H   0  0  0  0  0  0  0  0  0  0  0  0
   10.2807   -5.3520   26.3750 C   0  0  0  0  0  0  0  0  0  0  0  0
   11.0391   -5.9804   25.8962 H   0  0  0  0  0  0  0  0  0  0  0  0
   10.0041   -5.7733   27.3420 H   0  0  0  0  0  0  0  0  0  0  0  0
   10.7140   -4.3668   26.5565 H   0  0  0  0  0  0  0  0  0  0  0  0
    9.2255   -2.8691   24.8374 C   0  0  0  0  0  0  0  0  0  0  0  0
    9.7609   -2.2354   24.1183 H   0  0  0  0  0  0  0  0  0  0  0  0
    9.7298   -2.7634   25.8013 H   0  0  0  0  0  0  0  0  0  0  0  0
    7.7773   -2.3378   24.9926 C   0  0  0  0  0  0  0  0  0  0  0  0
    7.3069   -2.7816   25.8822 H   0  0  0  0  0  0  0  0  0  0  0  0
    7.7852   -1.2523   25.1295 H   0  0  0  0  0  0  0  0  0  0  0  0
    5.4692    0.6466   20.0840 C   0  0  0  0  0  0  0  0  0  0  0  0
    5.0208    0.6104   21.0768 H   0  0  0  0  0  0  0  0  0  0  0  0
    4.8658    1.3197   19.0159 C   0  0  0  0  0  0  0  0  0  0  0  0
    3.9227    1.8409   19.1392 H   0  0  0  0  0  0  0  0  0  0  0  0
  1  2  1  0
  2  3  2  0
  3  4  1  0
  4  5  1  0
  4  6  2  0
  6  7  1  0
  7  8  1  0
  7  9  1  0
  9 10  2  0
  9 11  1  0
 11 12  1  0
 12 13  1  0
 13 14  1  0
 13 15  1  0
 13 16  1  0
 16 17  1  0
 16 18  1  0
 16 19  1  0
 19 20  1  0
 20 21  1  0
 20 22  1  0
 20 23  1  0
 23 24  1  0
 23 25  1  0
 23 26  1  0
 19 27  1  0
 27 28  1  0
 27 29  1  0
 27 30  1  0
 30 31  1  0
 30 32  1  0
  6 33  1  0
 33 34  1  0
 33 35  2  0
 35 36  1  0
 35  2  1  0
 30 12  1  0
M  END
>  <cnnaffinity>  (1) 
-4.31877

>  <filename>  (1) 
CCN1CCN(OC(=O)Nc2cccnc2)CC1

$$$$
