
     RDKit          3D

 38 40  0  0  0  0  0  0  0  0999 V2000
   11.2495   -1.5435   22.5428 C   0  0  0  0  0  0  0  0  0  0  0  0
   10.0648   -2.3959   22.1037 C   0  0  0  0  0  0  0  0  0  0  0  0
    8.8040   -1.6777   21.9735 N   0  0  0  0  0  0  0  0  0  0  0  0
    8.4799   -1.1984   20.7544 N   0  0  0  0  0  0  0  0  0  0  0  0
    7.3299   -0.5908   20.9642 C   0  0  0  0  0  0  0  0  0  0  0  0
    6.5979    0.0613   19.8815 C   0  0  0  0  0  0  0  0  0  0  0  0
    5.3727    0.7089   20.0879 C   0  0  0  0  0  0  0  0  0  0  0  0
    4.7783    1.3445   18.9996 C   0  0  0  0  0  0  0  0  0  0  0  0
    5.4245    1.3087   17.7577 C   0  0  0  0  0  0  0  0  0  0  0  0
    6.5812    0.6628   17.5444 N   0  0  0  0  0  0  0  0  0  0  0  0
    7.1467    0.0519   18.5897 C   0  0  0  0  0  0  0  0  0  0  0  0
    8.0807   -0.4721   18.3937 H   0  0  0  0  0  0  0  0  0  0  0  0
    4.9979    1.8168   16.8953 H   0  0  0  0  0  0  0  0  0  0  0  0
    3.8438    1.8840   19.1020 H   0  0  0  0  0  0  0  0  0  0  0  0
    4.9164    0.7147   21.0797 H   0  0  0  0  0  0  0  0  0  0  0  0
    6.8949   -0.6506   22.2453 N   0  0  0  0  0  0  0  0  0  0  0  0
    7.8345   -1.3457   22.8616 C   0  0  0  0  0  0  0  0  0  0  0  0
    7.7599   -1.8442   24.2756 C   0  0  0  0  0  0  0  0  0  0  0  0
    7.1253   -3.2551   24.4124 C   0  0  0  0  0  0  0  0  0  0  0  0
    7.0967   -3.7677   25.8379 C   0  0  0  0  0  0  0  0  0  0  0  0
    8.1447   -4.5300   26.3821 C   0  0  0  0  0  0  0  0  0  0  0  0
    8.0270   -5.0255   27.6826 C   0  0  0  0  0  0  0  0  0  0  0  0
    6.9755   -4.7761   28.4785 N   0  0  0  0  0  0  0  0  0  0  0  0
    6.0091   -4.0290   27.9690 C   0  0  0  0  0  0  0  0  0  0  0  0
    4.6453   -3.7016   29.0075 Cl  0  0  0  0  0  0  0  0  0  0  0  0
    6.0053   -3.4989   26.6735 C   0  0  0  0  0  0  0  0  0  0  0  0
    5.1582   -2.9025   26.3522 H   0  0  0  0  0  0  0  0  0  0  0  0
    8.8071   -5.6595   28.1055 H   0  0  0  0  0  0  0  0  0  0  0  0
    9.0460   -4.7490   25.8206 H   0  0  0  0  0  0  0  0  0  0  0  0
    6.0992   -3.2219   24.0237 H   0  0  0  0  0  0  0  0  0  0  0  0
    7.6741   -3.9637   23.7758 H   0  0  0  0  0  0  0  0  0  0  0  0
    8.7630   -1.8502   24.7164 H   0  0  0  0  0  0  0  0  0  0  0  0
    7.1713   -1.1284   24.8580 H   0  0  0  0  0  0  0  0  0  0  0  0
    9.9242   -3.2376   22.7922 H   0  0  0  0  0  0  0  0  0  0  0  0
   10.2421   -2.7799   21.0985 H   0  0  0  0  0  0  0  0  0  0  0  0
   12.1488   -2.1662   22.5379 H   0  0  0  0  0  0  0  0  0  0  0  0
   11.4283   -0.7158   21.8515 H   0  0  0  0  0  0  0  0  0  0  0  0
   11.0961   -1.1358   23.5481 H   0  0  0  0  0  0  0  0  0  0  0  0
  1  2  1  0
  2  3  1  0
  3  4  1  0
  4  5  2  0
  5  6  1  0
  6  7  2  0
  7  8  1  0
  8  9  2  0
  9 10  1  0
 10 11  2  0
 11 12  1  0
  9 13  1  0
  8 14  1  0
  7 15  1  0
  5 16  1  0
 16 17  2  0
 17 18  1  0
 18 19  1  0
 19 20  1  0
 20 21  2  0
 21 22  1  0
 22 23  2  0
 23 24  1  0
 24 25  1  0
 24 26  2  0
 26 27  1  0
 22 28  1  0
 21 29  1  0
 19 30  1  0
 19 31  1  0
 18 32  1  0
 18 33  1  0
  2 34  1  0
  2 35  1  0
  1 36  1  0
  1 37  1  0
  1 38  1  0
 17  3  1  0
 26 20  1  0
 11  6  1  0
M  END
>  <cnnaffinity>  (1) 
-5.7135

>  <filename>  (1) 
CCn1nc(-c2cccnc2)nc1CCc1ccnc(Cl)c1

$$$$
