
     RDKit          3D

 36 39  0  0  0  0  0  0  0  0999 V2000
   11.1872   -1.6109   22.1220 C   0  0  0  0  0  0  0  0  0  0  0  0
    9.8126   -2.2512   22.2560 C   0  0  0  0  0  0  0  0  0  0  0  0
    8.6622   -1.4088   21.8913 N   0  0  0  0  0  0  0  0  0  0  0  0
    8.4494   -0.9945   20.6141 N   0  0  0  0  0  0  0  0  0  0  0  0
    7.2155   -0.5129   20.6682 C   0  0  0  0  0  0  0  0  0  0  0  0
    6.5183    0.1382   19.5618 C   0  0  0  0  0  0  0  0  0  0  0  0
    5.2882    0.7999   19.7270 C   0  0  0  0  0  0  0  0  0  0  0  0
    4.7432    1.4582   18.6280 C   0  0  0  0  0  0  0  0  0  0  0  0
    5.4305    1.4192   17.4095 C   0  0  0  0  0  0  0  0  0  0  0  0
    6.5847    0.7585   17.2364 N   0  0  0  0  0  0  0  0  0  0  0  0
    7.1128    0.1400   18.2973 C   0  0  0  0  0  0  0  0  0  0  0  0
    8.0574   -0.3811   18.1498 H   0  0  0  0  0  0  0  0  0  0  0  0
    5.0401    1.9466   16.5402 H   0  0  0  0  0  0  0  0  0  0  0  0
    3.8220    2.0236   18.7100 H   0  0  0  0  0  0  0  0  0  0  0  0
    4.7898    0.8065   20.6978 H   0  0  0  0  0  0  0  0  0  0  0  0
    6.6047   -0.6507   21.8680 N   0  0  0  0  0  0  0  0  0  0  0  0
    7.5240   -1.2132   22.6137 C   0  0  0  0  0  0  0  0  0  0  0  0
    7.3882   -1.5940   23.9967 C   0  0  0  0  0  0  0  0  0  0  0  0
    8.2452   -1.1865   25.0316 C   0  0  0  0  0  0  0  0  0  0  0  0
    9.3071   -0.2551   25.2138 C   0  0  0  0  0  0  0  0  0  0  0  0
    9.8843   -0.1351   26.4670 C   0  0  0  0  0  0  0  0  0  0  0  0
    9.4486   -0.9423   27.5600 C   0  0  0  0  0  0  0  0  0  0  0  0
    8.4395   -1.8457   27.3507 C   0  0  0  0  0  0  0  0  0  0  0  0
    7.8313   -1.9176   26.1269 N   0  0  0  0  0  0  0  0  0  0  0  0
    6.7810   -2.7280   25.8663 N   0  0  0  0  0  0  0  0  0  0  0  0
    6.5042   -2.5169   24.5928 C   0  0  0  0  0  0  0  0  0  0  0  0
    5.6942   -3.0855   24.1571 H   0  0  0  0  0  0  0  0  0  0  0  0
    8.0247   -2.5784   28.0165 H   0  0  0  0  0  0  0  0  0  0  0  0
    9.9046   -0.8153   28.5383 H   0  0  0  0  0  0  0  0  0  0  0  0
   10.6608    0.6037   26.6313 H   0  0  0  0  0  0  0  0  0  0  0  0
    9.6355    0.3428   24.3753 H   0  0  0  0  0  0  0  0  0  0  0  0
    9.6619   -2.5363   23.3002 H   0  0  0  0  0  0  0  0  0  0  0  0
    9.7689   -3.1535   21.6434 H   0  0  0  0  0  0  0  0  0  0  0  0
   11.4044   -1.3393   21.0860 H   0  0  0  0  0  0  0  0  0  0  0  0
   11.9258   -2.3549   22.4444 H   0  0  0  0  0  0  0  0  0  0  0  0
   11.3083   -0.7294   22.7584 H   0  0  0  0  0  0  0  0  0  0  0  0
  1  2  1  0
  2  3  1  0
  3  4  1  0
  4  5  2  0
  5  6  1  0
  6  7  2  0
  7  8  1  0
  8  9  2  0
  9 10  1  0
 10 11  2  0
 11 12  1  0
  9 13  1  0
  8 14  1  0
  7 15  1  0
  5 16  1  0
 16 17  2  0
 17 18  1  0
 18 19  2  0
 19 20  1  0
 20 21  2  0
 21 22  1  0
 22 23  2  0
 23 24  1  0
 24 25  1  0
 25 26  2  0
 26 27  1  0
 23 28  1  0
 22 29  1  0
 21 30  1  0
 20 31  1  0
  2 32  1  0
  2 33  1  0
  1 34  1  0
  1 35  1  0
  1 36  1  0
 17  3  1  0
 26 18  1  0
 11  6  1  0
 24 19  1  0
M  END
>  <cnnaffinity>  (1) 
-5.68943

>  <filename>  (1) 
CCn1nc(-c2cccnc2)nc1-c1cnn2ccccc12

$$$$
