
     RDKit          3D

 39 42  0  0  0  0  0  0  0  0999 V2000
   11.3063   -1.5514   22.3103 C   0  0  0  0  0  0  0  0  0  0  0  0
   10.0495   -2.3916   22.1402 C   0  0  0  0  0  0  0  0  0  0  0  0
    8.8239   -1.6320   21.9831 N   0  0  0  0  0  0  0  0  0  0  0  0
    8.5059   -1.1693   20.7553 N   0  0  0  0  0  0  0  0  0  0  0  0
    7.3110   -0.6424   20.9430 C   0  0  0  0  0  0  0  0  0  0  0  0
    6.5735    0.0166   19.8727 C   0  0  0  0  0  0  0  0  0  0  0  0
    5.3562    0.6795   20.0889 C   0  0  0  0  0  0  0  0  0  0  0  0
    4.7774    1.3344   19.0052 C   0  0  0  0  0  0  0  0  0  0  0  0
    5.4310    1.3041   17.7664 C   0  0  0  0  0  0  0  0  0  0  0  0
    6.5861    0.6584   17.5499 N   0  0  0  0  0  0  0  0  0  0  0  0
    7.1407    0.0329   18.5907 C   0  0  0  0  0  0  0  0  0  0  0  0
    8.0852   -0.4766   18.4081 H   0  0  0  0  0  0  0  0  0  0  0  0
    5.0132    1.8216   16.9077 H   0  0  0  0  0  0  0  0  0  0  0  0
    3.8544    1.8916   19.1097 H   0  0  0  0  0  0  0  0  0  0  0  0
    4.9006    0.6958   21.0824 H   0  0  0  0  0  0  0  0  0  0  0  0
    6.8460   -0.7366   22.2088 N   0  0  0  0  0  0  0  0  0  0  0  0
    7.8220   -1.3561   22.8461 C   0  0  0  0  0  0  0  0  0  0  0  0
    7.8814   -1.7508   24.2742 C   0  0  1  0  0  0  0  0  0  0  0  0
    8.7953   -1.0885   25.2682 C   0  0  0  0  0  0  0  0  0  0  0  0
    7.3130   -0.8332   25.3331 C   0  0  2  0  0  0  0  0  0  0  0  0
    6.4381   -1.3730   26.4171 C   0  0  0  0  0  0  0  0  0  0  0  0
    6.5278   -2.6923   26.8933 C   0  0  0  0  0  0  0  0  0  0  0  0
    5.5953   -3.1444   27.8254 C   0  0  0  0  0  0  0  0  0  0  0  0
    4.6354   -2.3738   28.3527 N   0  0  0  0  0  0  0  0  0  0  0  0
    4.5790   -1.1020   27.9363 C   0  0  0  0  0  0  0  0  0  0  0  0
    5.4402   -0.5622   26.9815 C   0  0  0  0  0  0  0  0  0  0  0  0
    5.3159    0.4694   26.6697 H   0  0  0  0  0  0  0  0  0  0  0  0
    3.7828   -0.4939   28.3670 H   0  0  0  0  0  0  0  0  0  0  0  0
    5.6166   -4.1822   28.1590 H   0  0  0  0  0  0  0  0  0  0  0  0
    7.3015   -3.3765   26.5635 H   0  0  0  0  0  0  0  0  0  0  0  0
    6.9901    0.1417   24.9598 H   0  0  0  0  0  0  0  0  0  0  0  0
    9.4457   -0.2843   24.9276 H   0  0  0  0  0  0  0  0  0  0  0  0
    9.2143   -1.7171   26.0471 H   0  0  0  0  0  0  0  0  0  0  0  0
    7.7244   -2.8213   24.4174 H   0  0  0  0  0  0  0  0  0  0  0  0
    9.9301   -3.0667   22.9951 H   0  0  0  0  0  0  0  0  0  0  0  0
   10.1127   -2.9595   21.2158 H   0  0  0  0  0  0  0  0  0  0  0  0
   11.4904   -0.9374   21.4271 H   0  0  0  0  0  0  0  0  0  0  0  0
   12.1686   -2.2114   22.4319 H   0  0  0  0  0  0  0  0  0  0  0  0
   11.2464   -0.8968   23.1835 H   0  0  0  0  0  0  0  0  0  0  0  0
  1  2  1  0
  2  3  1  0
  3  4  1  0
  4  5  2  0
  5  6  1  0
  6  7  2  0
  7  8  1  0
  8  9  2  0
  9 10  1  0
 10 11  2  0
 11 12  1  0
  9 13  1  0
  8 14  1  0
  7 15  1  0
  5 16  1  0
 16 17  2  0
 17 18  1  0
 18 19  1  0
 19 20  1  0
 20 21  1  0
 21 22  2  0
 22 23  1  0
 23 24  2  0
 24 25  1  0
 25 26  2  0
 26 27  1  0
 25 28  1  0
 23 29  1  0
 22 30  1  0
 20 31  1  6
 19 32  1  0
 19 33  1  0
 18 34  1  6
  2 35  1  0
  2 36  1  0
  1 37  1  0
  1 38  1  0
  1 39  1  0
 17  3  1  0
 20 18  1  0
 26 21  1  0
 11  6  1  0
M  END
>  <cnnaffinity>  (1) 
-5.83953

>  <filename>  (1) 
CCn1nc(-c2cccnc2)nc1[C@H]1C[C@@H]1c1ccncc1

$$$$
