
     RDKit          3D

 44 47  0  0  0  0  0  0  0  0999 V2000
   11.2292   -1.5697   22.5838 C   0  0  0  0  0  0  0  0  0  0  0  0
   10.0472   -2.4347   22.1578 C   0  0  0  0  0  0  0  0  0  0  0  0
    8.7855   -1.7349   21.9833 N   0  0  0  0  0  0  0  0  0  0  0  0
    8.4680   -1.2753   20.7567 N   0  0  0  0  0  0  0  0  0  0  0  0
    7.3345   -0.6407   20.9643 C   0  0  0  0  0  0  0  0  0  0  0  0
    6.6224    0.0217   19.8855 C   0  0  0  0  0  0  0  0  0  0  0  0
    5.4073    0.6698   20.1221 C   0  0  0  0  0  0  0  0  0  0  0  0
    4.7979    1.3166   19.0545 C   0  0  0  0  0  0  0  0  0  0  0  0
    5.4258    1.2913   17.8039 C   0  0  0  0  0  0  0  0  0  0  0  0
    6.5856    0.6567   17.5668 N   0  0  0  0  0  0  0  0  0  0  0  0
    7.1731    0.0365   18.5948 C   0  0  0  0  0  0  0  0  0  0  0  0
    8.1236   -0.4571   18.3820 H   0  0  0  0  0  0  0  0  0  0  0  0
    4.9733    1.8063   16.9602 H   0  0  0  0  0  0  0  0  0  0  0  0
    3.8662    1.8487   19.1961 H   0  0  0  0  0  0  0  0  0  0  0  0
    4.9959    0.6640   21.1333 H   0  0  0  0  0  0  0  0  0  0  0  0
    6.9040   -0.6603   22.2501 N   0  0  0  0  0  0  0  0  0  0  0  0
    7.8296   -1.3699   22.8667 C   0  0  0  0  0  0  0  0  0  0  0  0
    7.7651   -1.8758   24.2718 C   0  0  0  0  0  0  0  0  0  0  0  0
    7.1028   -3.2784   24.3947 C   0  0  0  0  0  0  0  0  0  0  0  0
    7.0385   -3.7833   25.8195 C   0  0  0  0  0  0  0  0  0  0  0  0
    8.0204   -4.6203   26.3228 C   0  0  0  0  0  0  0  0  0  0  0  0
    7.9863   -5.0915   27.6667 C   0  0  0  0  0  0  0  0  0  0  0  0
    6.9538   -4.7374   28.4970 C   0  0  0  0  0  0  0  0  0  0  0  0
    5.9611   -3.8082   28.0489 C   0  0  0  0  0  0  0  0  0  0  0  0
    4.9900   -3.2426   28.9319 C   0  0  0  0  0  0  0  0  0  0  0  0
    4.1005   -2.3351   28.5940 N   0  0  0  0  0  0  0  0  0  0  0  0
    4.1266   -1.9057   27.3042 C   0  0  0  0  0  0  0  0  0  0  0  0
    5.0171   -2.3446   26.3551 C   0  0  0  0  0  0  0  0  0  0  0  0
    5.9988   -3.3231   26.7025 C   0  0  0  0  0  0  0  0  0  0  0  0
    4.9980   -1.9064   25.3626 H   0  0  0  0  0  0  0  0  0  0  0  0
    3.4047   -1.1341   27.0581 H   0  0  0  0  0  0  0  0  0  0  0  0
    5.0019   -3.5580   29.9753 H   0  0  0  0  0  0  0  0  0  0  0  0
    6.9162   -5.1176   29.5176 H   0  0  0  0  0  0  0  0  0  0  0  0
    8.7996   -5.7196   28.0269 H   0  0  0  0  0  0  0  0  0  0  0  0
    8.8590   -4.9170   25.6949 H   0  0  0  0  0  0  0  0  0  0  0  0
    7.6627   -3.9909   23.7731 H   0  0  0  0  0  0  0  0  0  0  0  0
    6.0899   -3.2443   23.9695 H   0  0  0  0  0  0  0  0  0  0  0  0
    7.2051   -1.1577   24.8760 H   0  0  0  0  0  0  0  0  0  0  0  0
    8.7780   -1.8969   24.6909 H   0  0  0  0  0  0  0  0  0  0  0  0
    9.8830   -3.2714   22.8433 H   0  0  0  0  0  0  0  0  0  0  0  0
   10.2502   -2.8522   21.1786 H   0  0  0  0  0  0  0  0  0  0  0  0
   11.0761   -1.1022   23.5616 H   0  0  0  0  0  0  0  0  0  0  0  0
   11.4168   -0.7763   21.8533 H   0  0  0  0  0  0  0  0  0  0  0  0
   12.1178   -2.2082   22.6364 H   0  0  0  0  0  0  0  0  0  0  0  0
  1  2  1  0
  2  3  1  0
  3  4  1  0
  4  5  2  0
  5  6  1  0
  6  7  2  0
  7  8  1  0
  8  9  2  0
  9 10  1  0
 10 11  2  0
 11 12  1  0
  9 13  1  0
  8 14  1  0
  7 15  1  0
  5 16  1  0
 16 17  2  0
 17 18  1  0
 18 19  1  0
 19 20  1  0
 20 21  2  0
 21 22  1  0
 22 23  2  0
 23 24  1  0
 24 25  2  0
 25 26  1  0
 26 27  2  0
 27 28  1  0
 28 29  2  0
 28 30  1  0
 27 31  1  0
 25 32  1  0
 23 33  1  0
 22 34  1  0
 21 35  1  0
 19 36  1  0
 19 37  1  0
 18 38  1  0
 18 39  1  0
  2 40  1  0
  2 41  1  0
  1 42  1  0
  1 43  1  0
  1 44  1  0
 17  3  1  0
 29 20  1  0
 11  6  1  0
 29 24  1  0
M  END
>  <cnnaffinity>  (1) 
-5.93044

>  <filename>  (1) 
CCn1nc(-c2cccnc2)nc1CCc1cccc2cnccc12

$$$$
