
     RDKit          3D

 43 45  0  0  0  0  0  0  0  0999 V2000
   11.1945   -1.6049   22.6205 C   0  0  0  0  0  0  0  0  0  0  0  0
   10.0325   -2.4899   22.1807 C   0  0  0  0  0  0  0  0  0  0  0  0
    8.7653   -1.7973   21.9982 N   0  0  0  0  0  0  0  0  0  0  0  0
    8.4861   -1.3081   20.7701 N   0  0  0  0  0  0  0  0  0  0  0  0
    7.3530   -0.6625   20.9572 C   0  0  0  0  0  0  0  0  0  0  0  0
    6.6410    0.0265   19.8931 C   0  0  0  0  0  0  0  0  0  0  0  0
    5.4228    0.6745   20.1348 C   0  0  0  0  0  0  0  0  0  0  0  0
    4.8074    1.3184   19.0666 C   0  0  0  0  0  0  0  0  0  0  0  0
    5.4259    1.2922   17.8103 C   0  0  0  0  0  0  0  0  0  0  0  0
    6.5868    0.6625   17.5713 N   0  0  0  0  0  0  0  0  0  0  0  0
    7.1786    0.0466   18.5987 C   0  0  0  0  0  0  0  0  0  0  0  0
    8.1225   -0.4530   18.3830 H   0  0  0  0  0  0  0  0  0  0  0  0
    4.9710    1.7963   16.9599 H   0  0  0  0  0  0  0  0  0  0  0  0
    3.8711    1.8455   19.1978 H   0  0  0  0  0  0  0  0  0  0  0  0
    4.9962    0.6668   21.1420 H   0  0  0  0  0  0  0  0  0  0  0  0
    6.8926   -0.6978   22.2310 N   0  0  0  0  0  0  0  0  0  0  0  0
    7.7858   -1.4407   22.8581 C   0  0  0  0  0  0  0  0  0  0  0  0
    7.7175   -1.8819   24.2987 C   0  0  0  0  0  0  0  0  0  0  0  0
    6.9245   -3.1108   24.5061 N   0  0  0  0  0  0  0  0  0  0  0  0
    5.6044   -3.0119   24.9445 C   0  0  0  0  0  0  0  0  0  0  0  0
    5.1501   -1.9503   25.3365 O   0  0  0  0  0  0  0  0  0  0  0  0
    4.7570   -4.2648   24.9226 C   0  0  0  0  0  0  0  0  0  0  0  0
    4.7045   -4.6690   23.9081 H   0  0  0  0  0  0  0  0  0  0  0  0
    3.7487   -4.0119   25.2467 H   0  0  0  0  0  0  0  0  0  0  0  0
    5.1786   -5.0237   25.5881 H   0  0  0  0  0  0  0  0  0  0  0  0
    7.5846   -4.3526   24.2264 C   0  0  0  0  0  0  0  0  0  0  0  0
    7.3043   -5.0704   23.0521 C   0  0  0  0  0  0  0  0  0  0  0  0
    8.0314   -6.2251   22.7469 C   0  0  0  0  0  0  0  0  0  0  0  0
    9.0198   -6.6677   23.6275 C   0  0  0  0  0  0  0  0  0  0  0  0
    9.2825   -5.9801   24.8222 C   0  0  0  0  0  0  0  0  0  0  0  0
    8.5490   -4.8293   25.1285 C   0  0  0  0  0  0  0  0  0  0  0  0
    8.6993   -4.3012   26.0707 H   0  0  0  0  0  0  0  0  0  0  0  0
   10.0654   -6.3306   25.4977 H   0  0  0  0  0  0  0  0  0  0  0  0
    9.6171   -7.5413   23.3691 H   0  0  0  0  0  0  0  0  0  0  0  0
    7.8132   -6.7776   21.8335 H   0  0  0  0  0  0  0  0  0  0  0  0
    6.5207   -4.7221   22.3856 H   0  0  0  0  0  0  0  0  0  0  0  0
    7.2630   -1.0828   24.8897 H   0  0  0  0  0  0  0  0  0  0  0  0
    8.7315   -2.0465   24.6853 H   0  0  0  0  0  0  0  0  0  0  0  0
    9.8672   -3.3382   22.8568 H   0  0  0  0  0  0  0  0  0  0  0  0
   10.2415   -2.8662   21.1842 H   0  0  0  0  0  0  0  0  0  0  0  0
   11.3684   -0.8042   21.8932 H   0  0  0  0  0  0  0  0  0  0  0  0
   11.0124   -1.1562   23.6040 H   0  0  0  0  0  0  0  0  0  0  0  0
   12.0977   -2.2228   22.6556 H   0  0  0  0  0  0  0  0  0  0  0  0
  1  2  1  0
  2  3  1  0
  3  4  1  0
  4  5  2  0
  5  6  1  0
  6  7  2  0
  7  8  1  0
  8  9  2  0
  9 10  1  0
 10 11  2  0
 11 12  1  0
  9 13  1  0
  8 14  1  0
  7 15  1  0
  5 16  1  0
 16 17  2  0
 17 18  1  0
 18 19  1  0
 19 20  1  0
 20 21  2  0
 20 22  1  0
 22 23  1  0
 22 24  1  0
 22 25  1  0
 19 26  1  0
 26 27  2  0
 27 28  1  0
 28 29  2  0
 29 30  1  0
 30 31  2  0
 31 32  1  0
 30 33  1  0
 29 34  1  0
 28 35  1  0
 27 36  1  0
 18 37  1  0
 18 38  1  0
  2 39  1  0
  2 40  1  0
  1 41  1  0
  1 42  1  0
  1 43  1  0
 17  3  1  0
 31 26  1  0
 11  6  1  0
M  END
>  <cnnaffinity>  (1) 
-5.86671

>  <filename>  (1) 
CCn1nc(-c2cccnc2)nc1CN(C(C)=O)c1ccccc1

$$$$
