
     RDKit          3D

 35 38  0  0  0  0  0  0  0  0999 V2000
   11.1411   -1.3450   22.7048 C   0  0  0  0  0  0  0  0  0  0  0  0
   10.1194   -2.3679   22.2269 C   0  0  0  0  0  0  0  0  0  0  0  0
    8.8048   -1.7974   21.9668 N   0  0  0  0  0  0  0  0  0  0  0  0
    8.5132   -1.3498   20.7232 N   0  0  0  0  0  0  0  0  0  0  0  0
    7.3821   -0.6966   20.9135 C   0  0  0  0  0  0  0  0  0  0  0  0
    6.6554    0.0004   19.8746 C   0  0  0  0  0  0  0  0  0  0  0  0
    5.4408    0.6485   20.1472 C   0  0  0  0  0  0  0  0  0  0  0  0
    4.8109    1.3026   19.0970 C   0  0  0  0  0  0  0  0  0  0  0  0
    5.4136    1.2845   17.8322 C   0  0  0  0  0  0  0  0  0  0  0  0
    6.5746    0.6647   17.5682 N   0  0  0  0  0  0  0  0  0  0  0  0
    7.1828    0.0445   18.5799 C   0  0  0  0  0  0  0  0  0  0  0  0
    8.1367   -0.4358   18.3592 H   0  0  0  0  0  0  0  0  0  0  0  0
    4.9496    1.7920   16.9920 H   0  0  0  0  0  0  0  0  0  0  0  0
    3.8777    1.8377   19.2410 H   0  0  0  0  0  0  0  0  0  0  0  0
    5.0186    0.6381   21.1566 H   0  0  0  0  0  0  0  0  0  0  0  0
    6.9388   -0.6865   22.1909 N   0  0  0  0  0  0  0  0  0  0  0  0
    7.8441   -1.3988   22.8279 C   0  0  0  0  0  0  0  0  0  0  0  0
    7.8552   -1.7549   24.2707 C   0  0  0  0  0  0  0  0  0  0  0  0
    7.8603   -3.1084   24.7177 C   0  0  0  0  0  0  0  0  0  0  0  0
    7.8048   -4.4286   24.1747 C   0  0  0  0  0  0  0  0  0  0  0  0
    7.7557   -5.3516   25.1152 N   0  0  0  0  0  0  0  0  0  0  0  0
    7.7790   -4.6701   26.2858 N   0  0  0  0  0  0  0  0  0  0  0  0
    7.8316   -3.3300   26.1138 C   0  0  0  0  0  0  0  0  0  0  0  0
    7.8273   -2.4077   27.0909 N   0  0  0  0  0  0  0  0  0  0  0  0
    7.8313   -1.1686   26.6339 C   0  0  0  0  0  0  0  0  0  0  0  0
    7.7934    0.1074   27.8139 Cl  0  0  0  0  0  0  0  0  0  0  0  0
    7.8404   -0.7818   25.2740 C   0  0  0  0  0  0  0  0  0  0  0  0
    7.8295    0.2715   25.0401 H   0  0  0  0  0  0  0  0  0  0  0  0
    7.7343   -5.1119   27.1925 H   0  0  0  0  0  0  0  0  0  0  0  0
    7.7833   -4.7499   23.1376 H   0  0  0  0  0  0  0  0  0  0  0  0
   10.0052   -3.1785   22.9568 H   0  0  0  0  0  0  0  0  0  0  0  0
   10.4088   -2.7762   21.2620 H   0  0  0  0  0  0  0  0  0  0  0  0
   12.1117   -1.8430   22.7451 H   0  0  0  0  0  0  0  0  0  0  0  0
   11.2166   -0.5158   21.9954 H   0  0  0  0  0  0  0  0  0  0  0  0
   10.8861   -0.9471   23.6942 H   0  0  0  0  0  0  0  0  0  0  0  0
  1  2  1  0
  2  3  1  0
  3  4  1  0
  4  5  2  0
  5  6  1  0
  6  7  2  0
  7  8  1  0
  8  9  2  0
  9 10  1  0
 10 11  2  0
 11 12  1  0
  9 13  1  0
  8 14  1  0
  7 15  1  0
  5 16  1  0
 16 17  2  0
 17 18  1  0
 18 19  2  0
 19 20  1  0
 20 21  2  0
 21 22  1  0
 22 23  1  0
 23 24  2  0
 24 25  1  0
 25 26  1  0
 25 27  2  0
 27 28  1  0
 22 29  1  0
 20 30  1  0
  2 31  1  0
  2 32  1  0
  1 33  1  0
  1 34  1  0
  1 35  1  0
 17  3  1  0
 27 18  1  0
 11  6  1  0
 23 19  1  0
M  END
>  <cnnaffinity>  (1) 
-5.9479

>  <filename>  (1) 
CCn1nc(-c2cccnc2)nc1-c1cc(Cl)nc2[nH]ncc12

$$$$
