
     RDKit          3D

 38 41  0  0  0  0  0  0  0  0999 V2000
    7.4706   -0.2058   25.1665 C   0  0  0  0  0  0  0  0  0  0  0  0
    6.9918   -1.3322   24.2547 C   0  0  0  0  0  0  0  0  0  0  0  0
    7.2191   -1.0975   22.8357 N   0  0  0  0  0  0  0  0  0  0  0  0
    6.2960   -0.3987   22.1267 N   0  0  0  0  0  0  0  0  0  0  0  0
    6.8044   -0.3748   20.9151 C   0  0  0  0  0  0  0  0  0  0  0  0
    6.1955    0.2760   19.7587 C   0  0  0  0  0  0  0  0  0  0  0  0
    5.0017    1.0142   19.7936 C   0  0  0  0  0  0  0  0  0  0  0  0
    4.5903    1.6232   18.6088 C   0  0  0  0  0  0  0  0  0  0  0  0
    5.3665    1.4669   17.4540 C   0  0  0  0  0  0  0  0  0  0  0  0
    6.4949    0.7461   17.4075 N   0  0  0  0  0  0  0  0  0  0  0  0
    6.8929    0.1764   18.5469 C   0  0  0  0  0  0  0  0  0  0  0  0
    7.8223   -0.3838   18.5168 H   0  0  0  0  0  0  0  0  0  0  0  0
    5.0776    1.9441   16.5210 H   0  0  0  0  0  0  0  0  0  0  0  0
    3.6983    2.2373   18.5640 H   0  0  0  0  0  0  0  0  0  0  0  0
    4.4293    1.1186   20.7194 H   0  0  0  0  0  0  0  0  0  0  0  0
    8.0013   -1.0068   20.8014 N   0  0  0  0  0  0  0  0  0  0  0  0
    8.2329   -1.4520   22.0144 C   0  0  0  0  0  0  0  0  0  0  0  0
    9.4435   -2.2743   22.3446 C   0  0  0  0  0  0  0  0  0  0  0  0
   10.4756   -1.6745   23.3371 C   0  0  0  0  0  0  0  0  0  0  0  0
   10.5767   -2.5718   24.4590 O   0  0  0  0  0  0  0  0  0  0  0  0
    9.8665   -3.6976   24.1804 C   0  0  0  0  0  0  0  0  0  0  0  0
    9.7680   -4.8258   24.9901 C   0  0  0  0  0  0  0  0  0  0  0  0
    8.9876   -5.9058   24.5265 C   0  0  0  0  0  0  0  0  0  0  0  0
    8.3388   -5.8200   23.2814 C   0  0  0  0  0  0  0  0  0  0  0  0
    7.4569   -7.1532   22.5884 Cl  0  0  0  0  0  0  0  0  0  0  0  0
    8.4005   -4.6585   22.5062 C   0  0  0  0  0  0  0  0  0  0  0  0
    9.1753   -3.6100   22.9812 C   0  0  0  0  0  0  0  0  0  0  0  0
    7.8651   -4.5897   21.5607 H   0  0  0  0  0  0  0  0  0  0  0  0
    8.8964   -6.7943   25.1460 H   0  0  0  0  0  0  0  0  0  0  0  0
   10.3104   -4.8544   25.9288 H   0  0  0  0  0  0  0  0  0  0  0  0
   10.2348   -0.6834   23.7368 H   0  0  0  0  0  0  0  0  0  0  0  0
   11.4535   -1.6168   22.8492 H   0  0  0  0  0  0  0  0  0  0  0  0
    9.9169   -2.4090   21.3652 H   0  0  0  0  0  0  0  0  0  0  0  0
    7.4839   -2.2725   24.5138 H   0  0  0  0  0  0  0  0  0  0  0  0
    5.9142   -1.4717   24.3567 H   0  0  0  0  0  0  0  0  0  0  0  0
    8.5414   -0.0174   25.0488 H   0  0  0  0  0  0  0  0  0  0  0  0
    6.9328    0.7289   24.9777 H   0  0  0  0  0  0  0  0  0  0  0  0
    7.3107   -0.4971   26.2086 H   0  0  0  0  0  0  0  0  0  0  0  0
  1  2  1  0
  2  3  1  0
  3  4  1  0
  4  5  2  0
  5  6  1  0
  6  7  2  0
  7  8  1  0
  8  9  2  0
  9 10  1  0
 10 11  2  0
 11 12  1  0
  9 13  1  0
  8 14  1  0
  7 15  1  0
  5 16  1  0
 16 17  2  0
 17 18  1  0
 18 19  1  0
 19 20  1  0
 20 21  1  0
 21 22  2  0
 22 23  1  0
 23 24  2  0
 24 25  1  0
 24 26  1  0
 26 27  2  0
 26 28  1  0
 23 29  1  0
 22 30  1  0
 19 31  1  0
 19 32  1  0
 18 33  1  0
  2 34  1  0
  2 35  1  0
  1 36  1  0
  1 37  1  0
  1 38  1  0
 17  3  1  0
 27 18  1  0
 11  6  1  0
 27 21  1  0
M  END
>  <cnnaffinity>  (1) 
-6.0146

>  <filename>  (1) 
CCn1nc(-c2cccnc2)nc1C1COc2ccc(Cl)cc21

$$$$
