
     RDKit          3D

 50 53  0  0  0  0  0  0  0  0999 V2000
    7.1671    5.8892   23.7823 C   0  0  0  0  0  0  0  0  0  0  0  0
    7.1605    4.4247   23.3587 C   0  0  0  0  0  0  0  0  0  0  0  0
    7.8006    3.5545   24.3498 N   0  0  0  0  0  0  0  0  0  0  0  0
    7.1477    3.2018   25.5011 C   0  0  0  0  0  0  0  0  0  0  0  0
    6.0776    3.6397   25.8760 O   0  0  0  0  0  0  0  0  0  0  0  0
    7.9762    2.1376   26.2053 C   0  0  0  0  0  0  0  0  0  0  0  0
    9.2575    1.9693   25.3821 C   0  0  0  0  0  0  0  0  0  0  0  0
    9.0010    2.7728   24.0721 C   0  0  0  0  0  0  0  0  0  0  0  0
    8.9017    1.8556   22.8691 C   0  0  0  0  0  0  0  0  0  0  0  0
    7.8501    1.1570   22.4861 N   0  0  0  0  0  0  0  0  0  0  0  0
    8.3662    0.2763   21.5913 C   0  0  0  0  0  0  0  0  0  0  0  0
    7.4752   -0.7116   20.8939 C   0  0  0  0  0  0  0  0  0  0  0  0
    6.6714   -0.0679   19.7750 C   0  0  0  0  0  0  0  0  0  0  0  0
    5.4799    0.6068   20.0692 C   0  0  0  0  0  0  0  0  0  0  0  0
    4.8255    1.2959   19.0475 C   0  0  0  0  0  0  0  0  0  0  0  0
    5.3976    1.2997   17.7726 C   0  0  0  0  0  0  0  0  0  0  0  0
    6.5341    0.6541   17.4662 N   0  0  0  0  0  0  0  0  0  0  0  0
    7.1443   -0.0109   18.4540 C   0  0  0  0  0  0  0  0  0  0  0  0
    8.0747   -0.5181   18.1922 H   0  0  0  0  0  0  0  0  0  0  0  0
    4.9259    1.8478   16.9601 H   0  0  0  0  0  0  0  0  0  0  0  0
    3.9051    1.8390   19.2303 H   0  0  0  0  0  0  0  0  0  0  0  0
    5.1068    0.6113   21.0958 H   0  0  0  0  0  0  0  0  0  0  0  0
    8.0762   -1.5490   20.5265 H   0  0  0  0  0  0  0  0  0  0  0  0
    6.7931   -1.1009   21.6596 H   0  0  0  0  0  0  0  0  0  0  0  0
    9.6694    0.3836   21.3964 N   0  0  0  0  0  0  0  0  0  0  0  0
   10.0107    1.4258   22.2098 N   0  0  0  0  0  0  0  0  0  0  0  0
   11.3284    1.9808   22.3326 C   0  0  0  0  0  0  0  0  0  0  0  0
   11.4861    3.3667   22.1878 C   0  0  0  0  0  0  0  0  0  0  0  0
   12.7403    3.9622   22.3210 C   0  0  0  0  0  0  0  0  0  0  0  0
   13.8285    3.1867   22.7040 C   0  0  0  0  0  0  0  0  0  0  0  0
   13.6612    1.8106   22.9032 C   0  0  0  0  0  0  0  0  0  0  0  0
   12.4321    1.1684   22.6666 C   0  0  0  0  0  0  0  0  0  0  0  0
   12.3217   -0.3289   22.8125 C   0  0  0  0  0  0  0  0  0  0  0  0
   11.5755   -0.5940   23.5697 H   0  0  0  0  0  0  0  0  0  0  0  0
   11.9740   -0.7952   21.8864 H   0  0  0  0  0  0  0  0  0  0  0  0
   13.2838   -0.7702   23.0859 H   0  0  0  0  0  0  0  0  0  0  0  0
   14.4988    1.2027   23.2374 H   0  0  0  0  0  0  0  0  0  0  0  0
   14.8112    3.6457   22.7729 H   0  0  0  0  0  0  0  0  0  0  0  0
   12.8474    5.0296   22.1683 H   0  0  0  0  0  0  0  0  0  0  0  0
   10.6127    3.9887   22.0661 H   0  0  0  0  0  0  0  0  0  0  0  0
    9.8280    3.4673   23.9102 H   0  0  0  0  0  0  0  0  0  0  0  0
   10.1424    2.3524   25.8890 H   0  0  0  0  0  0  0  0  0  0  0  0
    9.4812    0.9168   25.1705 H   0  0  0  0  0  0  0  0  0  0  0  0
    7.3740    1.2246   26.2219 H   0  0  0  0  0  0  0  0  0  0  0  0
    8.1557    2.4470   27.2375 H   0  0  0  0  0  0  0  0  0  0  0  0
    7.6720    4.2881   22.3973 H   0  0  0  0  0  0  0  0  0  0  0  0
    6.1248    4.0936   23.2006 H   0  0  0  0  0  0  0  0  0  0  0  0
    6.6968    6.5056   23.0069 H   0  0  0  0  0  0  0  0  0  0  0  0
    6.6035    6.0023   24.7128 H   0  0  0  0  0  0  0  0  0  0  0  0
    8.1854    6.2578   23.9404 H   0  0  0  0  0  0  0  0  0  0  0  0
  1  2  1  0
  2  3  1  0
  3  4  1  0
  4  5  2  0
  4  6  1  0
  6  7  1  0
  7  8  1  0
  8  9  1  0
  9 10  2  0
 10 11  1  0
 11 12  1  0
 12 13  1  0
 13 14  2  0
 14 15  1  0
 15 16  2  0
 16 17  1  0
 17 18  2  0
 18 19  1  0
 16 20  1  0
 15 21  1  0
 14 22  1  0
 12 23  1  0
 12 24  1  0
 11 25  2  0
 25 26  1  0
 26 27  1  0
 27 28  2  0
 28 29  1  0
 29 30  2  0
 30 31  1  0
 31 32  2  0
 32 33  1  0
 33 34  1  0
 33 35  1  0
 33 36  1  0
 31 37  1  0
 30 38  1  0
 29 39  1  0
 28 40  1  0
  8 41  1  0
  7 42  1  0
  7 43  1  0
  6 44  1  0
  6 45  1  0
  2 46  1  0
  2 47  1  0
  1 48  1  0
  1 49  1  0
  1 50  1  0
  8  3  1  0
 26  9  1  0
 32 27  1  0
 18 13  1  0
M  END
>  <cnnaffinity>  (1) 
-6.18323

>  <filename>  (1) 
CCN1C(=O)CCC1c1nc(Cc2cccnc2)nn1-c1ccccc1C

$$$$
