
     RDKit          3D

 39 41  0  0  0  0  0  0  0  0999 V2000
    4.9834    1.8273   16.9342 H   0  0  0  0  0  0  0  0  0  0  0  0
    5.4339    1.3102   17.7795 C   0  0  0  0  0  0  0  0  0  0  0  0
    6.5813    0.6542   17.5450 N   0  0  0  0  0  0  0  0  0  0  0  0
    7.1673    0.0190   18.5725 C   0  0  0  0  0  0  0  0  0  0  0  0
    8.0898   -0.5112   18.3372 H   0  0  0  0  0  0  0  0  0  0  0  0
    6.6420    0.0114   19.8806 C   0  0  0  0  0  0  0  0  0  0  0  0
    7.1837   -0.6765   20.9503 O   0  0  0  0  0  0  0  0  0  0  0  0
    8.5428   -0.6990   21.2104 C   0  0  0  0  0  0  0  0  0  0  0  0
    9.5834    0.0565   20.6401 C   0  0  0  0  0  0  0  0  0  0  0  0
    9.5012    0.8802   19.9510 H   0  0  0  0  0  0  0  0  0  0  0  0
   10.7746   -0.3171   21.0810 N   0  0  0  0  0  0  0  0  0  0  0  0
   10.4954   -1.3011   21.9488 N   0  0  0  0  0  0  0  0  0  0  0  0
   11.2355   -1.7314   22.4722 H   0  0  0  0  0  0  0  0  0  0  0  0
    9.1639   -1.5403   22.1217 C   0  0  0  0  0  0  0  0  0  0  0  0
    8.7352   -2.4164   23.1180 N   0  0  0  0  0  0  0  0  0  0  0  0
    7.2782   -2.4860   23.3632 C   0  0  0  0  0  0  0  0  0  0  0  0
    6.7603   -2.9430   22.5042 H   0  0  0  0  0  0  0  0  0  0  0  0
    6.8842   -1.4737   23.4874 H   0  0  0  0  0  0  0  0  0  0  0  0
    6.9991   -3.3315   24.6232 C   0  0  0  0  0  0  0  0  0  0  0  0
    7.4943   -2.8374   25.4687 H   0  0  0  0  0  0  0  0  0  0  0  0
    5.9217   -3.3483   24.8385 H   0  0  0  0  0  0  0  0  0  0  0  0
    7.5423   -4.7015   24.5607 N   0  0  0  0  0  0  0  0  0  0  0  0
    6.7827   -5.6511   23.7428 C   0  0  0  0  0  0  0  0  0  0  0  0
    6.4752   -5.2594   22.7538 H   0  0  0  0  0  0  0  0  0  0  0  0
    7.4354   -6.5029   23.5207 H   0  0  0  0  0  0  0  0  0  0  0  0
    5.5641   -6.1478   24.5103 C   0  0  0  0  0  0  0  0  0  0  0  0
    5.0816   -6.9838   23.9957 H   0  0  0  0  0  0  0  0  0  0  0  0
    5.8701   -6.4779   25.5063 H   0  0  0  0  0  0  0  0  0  0  0  0
    4.8157   -5.3599   24.6385 H   0  0  0  0  0  0  0  0  0  0  0  0
    8.9782   -4.6046   24.2687 C   0  0  0  0  0  0  0  0  0  0  0  0
    9.3946   -5.6093   24.1331 H   0  0  0  0  0  0  0  0  0  0  0  0
    9.4757   -4.1511   25.1391 H   0  0  0  0  0  0  0  0  0  0  0  0
    9.3292   -3.7598   23.0403 C   0  0  0  0  0  0  0  0  0  0  0  0
   10.4185   -3.6560   22.9912 H   0  0  0  0  0  0  0  0  0  0  0  0
    8.9672   -4.2552   22.1220 H   0  0  0  0  0  0  0  0  0  0  0  0
    5.4283    0.6740   20.1090 C   0  0  0  0  0  0  0  0  0  0  0  0
    4.9883    0.6673   21.1041 H   0  0  0  0  0  0  0  0  0  0  0  0
    4.8186    1.3357   19.0371 C   0  0  0  0  0  0  0  0  0  0  0  0
    3.8898    1.8814   19.1718 H   0  0  0  0  0  0  0  0  0  0  0  0
  1  2  1  0
  2  3  2  0
  3  4  1  0
  4  5  1  0
  4  6  2  0
  6  7  1  0
  7  8  1  0
  8  9  1  0
  9 10  1  0
  9 11  2  0
 11 12  1  0
 12 13  1  0
 12 14  1  0
 14 15  1  0
 15 16  1  0
 16 17  1  0
 16 18  1  0
 16 19  1  0
 19 20  1  0
 19 21  1  0
 19 22  1  0
 22 23  1  0
 23 24  1  0
 23 25  1  0
 23 26  1  0
 26 27  1  0
 26 28  1  0
 26 29  1  0
 22 30  1  0
 30 31  1  0
 30 32  1  0
 30 33  1  0
 33 34  1  0
 33 35  1  0
  6 36  1  0
 36 37  1  0
 36 38  2  0
 38 39  1  0
 38  2  1  0
 14  8  2  0
 33 15  1  0
M  END
>  <cnnaffinity>  (1) 
-5.15183

>  <filename>  (1) 
CCN1CCN(c2[nH]ncc2Oc2cccnc2)CC1

$$$$
