
     RDKit          3D

 40 42  0  0  0  0  0  0  0  0999 V2000
    8.7905    2.0131   21.8519 C   0  0  0  0  0  0  0  0  0  0  0  0
    7.6575    1.2028   22.4560 C   0  0  0  0  0  0  0  0  0  0  0  0
    7.7170   -0.1856   22.0050 N   0  0  0  0  0  0  0  0  0  0  0  0
    8.4538   -1.1706   22.6108 C   0  0  0  0  0  0  0  0  0  0  0  0
    8.8727   -1.0981   24.3150 S   0  0  0  0  0  0  0  0  0  0  0  0
    7.2157   -1.5056   25.0034 C   0  0  0  0  0  0  0  0  0  0  0  0
    6.8141   -2.9973   24.8743 C   0  0  0  0  0  0  0  0  0  0  0  0
    6.3373   -3.2716   23.5758 O   0  0  0  0  0  0  0  0  0  0  0  0
    7.0796   -3.2492   22.9430 H   0  0  0  0  0  0  0  0  0  0  0  0
    7.9582   -3.8948   25.4098 C   0  0  0  0  0  0  0  0  0  0  0  0
    8.1417   -3.9608   26.8012 C   0  0  0  0  0  0  0  0  0  0  0  0
    9.2994   -4.5531   27.3035 C   0  0  0  0  0  0  0  0  0  0  0  0
   10.2192   -5.0672   26.3967 C   0  0  0  0  0  0  0  0  0  0  0  0
    9.9418   -5.0020   25.0366 C   0  0  0  0  0  0  0  0  0  0  0  0
    8.8199   -4.4580   24.5467 N   0  0  0  0  0  0  0  0  0  0  0  0
   10.6694   -5.3820   24.3239 H   0  0  0  0  0  0  0  0  0  0  0  0
   11.1231   -5.5246   26.7455 H   0  0  0  0  0  0  0  0  0  0  0  0
    9.5068   -4.5910   28.3652 H   0  0  0  0  0  0  0  0  0  0  0  0
    7.3851   -3.5444   27.4532 H   0  0  0  0  0  0  0  0  0  0  0  0
    5.9483   -3.1368   25.5361 H   0  0  0  0  0  0  0  0  0  0  0  0
    7.2613   -1.1925   26.0499 H   0  0  0  0  0  0  0  0  0  0  0  0
    6.4481   -0.8983   24.5079 H   0  0  0  0  0  0  0  0  0  0  0  0
    8.7041   -2.1466   21.7762 N   0  0  0  0  0  0  0  0  0  0  0  0
    8.1344   -1.8080   20.5737 N   0  0  0  0  0  0  0  0  0  0  0  0
    7.5322   -0.6519   20.7284 C   0  0  0  0  0  0  0  0  0  0  0  0
    6.7572    0.0584   19.7143 C   0  0  0  0  0  0  0  0  0  0  0  0
    5.5485    0.7180   19.9818 C   0  0  0  0  0  0  0  0  0  0  0  0
    4.9036    1.3585   18.9289 C   0  0  0  0  0  0  0  0  0  0  0  0
    5.4856    1.3239   17.6573 C   0  0  0  0  0  0  0  0  0  0  0  0
    6.6395    0.6928   17.3885 N   0  0  0  0  0  0  0  0  0  0  0  0
    7.2476    0.0705   18.4021 C   0  0  0  0  0  0  0  0  0  0  0  0
    8.1756   -0.4493   18.1694 H   0  0  0  0  0  0  0  0  0  0  0  0
    4.9915    1.8105   16.8194 H   0  0  0  0  0  0  0  0  0  0  0  0
    3.9796    1.8986   19.0889 H   0  0  0  0  0  0  0  0  0  0  0  0
    5.1247    0.7258   20.9876 H   0  0  0  0  0  0  0  0  0  0  0  0
    7.6992    1.2000   23.5501 H   0  0  0  0  0  0  0  0  0  0  0  0
    6.6916    1.6264   22.1801 H   0  0  0  0  0  0  0  0  0  0  0  0
    8.7301    3.0515   22.1904 H   0  0  0  0  0  0  0  0  0  0  0  0
    8.7221    1.9918   20.7581 H   0  0  0  0  0  0  0  0  0  0  0  0
    9.7605    1.6054   22.1533 H   0  0  0  0  0  0  0  0  0  0  0  0
  1  2  1  0
  2  3  1  0
  3  4  1  0
  4  5  1  0
  5  6  1  0
  6  7  1  0
  7  8  1  0
  8  9  1  0
  7 10  1  0
 10 11  2  0
 11 12  1  0
 12 13  2  0
 13 14  1  0
 14 15  2  0
 14 16  1  0
 13 17  1  0
 12 18  1  0
 11 19  1  0
  7 20  1  0
  6 21  1  0
  6 22  1  0
  4 23  2  0
 23 24  1  0
 24 25  2  0
 25 26  1  0
 26 27  2  0
 27 28  1  0
 28 29  2  0
 29 30  1  0
 30 31  2  0
 31 32  1  0
 29 33  1  0
 28 34  1  0
 27 35  1  0
  2 36  1  0
  2 37  1  0
  1 38  1  0
  1 39  1  0
  1 40  1  0
 25  3  1  0
 31 26  1  0
 15 10  1  0
M  END
>  <cnnaffinity>  (1) 
-5.32819

>  <filename>  (1) 
CCn1c(SCC(O)c2ccccn2)nnc1-c1cccnc1

$$$$
