
     RDKit          3D

 42 45  0  0  0  0  0  0  0  0999 V2000
   11.1661   -1.5958   22.6133 C   0  0  0  0  0  0  0  0  0  0  0  0
   10.0105   -2.4607   22.1290 C   0  0  0  0  0  0  0  0  0  0  0  0
    8.7294   -1.7761   22.0185 N   0  0  0  0  0  0  0  0  0  0  0  0
    8.4153   -1.2773   20.8059 N   0  0  0  0  0  0  0  0  0  0  0  0
    7.2804   -0.6423   21.0133 C   0  0  0  0  0  0  0  0  0  0  0  0
    6.5832    0.0497   19.9308 C   0  0  0  0  0  0  0  0  0  0  0  0
    5.3673    0.7204   20.1220 C   0  0  0  0  0  0  0  0  0  0  0  0
    4.7879    1.3513   19.0226 C   0  0  0  0  0  0  0  0  0  0  0  0
    5.4459    1.2993   17.7876 C   0  0  0  0  0  0  0  0  0  0  0  0
    6.6058    0.6549   17.5933 N   0  0  0  0  0  0  0  0  0  0  0  0
    7.1564    0.0447   18.6469 C   0  0  0  0  0  0  0  0  0  0  0  0
    8.0958   -0.4718   18.4566 H   0  0  0  0  0  0  0  0  0  0  0  0
    5.0175    1.7867   16.9144 H   0  0  0  0  0  0  0  0  0  0  0  0
    3.8484    1.8853   19.1096 H   0  0  0  0  0  0  0  0  0  0  0  0
    4.9007    0.7443   21.1100 H   0  0  0  0  0  0  0  0  0  0  0  0
    6.8503   -0.6931   22.2979 N   0  0  0  0  0  0  0  0  0  0  0  0
    7.7642   -1.4355   22.9066 C   0  0  0  0  0  0  0  0  0  0  0  0
    7.7495   -1.8221   24.3834 C   0  0  0  0  0  0  0  0  0  0  0  0
    6.8306   -2.8925   24.7909 N   0  0  0  0  0  0  0  0  0  0  0  0
    7.2785   -4.1909   24.6725 C   0  0  0  0  0  0  0  0  0  0  0  0
    6.4566   -5.2471   24.7470 C   0  0  0  0  0  0  0  0  0  0  0  0
    5.0189   -5.0870   24.9044 C   0  0  0  0  0  0  0  0  0  0  0  0
    4.2741   -6.0620   24.9392 O   0  0  0  0  0  0  0  0  0  0  0  0
    4.5290   -3.6918   25.0227 C   0  0  0  0  0  0  0  0  0  0  0  0
    3.1516   -3.4085   25.1511 C   0  0  0  0  0  0  0  0  0  0  0  0
    2.7139   -2.1198   25.3942 C   0  0  0  0  0  0  0  0  0  0  0  0
    3.6552   -1.0905   25.5754 C   0  0  0  0  0  0  0  0  0  0  0  0
    5.0106   -1.3422   25.4102 C   0  0  0  0  0  0  0  0  0  0  0  0
    5.4656   -2.6324   25.0567 C   0  0  0  0  0  0  0  0  0  0  0  0
    5.7149   -0.5362   25.5648 H   0  0  0  0  0  0  0  0  0  0  0  0
    3.3307   -0.0839   25.8207 H   0  0  0  0  0  0  0  0  0  0  0  0
    1.6545   -1.9088   25.4898 H   0  0  0  0  0  0  0  0  0  0  0  0
    2.4446   -4.2324   25.0681 H   0  0  0  0  0  0  0  0  0  0  0  0
    6.8209   -6.2532   24.6424 H   0  0  0  0  0  0  0  0  0  0  0  0
    8.3489   -4.3197   24.4740 H   0  0  0  0  0  0  0  0  0  0  0  0
    7.5174   -0.9237   24.9549 H   0  0  0  0  0  0  0  0  0  0  0  0
    8.7634   -2.1022   24.6947 H   0  0  0  0  0  0  0  0  0  0  0  0
    9.9038   -3.3525   22.7507 H   0  0  0  0  0  0  0  0  0  0  0  0
   10.2020   -2.7844   21.1081 H   0  0  0  0  0  0  0  0  0  0  0  0
   10.9994   -1.2313   23.6307 H   0  0  0  0  0  0  0  0  0  0  0  0
   12.0870   -2.1863   22.5970 H   0  0  0  0  0  0  0  0  0  0  0  0
   11.3118   -0.7321   21.9615 H   0  0  0  0  0  0  0  0  0  0  0  0
  1  2  1  0
  2  3  1  0
  3  4  1  0
  4  5  2  0
  5  6  1  0
  6  7  2  0
  7  8  1  0
  8  9  2  0
  9 10  1  0
 10 11  2  0
 11 12  1  0
  9 13  1  0
  8 14  1  0
  7 15  1  0
  5 16  1  0
 16 17  2  0
 17 18  1  0
 18 19  1  0
 19 20  1  0
 20 21  2  0
 21 22  1  0
 22 23  2  0
 22 24  1  0
 24 25  2  0
 25 26  1  0
 26 27  2  0
 27 28  1  0
 28 29  2  0
 28 30  1  0
 27 31  1  0
 26 32  1  0
 25 33  1  0
 21 34  1  0
 20 35  1  0
 18 36  1  0
 18 37  1  0
  2 38  1  0
  2 39  1  0
  1 40  1  0
  1 41  1  0
  1 42  1  0
 17  3  1  0
 29 19  1  0
 11  6  1  0
 29 24  1  0
M  END
>  <cnnaffinity>  (1) 
-5.77622

>  <filename>  (1) 
CCn1nc(-c2cccnc2)nc1Cn1ccc(=O)c2ccccc21

$$$$
