
     RDKit          3D

 40 42  0  0  0  0  0  0  0  0999 V2000
   11.3238   -1.5041   22.1632 C   0  0  0  0  0  0  0  0  0  0  0  0
   10.0684   -2.3628   22.2087 C   0  0  0  0  0  0  0  0  0  0  0  0
    8.8223   -1.6312   22.0523 N   0  0  0  0  0  0  0  0  0  0  0  0
    8.5309   -1.1592   20.8233 N   0  0  0  0  0  0  0  0  0  0  0  0
    7.3110   -0.6901   20.9720 C   0  0  0  0  0  0  0  0  0  0  0  0
    6.6082   -0.0157   19.8956 C   0  0  0  0  0  0  0  0  0  0  0  0
    5.4008    0.6512   20.1315 C   0  0  0  0  0  0  0  0  0  0  0  0
    4.8016    1.3117   19.0659 C   0  0  0  0  0  0  0  0  0  0  0  0
    5.4336    1.2854   17.8173 C   0  0  0  0  0  0  0  0  0  0  0  0
    6.5948    0.6511   17.5839 N   0  0  0  0  0  0  0  0  0  0  0  0
    7.1738    0.0227   18.6120 C   0  0  0  0  0  0  0  0  0  0  0  0
    8.1309   -0.4568   18.4010 H   0  0  0  0  0  0  0  0  0  0  0  0
    4.9829    1.7963   16.9706 H   0  0  0  0  0  0  0  0  0  0  0  0
    3.8713    1.8491   19.2046 H   0  0  0  0  0  0  0  0  0  0  0  0
    4.9797    0.6533   21.1370 H   0  0  0  0  0  0  0  0  0  0  0  0
    6.7910   -0.8545   22.2169 N   0  0  0  0  0  0  0  0  0  0  0  0
    7.7718   -1.4371   22.8756 C   0  0  0  0  0  0  0  0  0  0  0  0
    7.8147   -1.8036   24.3257 C   0  0  0  0  0  0  0  0  0  0  0  0
    8.7832   -0.9515   25.1615 C   0  0  0  0  0  0  0  0  0  0  0  0
    8.4407    0.8355   25.0676 S   0  0  0  0  0  0  0  0  0  0  0  0
    6.9262    0.8654   26.0036 C   0  0  0  0  0  0  0  0  0  0  0  0
    7.0079    0.9849   27.3972 C   0  0  0  0  0  0  0  0  0  0  0  0
    5.8549    0.9672   28.1835 C   0  0  0  0  0  0  0  0  0  0  0  0
    4.6222    0.8362   27.5499 C   0  0  0  0  0  0  0  0  0  0  0  0
    3.5083    0.8117   28.3013 F   0  0  0  0  0  0  0  0  0  0  0  0
    4.5056    0.7100   26.1672 C   0  0  0  0  0  0  0  0  0  0  0  0
    5.6732    0.7144   25.3907 C   0  0  0  0  0  0  0  0  0  0  0  0
    5.6333    0.5588   24.3146 H   0  0  0  0  0  0  0  0  0  0  0  0
    3.5162    0.5993   25.7376 H   0  0  0  0  0  0  0  0  0  0  0  0
    5.8945    1.0333   29.2647 H   0  0  0  0  0  0  0  0  0  0  0  0
    7.9910    1.0745   27.8516 H   0  0  0  0  0  0  0  0  0  0  0  0
    9.8176   -1.0625   24.8238 H   0  0  0  0  0  0  0  0  0  0  0  0
    8.7518   -1.2653   26.2107 H   0  0  0  0  0  0  0  0  0  0  0  0
    6.8031   -1.7149   24.7270 H   0  0  0  0  0  0  0  0  0  0  0  0
    8.0813   -2.8616   24.4165 H   0  0  0  0  0  0  0  0  0  0  0  0
   10.0823   -3.0323   21.3617 H   0  0  0  0  0  0  0  0  0  0  0  0
   10.0064   -2.9772   23.1074 H   0  0  0  0  0  0  0  0  0  0  0  0
   11.3128   -0.6928   22.8968 H   0  0  0  0  0  0  0  0  0  0  0  0
   11.4306   -1.0609   21.1683 H   0  0  0  0  0  0  0  0  0  0  0  0
   12.1945   -2.1398   22.3591 H   0  0  0  0  0  0  0  0  0  0  0  0
  1  2  1  0
  2  3  1  0
  3  4  1  0
  4  5  2  0
  5  6  1  0
  6  7  2  0
  7  8  1  0
  8  9  2  0
  9 10  1  0
 10 11  2  0
 11 12  1  0
  9 13  1  0
  8 14  1  0
  7 15  1  0
  5 16  1  0
 16 17  2  0
 17 18  1  0
 18 19  1  0
 19 20  1  0
 20 21  1  0
 21 22  2  0
 22 23  1  0
 23 24  2  0
 24 25  1  0
 24 26  1  0
 26 27  2  0
 27 28  1  0
 26 29  1  0
 23 30  1  0
 22 31  1  0
 19 32  1  0
 19 33  1  0
 18 34  1  0
 18 35  1  0
  2 36  1  0
  2 37  1  0
  1 38  1  0
  1 39  1  0
  1 40  1  0
 17  3  1  0
 27 21  1  0
 11  6  1  0
M  END
>  <cnnaffinity>  (1) 
-5.74313

>  <filename>  (1) 
CCn1nc(-c2cccnc2)nc1CCSc1ccc(F)cc1

$$$$
