
     RDKit          3D

 42 44  0  0  0  0  0  0  0  0999 V2000
    7.9532    1.8225   26.4979 C   0  0  0  0  0  0  0  0  0  0  0  0
    8.8817    1.0378   25.5718 C   0  0  0  0  0  0  0  0  0  0  0  0
    9.6987    1.8753   24.6963 N   0  0  0  0  0  0  0  0  0  0  0  0
   11.0049    2.0071   24.9832 N   0  0  0  0  0  0  0  0  0  0  0  0
   11.4665    2.9229   24.1494 C   0  0  0  0  0  0  0  0  0  0  0  0
   10.4587    3.4176   23.3055 C   0  0  0  0  0  0  0  0  0  0  0  0
    9.3385    2.6818   23.6705 C   0  0  0  0  0  0  0  0  0  0  0  0
    7.7810    2.5722   22.8057 S   0  0  0  0  0  0  0  0  0  0  0  0
    7.3116    3.9231   22.5615 O   0  0  0  0  0  0  0  0  0  0  0  0
    6.9735    1.5410   23.4213 O   0  0  0  0  0  0  0  0  0  0  0  0
    8.2660    2.1460   21.2927 N   0  0  0  0  0  0  0  0  0  0  0  0
    9.2161    1.0527   21.0946 C   0  0  0  0  0  0  0  0  0  0  0  0
    8.6316   -0.2647   21.5482 C   0  0  0  0  0  0  0  0  0  0  0  0
    9.2618   -1.0261   22.5422 C   0  0  0  0  0  0  0  0  0  0  0  0
    8.6749   -2.1930   23.0363 C   0  0  0  0  0  0  0  0  0  0  0  0
    7.4427   -2.6133   22.5317 C   0  0  0  0  0  0  0  0  0  0  0  0
    6.8081   -1.8767   21.5298 C   0  0  0  0  0  0  0  0  0  0  0  0
    7.4002   -0.7148   21.0094 C   0  0  0  0  0  0  0  0  0  0  0  0
    6.6781    0.0101   19.9029 C   0  0  0  0  0  0  0  0  0  0  0  0
    5.4653    0.6746   20.1402 C   0  0  0  0  0  0  0  0  0  0  0  0
    4.8279    1.3255   19.0771 C   0  0  0  0  0  0  0  0  0  0  0  0
    5.4267    1.2991   17.8107 C   0  0  0  0  0  0  0  0  0  0  0  0
    6.5804    0.6649   17.5556 N   0  0  0  0  0  0  0  0  0  0  0  0
    7.1773    0.0466   18.5885 C   0  0  0  0  0  0  0  0  0  0  0  0
    8.1098   -0.4630   18.3548 H   0  0  0  0  0  0  0  0  0  0  0  0
    4.9598    1.8076   16.9667 H   0  0  0  0  0  0  0  0  0  0  0  0
    3.8901    1.8542   19.2107 H   0  0  0  0  0  0  0  0  0  0  0  0
    5.0566    0.7133   21.1557 H   0  0  0  0  0  0  0  0  0  0  0  0
    5.8442   -2.1854   21.1312 H   0  0  0  0  0  0  0  0  0  0  0  0
    6.9782   -3.5159   22.9119 H   0  0  0  0  0  0  0  0  0  0  0  0
    9.1698   -2.7582   23.8229 H   0  0  0  0  0  0  0  0  0  0  0  0
   10.2022   -0.6782   22.9667 H   0  0  0  0  0  0  0  0  0  0  0  0
    9.4068    0.9694   20.0226 H   0  0  0  0  0  0  0  0  0  0  0  0
   10.1963    1.2380   21.5644 H   0  0  0  0  0  0  0  0  0  0  0  0
    8.4640    3.0704   20.9344 H   0  0  0  0  0  0  0  0  0  0  0  0
   10.5589    4.1780   22.5342 H   0  0  0  0  0  0  0  0  0  0  0  0
   12.5103    3.1930   24.1745 H   0  0  0  0  0  0  0  0  0  0  0  0
    9.6064    0.4645   26.1581 H   0  0  0  0  0  0  0  0  0  0  0  0
    8.3118    0.3622   24.9315 H   0  0  0  0  0  0  0  0  0  0  0  0
    7.2381    2.4232   25.9297 H   0  0  0  0  0  0  0  0  0  0  0  0
    7.3826    1.1126   27.1055 H   0  0  0  0  0  0  0  0  0  0  0  0
    8.5141    2.4755   27.1754 H   0  0  0  0  0  0  0  0  0  0  0  0
  1  2  1  0
  2  3  1  0
  3  4  1  0
  4  5  2  0
  5  6  1  0
  6  7  2  0
  7  8  1  0
  8  9  2  0
  8 10  2  0
  8 11  1  0
 11 12  1  0
 12 13  1  0
 13 14  2  0
 14 15  1  0
 15 16  2  0
 16 17  1  0
 17 18  2  0
 18 19  1  0
 19 20  2  0
 20 21  1  0
 21 22  2  0
 22 23  1  0
 23 24  2  0
 24 25  1  0
 22 26  1  0
 21 27  1  0
 20 28  1  0
 17 29  1  0
 16 30  1  0
 15 31  1  0
 14 32  1  0
 12 33  1  0
 12 34  1  0
 11 35  1  0
  6 36  1  0
  5 37  1  0
  2 38  1  0
  2 39  1  0
  1 40  1  0
  1 41  1  0
  1 42  1  0
  7  3  1  0
 18 13  1  0
 24 19  1  0
M  END
>  <cnnaffinity>  (1) 
-5.26581

>  <filename>  (1) 
CCn1nccc1S(=O)(=O)NCc1ccccc1-c1cccnc1

$$$$
