
     RDKit          3D

 36 39  0  0  0  0  0  0  0  0999 V2000
   11.2170   -1.8294   22.0965 C   0  0  0  0  0  0  0  0  0  0  0  0
    9.8486   -2.4366   22.3622 C   0  0  0  0  0  0  0  0  0  0  0  0
    8.7275   -1.5205   22.1394 N   0  0  0  0  0  0  0  0  0  0  0  0
    8.4901   -1.0715   20.8813 N   0  0  0  0  0  0  0  0  0  0  0  0
    7.2618   -0.5893   20.9636 C   0  0  0  0  0  0  0  0  0  0  0  0
    6.5755    0.0797   19.8497 C   0  0  0  0  0  0  0  0  0  0  0  0
    5.3455    0.7446   20.0169 C   0  0  0  0  0  0  0  0  0  0  0  0
    4.7779    1.3824   18.9165 C   0  0  0  0  0  0  0  0  0  0  0  0
    5.4417    1.3259   17.6863 C   0  0  0  0  0  0  0  0  0  0  0  0
    6.5995    0.6719   17.5066 N   0  0  0  0  0  0  0  0  0  0  0  0
    7.1484    0.0689   18.5665 C   0  0  0  0  0  0  0  0  0  0  0  0
    8.0845   -0.4516   18.3661 H   0  0  0  0  0  0  0  0  0  0  0  0
    5.0167    1.8113   16.8090 H   0  0  0  0  0  0  0  0  0  0  0  0
    3.8346    1.9149   18.9940 H   0  0  0  0  0  0  0  0  0  0  0  0
    4.8496    0.7476   20.9897 H   0  0  0  0  0  0  0  0  0  0  0  0
    6.6739   -0.7686   22.1738 N   0  0  0  0  0  0  0  0  0  0  0  0
    7.6181   -1.3344   22.8981 C   0  0  0  0  0  0  0  0  0  0  0  0
    7.5818   -1.7363   24.3439 C   0  0  0  0  0  0  0  0  0  0  0  0
    6.6255   -2.6077   24.8856 C   0  0  0  0  0  0  0  0  0  0  0  0
    6.6986   -3.0029   26.2388 C   0  0  0  0  0  0  0  0  0  0  0  0
    7.6024   -2.5563   27.1273 N   0  0  0  0  0  0  0  0  0  0  0  0
    8.4754   -1.6944   26.6069 C   0  0  0  0  0  0  0  0  0  0  0  0
    8.5694   -1.2671   25.2478 C   0  0  0  0  0  0  0  0  0  0  0  0
    9.6927   -0.3723   25.1920 C   0  0  0  0  0  0  0  0  0  0  0  0
   10.1980   -0.2617   26.4537 C   0  0  0  0  0  0  0  0  0  0  0  0
    9.4673   -1.0655   27.3036 N   0  0  0  0  0  0  0  0  0  0  0  0
    9.5556   -1.1673   28.2990 H   0  0  0  0  0  0  0  0  0  0  0  0
   10.9930    0.3747   26.8331 H   0  0  0  0  0  0  0  0  0  0  0  0
   10.0884    0.1270   24.3149 H   0  0  0  0  0  0  0  0  0  0  0  0
    5.9732   -3.7167   26.6218 H   0  0  0  0  0  0  0  0  0  0  0  0
    5.8141   -2.9811   24.2692 H   0  0  0  0  0  0  0  0  0  0  0  0
    9.7937   -2.8031   23.3879 H   0  0  0  0  0  0  0  0  0  0  0  0
    9.6789   -3.2949   21.7155 H   0  0  0  0  0  0  0  0  0  0  0  0
   11.3715   -0.8795   22.6139 H   0  0  0  0  0  0  0  0  0  0  0  0
   11.3638   -1.6460   21.0314 H   0  0  0  0  0  0  0  0  0  0  0  0
   11.9843   -2.5277   22.4475 H   0  0  0  0  0  0  0  0  0  0  0  0
  1  2  1  0
  2  3  1  0
  3  4  1  0
  4  5  2  0
  5  6  1  0
  6  7  2  0
  7  8  1  0
  8  9  2  0
  9 10  1  0
 10 11  2  0
 11 12  1  0
  9 13  1  0
  8 14  1  0
  7 15  1  0
  5 16  1  0
 16 17  2  0
 17 18  1  0
 18 19  2  0
 19 20  1  0
 20 21  2  0
 21 22  1  0
 22 23  2  0
 23 24  1  0
 24 25  2  0
 25 26  1  0
 26 27  1  0
 25 28  1  0
 24 29  1  0
 20 30  1  0
 19 31  1  0
  2 32  1  0
  2 33  1  0
  1 34  1  0
  1 35  1  0
  1 36  1  0
 17  3  1  0
 23 18  1  0
 11  6  1  0
 26 22  1  0
M  END
>  <cnnaffinity>  (1) 
-5.75966

>  <filename>  (1) 
CCn1nc(-c2cccnc2)nc1-c1ccnc2[nH]ccc12

$$$$
