
     RDKit          3D

 42 45  0  0  0  0  0  0  0  0999 V2000
   11.1448   -1.6143   22.7689 C   0  0  0  0  0  0  0  0  0  0  0  0
   10.0422   -2.4955   22.1922 C   0  0  0  0  0  0  0  0  0  0  0  0
    8.7728   -1.8206   21.9895 N   0  0  0  0  0  0  0  0  0  0  0  0
    8.4781   -1.3514   20.7575 N   0  0  0  0  0  0  0  0  0  0  0  0
    7.3531   -0.6993   20.9599 C   0  0  0  0  0  0  0  0  0  0  0  0
    6.6493    0.0034   19.9037 C   0  0  0  0  0  0  0  0  0  0  0  0
    5.4362    0.6523   20.1613 C   0  0  0  0  0  0  0  0  0  0  0  0
    4.8093    1.3023   19.1048 C   0  0  0  0  0  0  0  0  0  0  0  0
    5.4213    1.2773   17.8457 C   0  0  0  0  0  0  0  0  0  0  0  0
    6.5823    0.6552   17.5896 N   0  0  0  0  0  0  0  0  0  0  0  0
    7.1872    0.0378   18.6090 C   0  0  0  0  0  0  0  0  0  0  0  0
    8.1381   -0.4438   18.3800 H   0  0  0  0  0  0  0  0  0  0  0  0
    4.9607    1.7845   17.0022 H   0  0  0  0  0  0  0  0  0  0  0  0
    3.8761    1.8354   19.2434 H   0  0  0  0  0  0  0  0  0  0  0  0
    5.0121    0.6377   21.1689 H   0  0  0  0  0  0  0  0  0  0  0  0
    6.9054   -0.7240   22.2387 N   0  0  0  0  0  0  0  0  0  0  0  0
    7.8166   -1.4373   22.8639 C   0  0  0  0  0  0  0  0  0  0  0  0
    7.8021   -1.7612   24.3248 C   0  0  0  0  0  0  0  0  0  0  0  0
    6.5316   -2.4228   24.6960 C   0  0  0  0  0  0  0  0  0  0  0  0
    5.5615   -1.8060   25.3286 N   0  0  0  0  0  0  0  0  0  0  0  0
    4.5384   -2.6862   25.4125 N   0  0  0  0  0  0  0  0  0  0  0  0
    3.2754   -2.3183   25.9951 C   0  0  0  0  0  0  0  0  0  0  0  0
    3.3619   -1.3068   26.3947 H   0  0  0  0  0  0  0  0  0  0  0  0
    3.0370   -3.0255   26.7959 H   0  0  0  0  0  0  0  0  0  0  0  0
    2.4922   -2.3545   25.2298 H   0  0  0  0  0  0  0  0  0  0  0  0
    4.8454   -3.8843   24.8430 C   0  0  0  0  0  0  0  0  0  0  0  0
    4.1100   -5.0826   24.7015 C   0  0  0  0  0  0  0  0  0  0  0  0
    4.7328   -6.1347   24.0598 C   0  0  0  0  0  0  0  0  0  0  0  0
    6.0525   -6.0201   23.5593 C   0  0  0  0  0  0  0  0  0  0  0  0
    6.7804   -4.8574   23.7013 C   0  0  0  0  0  0  0  0  0  0  0  0
    6.1634   -3.7627   24.3543 C   0  0  0  0  0  0  0  0  0  0  0  0
    7.7956   -4.7977   23.3256 H   0  0  0  0  0  0  0  0  0  0  0  0
    6.4991   -6.8647   23.0510 H   0  0  0  0  0  0  0  0  0  0  0  0
    4.2045   -7.0735   23.9337 H   0  0  0  0  0  0  0  0  0  0  0  0
    3.0987   -5.1639   25.0836 H   0  0  0  0  0  0  0  0  0  0  0  0
    7.9205   -0.8278   24.8834 H   0  0  0  0  0  0  0  0  0  0  0  0
    8.6325   -2.4305   24.5743 H   0  0  0  0  0  0  0  0  0  0  0  0
    9.8908   -3.3905   22.8119 H   0  0  0  0  0  0  0  0  0  0  0  0
   10.3186   -2.8098   21.1875 H   0  0  0  0  0  0  0  0  0  0  0  0
   10.9318   -1.2711   23.7889 H   0  0  0  0  0  0  0  0  0  0  0  0
   11.3115   -0.7343   22.1413 H   0  0  0  0  0  0  0  0  0  0  0  0
   12.0575   -2.2153   22.7843 H   0  0  0  0  0  0  0  0  0  0  0  0
  1  2  1  0
  2  3  1  0
  3  4  1  0
  4  5  2  0
  5  6  1  0
  6  7  2  0
  7  8  1  0
  8  9  2  0
  9 10  1  0
 10 11  2  0
 11 12  1  0
  9 13  1  0
  8 14  1  0
  7 15  1  0
  5 16  1  0
 16 17  2  0
 17 18  1  0
 18 19  1  0
 19 20  2  0
 20 21  1  0
 21 22  1  0
 22 23  1  0
 22 24  1  0
 22 25  1  0
 21 26  1  0
 26 27  2  0
 27 28  1  0
 28 29  2  0
 29 30  1  0
 30 31  2  0
 30 32  1  0
 29 33  1  0
 28 34  1  0
 27 35  1  0
 18 36  1  0
 18 37  1  0
  2 38  1  0
  2 39  1  0
  1 40  1  0
  1 41  1  0
  1 42  1  0
 17  3  1  0
 31 19  1  0
 11  6  1  0
 31 26  1  0
M  END
>  <cnnaffinity>  (1) 
-5.9467

>  <filename>  (1) 
CCn1nc(-c2cccnc2)nc1Cc1nn(C)c2ccccc12

$$$$
