
     RDKit          3D

 38 41  0  0  0  0  0  0  0  0999 V2000
   11.3165   -1.6831   22.1179 C   0  0  0  0  0  0  0  0  0  0  0  0
    9.9745   -2.3977   22.1039 C   0  0  0  0  0  0  0  0  0  0  0  0
    8.8252   -1.5093   21.9843 N   0  0  0  0  0  0  0  0  0  0  0  0
    8.5562   -1.0016   20.7616 N   0  0  0  0  0  0  0  0  0  0  0  0
    7.3420   -0.5154   20.9085 C   0  0  0  0  0  0  0  0  0  0  0  0
    6.6024    0.1029   19.8251 C   0  0  0  0  0  0  0  0  0  0  0  0
    5.3666    0.7288   20.0404 C   0  0  0  0  0  0  0  0  0  0  0  0
    4.7625    1.3578   18.9574 C   0  0  0  0  0  0  0  0  0  0  0  0
    5.4033    1.3231   17.7108 C   0  0  0  0  0  0  0  0  0  0  0  0
    6.5601    0.6759   17.4889 N   0  0  0  0  0  0  0  0  0  0  0  0
    7.1396    0.0796   18.5316 C   0  0  0  0  0  0  0  0  0  0  0  0
    8.0707   -0.4519   18.3361 H   0  0  0  0  0  0  0  0  0  0  0  0
    4.9748    1.8397   16.8568 H   0  0  0  0  0  0  0  0  0  0  0  0
    3.8275    1.8971   19.0690 H   0  0  0  0  0  0  0  0  0  0  0  0
    4.9124    0.7133   21.0332 H   0  0  0  0  0  0  0  0  0  0  0  0
    6.8116   -0.6765   22.1428 N   0  0  0  0  0  0  0  0  0  0  0  0
    7.7696   -1.2981   22.8112 C   0  0  0  0  0  0  0  0  0  0  0  0
    7.7915   -1.7073   24.2379 C   0  0  0  0  0  0  0  0  0  0  0  0
    8.8524   -1.3089   25.0365 C   0  0  0  0  0  0  0  0  0  0  0  0
    8.9603   -1.7092   26.3883 C   0  0  0  0  0  0  0  0  0  0  0  0
    7.9971   -2.5107   26.9540 C   0  0  0  0  0  0  0  0  0  0  0  0
    6.8506   -2.8853   26.2052 C   0  0  0  0  0  0  0  0  0  0  0  0
    5.7839   -3.6316   26.7821 C   0  0  0  0  0  0  0  0  0  0  0  0
    4.7537   -4.0604   25.9888 C   0  0  0  0  0  0  0  0  0  0  0  0
    4.6774   -3.8105   24.6548 N   0  0  0  0  0  0  0  0  0  0  0  0
    5.6370   -3.0797   24.1112 C   0  0  0  0  0  0  0  0  0  0  0  0
    6.7581   -2.5321   24.8211 C   0  0  0  0  0  0  0  0  0  0  0  0
    5.5706   -2.8741   23.0422 H   0  0  0  0  0  0  0  0  0  0  0  0
    3.9390   -4.6541   26.4108 H   0  0  0  0  0  0  0  0  0  0  0  0
    5.7919   -3.8532   27.8463 H   0  0  0  0  0  0  0  0  0  0  0  0
    8.1225   -2.9301   27.9442 H   0  0  0  0  0  0  0  0  0  0  0  0
    9.8104   -1.3609   26.9641 H   0  0  0  0  0  0  0  0  0  0  0  0
    9.6253   -0.6774   24.6107 H   0  0  0  0  0  0  0  0  0  0  0  0
    9.9155   -3.0339   21.2181 H   0  0  0  0  0  0  0  0  0  0  0  0
    9.8619   -3.0115   23.0035 H   0  0  0  0  0  0  0  0  0  0  0  0
   11.3847   -0.9380   22.9159 H   0  0  0  0  0  0  0  0  0  0  0  0
   12.1056   -2.4252   22.2740 H   0  0  0  0  0  0  0  0  0  0  0  0
   11.5038   -1.1909   21.1614 H   0  0  0  0  0  0  0  0  0  0  0  0
  1  2  1  0
  2  3  1  0
  3  4  1  0
  4  5  2  0
  5  6  1  0
  6  7  2  0
  7  8  1  0
  8  9  2  0
  9 10  1  0
 10 11  2  0
 11 12  1  0
  9 13  1  0
  8 14  1  0
  7 15  1  0
  5 16  1  0
 16 17  2  0
 17 18  1  0
 18 19  2  0
 19 20  1  0
 20 21  2  0
 21 22  1  0
 22 23  2  0
 23 24  1  0
 24 25  2  0
 25 26  1  0
 26 27  2  0
 26 28  1  0
 24 29  1  0
 23 30  1  0
 21 31  1  0
 20 32  1  0
 19 33  1  0
  2 34  1  0
  2 35  1  0
  1 36  1  0
  1 37  1  0
  1 38  1  0
 17  3  1  0
 27 18  1  0
 11  6  1  0
 27 22  1  0
M  END
>  <cnnaffinity>  (1) 
-5.75678

>  <filename>  (1) 
CCn1nc(-c2cccnc2)nc1-c1cccc2ccncc12

$$$$
