
     RDKit          3D

 38 41  0  0  0  0  0  0  0  0999 V2000
   11.2964   -1.6124   22.0307 C   0  0  0  0  0  0  0  0  0  0  0  0
    9.9787   -2.3542   22.1820 C   0  0  0  0  0  0  0  0  0  0  0  0
    8.8062   -1.4829   22.0926 N   0  0  0  0  0  0  0  0  0  0  0  0
    8.5171   -0.9699   20.8713 N   0  0  0  0  0  0  0  0  0  0  0  0
    7.2928   -0.5007   21.0217 C   0  0  0  0  0  0  0  0  0  0  0  0
    6.5593    0.1197   19.9128 C   0  0  0  0  0  0  0  0  0  0  0  0
    5.3163    0.7579   20.0637 C   0  0  0  0  0  0  0  0  0  0  0  0
    4.7546    1.3726   18.9469 C   0  0  0  0  0  0  0  0  0  0  0  0
    5.4344    1.3031   17.7239 C   0  0  0  0  0  0  0  0  0  0  0  0
    6.5876    0.6398   17.5543 N   0  0  0  0  0  0  0  0  0  0  0  0
    7.1314    0.0625   18.6292 C   0  0  0  0  0  0  0  0  0  0  0  0
    8.0570   -0.4824   18.4481 H   0  0  0  0  0  0  0  0  0  0  0  0
    5.0278    1.8001   16.8472 H   0  0  0  0  0  0  0  0  0  0  0  0
    3.8136    1.9109   19.0088 H   0  0  0  0  0  0  0  0  0  0  0  0
    4.7988    0.7559   21.0279 H   0  0  0  0  0  0  0  0  0  0  0  0
    6.7756   -0.6800   22.2609 N   0  0  0  0  0  0  0  0  0  0  0  0
    7.7454   -1.2947   22.9122 C   0  0  0  0  0  0  0  0  0  0  0  0
    7.7126   -1.7361   24.3522 C   0  0  0  0  0  0  0  0  0  0  0  0
    8.8143   -1.0991   25.2372 C   0  0  0  0  0  0  0  0  0  0  0  0
    9.0030   -2.1783   26.6962 S   0  0  0  0  0  0  0  0  0  0  0  0
    8.5265   -3.5816   25.7541 C   0  0  0  0  0  0  0  0  0  0  0  0
    8.7914   -4.9139   26.0808 C   0  0  0  0  0  0  0  0  0  0  0  0
    8.2656   -5.9209   25.2682 C   0  0  0  0  0  0  0  0  0  0  0  0
    7.5113   -5.5925   24.1306 C   0  0  0  0  0  0  0  0  0  0  0  0
    7.3024   -4.2524   23.7870 C   0  0  0  0  0  0  0  0  0  0  0  0
    7.8326   -3.2391   24.5893 C   0  0  0  0  0  0  0  0  0  0  0  0
    6.7250   -3.9770   22.9085 H   0  0  0  0  0  0  0  0  0  0  0  0
    7.0841   -6.3771   23.5144 H   0  0  0  0  0  0  0  0  0  0  0  0
    8.4497   -6.9545   25.5427 H   0  0  0  0  0  0  0  0  0  0  0  0
    9.4070   -5.1439   26.9461 H   0  0  0  0  0  0  0  0  0  0  0  0
    8.5548   -0.0932   25.5715 H   0  0  0  0  0  0  0  0  0  0  0  0
    9.7803   -1.0686   24.7184 H   0  0  0  0  0  0  0  0  0  0  0  0
    6.7281   -1.4242   24.7201 H   0  0  0  0  0  0  0  0  0  0  0  0
    9.9470   -2.9110   23.1191 H   0  0  0  0  0  0  0  0  0  0  0  0
    9.8532   -3.0697   21.3749 H   0  0  0  0  0  0  0  0  0  0  0  0
   12.1244   -2.3192   22.1590 H   0  0  0  0  0  0  0  0  0  0  0  0
   11.4074   -0.8161   22.7748 H   0  0  0  0  0  0  0  0  0  0  0  0
   11.3641   -1.1635   21.0343 H   0  0  0  0  0  0  0  0  0  0  0  0
  1  2  1  0
  2  3  1  0
  3  4  1  0
  4  5  2  0
  5  6  1  0
  6  7  2  0
  7  8  1  0
  8  9  2  0
  9 10  1  0
 10 11  2  0
 11 12  1  0
  9 13  1  0
  8 14  1  0
  7 15  1  0
  5 16  1  0
 16 17  2  0
 17 18  1  0
 18 19  1  0
 19 20  1  0
 20 21  1  0
 21 22  2  0
 22 23  1  0
 23 24  2  0
 24 25  1  0
 25 26  2  0
 25 27  1  0
 24 28  1  0
 23 29  1  0
 22 30  1  0
 19 31  1  0
 19 32  1  0
 18 33  1  0
  2 34  1  0
  2 35  1  0
  1 36  1  0
  1 37  1  0
  1 38  1  0
 17  3  1  0
 26 18  1  0
 11  6  1  0
 26 21  1  0
M  END
>  <cnnaffinity>  (1) 
-5.86039

>  <filename>  (1) 
CCn1nc(-c2cccnc2)nc1C1CSc2ccccc21

$$$$
