
     RDKit          3D

 40 42  0  0  0  0  0  0  0  0999 V2000
   11.0730   -1.3145   22.4239 C   0  0  0  0  0  0  0  0  0  0  0  0
    9.9541   -2.3193   22.1749 C   0  0  0  0  0  0  0  0  0  0  0  0
    8.6395   -1.7355   21.9254 N   0  0  0  0  0  0  0  0  0  0  0  0
    8.3975   -1.1887   20.7120 N   0  0  0  0  0  0  0  0  0  0  0  0
    7.1443   -0.7828   20.8069 C   0  0  0  0  0  0  0  0  0  0  0  0
    6.4730   -0.0308   19.7435 C   0  0  0  0  0  0  0  0  0  0  0  0
    5.2748    0.6734   19.9436 C   0  0  0  0  0  0  0  0  0  0  0  0
    4.7495    1.3908   18.8713 C   0  0  0  0  0  0  0  0  0  0  0  0
    5.4254    1.3676   17.6447 C   0  0  0  0  0  0  0  0  0  0  0  0
    6.5638    0.6865   17.4411 N   0  0  0  0  0  0  0  0  0  0  0  0
    7.0779    0.0188   18.4783 C   0  0  0  0  0  0  0  0  0  0  0  0
    8.0199   -0.4961   18.2933 H   0  0  0  0  0  0  0  0  0  0  0  0
    5.0385    1.9255   16.7941 H   0  0  0  0  0  0  0  0  0  0  0  0
    3.8500    1.9877   18.9819 H   0  0  0  0  0  0  0  0  0  0  0  0
    4.7798    0.6677   20.9180 H   0  0  0  0  0  0  0  0  0  0  0  0
    6.5619   -1.0613   21.9997 N   0  0  0  0  0  0  0  0  0  0  0  0
    7.5366   -1.6184   22.6989 C   0  0  0  0  0  0  0  0  0  0  0  0
    7.5800   -1.8378   24.1909 C   0  0  0  0  0  0  0  0  0  0  0  0
    6.1618   -1.8381   24.7772 C   0  0  0  0  0  0  0  0  0  0  0  0
    5.3367   -2.7084   24.0448 O   0  0  0  0  0  0  0  0  0  0  0  0
    5.0867   -2.1848   23.2565 H   0  0  0  0  0  0  0  0  0  0  0  0
    5.7770   -0.8040   24.7806 H   0  0  0  0  0  0  0  0  0  0  0  0
    6.1971   -2.1773   25.8214 H   0  0  0  0  0  0  0  0  0  0  0  0
    8.4399   -0.7652   24.8468 C   0  0  0  0  0  0  0  0  0  0  0  0
    8.2827    0.5672   24.4280 C   0  0  0  0  0  0  0  0  0  0  0  0
    9.0848    1.5774   24.9450 C   0  0  0  0  0  0  0  0  0  0  0  0
   10.0277    1.2541   25.9215 C   0  0  0  0  0  0  0  0  0  0  0  0
   10.1428   -0.0508   26.4042 C   0  0  0  0  0  0  0  0  0  0  0  0
    9.3368   -1.0616   25.8753 C   0  0  0  0  0  0  0  0  0  0  0  0
    9.3867   -2.0717   26.2735 H   0  0  0  0  0  0  0  0  0  0  0  0
   10.8535   -0.2784   27.1892 H   0  0  0  0  0  0  0  0  0  0  0  0
   10.6596    2.0178   26.3271 H   0  0  0  0  0  0  0  0  0  0  0  0
    8.9714    2.6024   24.6041 H   0  0  0  0  0  0  0  0  0  0  0  0
    7.5368    0.7979   23.6707 H   0  0  0  0  0  0  0  0  0  0  0  0
    8.0038   -2.8335   24.3631 H   0  0  0  0  0  0  0  0  0  0  0  0
    9.8788   -3.0212   23.0106 H   0  0  0  0  0  0  0  0  0  0  0  0
   10.1751   -2.8775   21.2669 H   0  0  0  0  0  0  0  0  0  0  0  0
   11.1699   -0.6256   21.5828 H   0  0  0  0  0  0  0  0  0  0  0  0
   10.9308   -0.7326   23.3412 H   0  0  0  0  0  0  0  0  0  0  0  0
   12.0200   -1.8570   22.4993 H   0  0  0  0  0  0  0  0  0  0  0  0
  1  2  1  0
  2  3  1  0
  3  4  1  0
  4  5  2  0
  5  6  1  0
  6  7  2  0
  7  8  1  0
  8  9  2  0
  9 10  1  0
 10 11  2  0
 11 12  1  0
  9 13  1  0
  8 14  1  0
  7 15  1  0
  5 16  1  0
 16 17  2  0
 17 18  1  0
 18 19  1  0
 19 20  1  0
 20 21  1  0
 19 22  1  0
 19 23  1  0
 18 24  1  0
 24 25  2  0
 25 26  1  0
 26 27  2  0
 27 28  1  0
 28 29  2  0
 29 30  1  0
 28 31  1  0
 27 32  1  0
 26 33  1  0
 25 34  1  0
 18 35  1  0
  2 36  1  0
  2 37  1  0
  1 38  1  0
  1 39  1  0
  1 40  1  0
 17  3  1  0
 29 24  1  0
 11  6  1  0
M  END
>  <cnnaffinity>  (1) 
-5.18661

>  <filename>  (1) 
CCn1nc(-c2cccnc2)nc1C(CO)c1ccccc1

$$$$
