
     RDKit          3D

 38 41  0  0  0  0  0  0  0  0999 V2000
   11.3227   -1.6983   22.1167 C   0  0  0  0  0  0  0  0  0  0  0  0
    9.9853   -2.4232   22.1147 C   0  0  0  0  0  0  0  0  0  0  0  0
    8.8333   -1.5409   22.0031 N   0  0  0  0  0  0  0  0  0  0  0  0
    8.5594   -1.0479   20.7754 N   0  0  0  0  0  0  0  0  0  0  0  0
    7.3494   -0.5534   20.9216 C   0  0  0  0  0  0  0  0  0  0  0  0
    6.6127    0.0667   19.8394 C   0  0  0  0  0  0  0  0  0  0  0  0
    5.3843    0.6954   20.0693 C   0  0  0  0  0  0  0  0  0  0  0  0
    4.7752    1.3364   18.9974 C   0  0  0  0  0  0  0  0  0  0  0  0
    5.4063    1.3130   17.7466 C   0  0  0  0  0  0  0  0  0  0  0  0
    6.5627    0.6714   17.5129 N   0  0  0  0  0  0  0  0  0  0  0  0
    7.1488    0.0615   18.5458 C   0  0  0  0  0  0  0  0  0  0  0  0
    8.0876   -0.4545   18.3505 H   0  0  0  0  0  0  0  0  0  0  0  0
    4.9733    1.8334   16.8956 H   0  0  0  0  0  0  0  0  0  0  0  0
    3.8458    1.8808   19.1220 H   0  0  0  0  0  0  0  0  0  0  0  0
    4.9524    0.6868   21.0728 H   0  0  0  0  0  0  0  0  0  0  0  0
    6.8207   -0.7040   22.1584 N   0  0  0  0  0  0  0  0  0  0  0  0
    7.7726   -1.3294   22.8228 C   0  0  0  0  0  0  0  0  0  0  0  0
    7.7965   -1.7231   24.2484 C   0  0  0  0  0  0  0  0  0  0  0  0
    8.8445   -1.2976   25.0543 C   0  0  0  0  0  0  0  0  0  0  0  0
    8.8777   -1.6516   26.4156 C   0  0  0  0  0  0  0  0  0  0  0  0
    9.8638   -1.1557   27.1774 F   0  0  0  0  0  0  0  0  0  0  0  0
    7.9399   -2.4740   26.9796 C   0  0  0  0  0  0  0  0  0  0  0  0
    6.8267   -2.8851   26.1938 C   0  0  0  0  0  0  0  0  0  0  0  0
    5.7415   -3.6430   26.7385 C   0  0  0  0  0  0  0  0  0  0  0  0
    4.7269   -4.1028   26.0374 N   0  0  0  0  0  0  0  0  0  0  0  0
    4.7041   -3.8276   24.7043 C   0  0  0  0  0  0  0  0  0  0  0  0
    5.6617   -3.0826   24.0647 C   0  0  0  0  0  0  0  0  0  0  0  0
    6.7559   -2.5440   24.8077 C   0  0  0  0  0  0  0  0  0  0  0  0
    5.5842   -2.8850   23.0042 H   0  0  0  0  0  0  0  0  0  0  0  0
    3.8663   -4.2421   24.1435 H   0  0  0  0  0  0  0  0  0  0  0  0
    5.7420   -3.8524   27.8106 H   0  0  0  0  0  0  0  0  0  0  0  0
    8.0939   -2.8650   27.9719 H   0  0  0  0  0  0  0  0  0  0  0  0
    9.6583   -0.6970   24.6655 H   0  0  0  0  0  0  0  0  0  0  0  0
    9.9189   -3.0497   21.2226 H   0  0  0  0  0  0  0  0  0  0  0  0
    9.8682   -3.0347   23.0169 H   0  0  0  0  0  0  0  0  0  0  0  0
   11.5067   -1.2193   21.1511 H   0  0  0  0  0  0  0  0  0  0  0  0
   12.1163   -2.4344   22.2743 H   0  0  0  0  0  0  0  0  0  0  0  0
   11.3811   -0.9427   22.9063 H   0  0  0  0  0  0  0  0  0  0  0  0
  1  2  1  0
  2  3  1  0
  3  4  1  0
  4  5  2  0
  5  6  1  0
  6  7  2  0
  7  8  1  0
  8  9  2  0
  9 10  1  0
 10 11  2  0
 11 12  1  0
  9 13  1  0
  8 14  1  0
  7 15  1  0
  5 16  1  0
 16 17  2  0
 17 18  1  0
 18 19  2  0
 19 20  1  0
 20 21  1  0
 20 22  2  0
 22 23  1  0
 23 24  2  0
 24 25  1  0
 25 26  2  0
 26 27  1  0
 27 28  2  0
 27 29  1  0
 26 30  1  0
 24 31  1  0
 22 32  1  0
 19 33  1  0
  2 34  1  0
  2 35  1  0
  1 36  1  0
  1 37  1  0
  1 38  1  0
 17  3  1  0
 28 18  1  0
 11  6  1  0
 28 23  1  0
M  END
>  <cnnaffinity>  (1) 
-6.12973

>  <filename>  (1) 
CCn1nc(-c2cccnc2)nc1-c1cc(F)cc2cnccc12

$$$$
