
     RDKit          3D

 38 41  0  0  0  0  0  0  0  0999 V2000
   11.6915    3.0514   21.4373 C   0  0  0  0  0  0  0  0  0  0  0  0
   11.5402    1.7194   22.1636 C   0  0  0  0  0  0  0  0  0  0  0  0
   10.1303    1.3047   22.1450 N   0  0  0  0  0  0  0  0  0  0  0  0
    9.6757    0.3179   21.3367 N   0  0  0  0  0  0  0  0  0  0  0  0
    8.3979    0.2707   21.6117 C   0  0  0  0  0  0  0  0  0  0  0  0
    7.4288   -0.6851   20.9671 C   0  0  0  0  0  0  0  0  0  0  0  0
    6.6550   -0.0188   19.8353 C   0  0  0  0  0  0  0  0  0  0  0  0
    5.4459    0.6308   20.1058 C   0  0  0  0  0  0  0  0  0  0  0  0
    4.8086    1.2914   19.0549 C   0  0  0  0  0  0  0  0  0  0  0  0
    5.3870    1.2929   17.7825 C   0  0  0  0  0  0  0  0  0  0  0  0
    6.5359    0.6493   17.5073 N   0  0  0  0  0  0  0  0  0  0  0  0
    7.1566    0.0114   18.5184 C   0  0  0  0  0  0  0  0  0  0  0  0
    8.1060   -0.4744   18.3118 H   0  0  0  0  0  0  0  0  0  0  0  0
    4.8972    1.8496   16.9908 H   0  0  0  0  0  0  0  0  0  0  0  0
    3.8833    1.8350   19.2148 H   0  0  0  0  0  0  0  0  0  0  0  0
    5.0327    0.6472   21.1134 H   0  0  0  0  0  0  0  0  0  0  0  0
    6.7352   -1.0199   21.7426 H   0  0  0  0  0  0  0  0  0  0  0  0
    7.9732   -1.5615   20.6038 H   0  0  0  0  0  0  0  0  0  0  0  0
    7.9904    1.1947   22.5613 N   0  0  0  0  0  0  0  0  0  0  0  0
    9.0792    1.8617   22.8728 C   0  0  0  0  0  0  0  0  0  0  0  0
    9.1583    3.0050   23.8351 C   0  0  0  0  0  0  0  0  0  0  0  0
   10.2664    3.6532   24.1701 N   0  0  0  0  0  0  0  0  0  0  0  0
    9.8567    4.6029   25.0731 N   0  0  0  0  0  0  0  0  0  0  0  0
    8.5140    4.5883   25.3491 C   0  0  0  0  0  0  0  0  0  0  0  0
    7.7813    5.3477   26.1763 N   0  0  0  0  0  0  0  0  0  0  0  0
    6.4616    5.0841   26.2011 C   0  0  0  0  0  0  0  0  0  0  0  0
    5.8500    4.0816   25.4211 C   0  0  0  0  0  0  0  0  0  0  0  0
    3.9525    3.8018   25.5214 Br  0  0  0  0  0  0  0  0  0  0  0  0
    6.6453    3.3023   24.5766 C   0  0  0  0  0  0  0  0  0  0  0  0
    8.0140    3.5783   24.5606 C   0  0  0  0  0  0  0  0  0  0  0  0
    6.1951    2.5197   23.9618 H   0  0  0  0  0  0  0  0  0  0  0  0
    5.8307    5.6797   26.8550 H   0  0  0  0  0  0  0  0  0  0  0  0
   10.4734    5.2662   25.5301 H   0  0  0  0  0  0  0  0  0  0  0  0
   12.1407    0.9711   21.6375 H   0  0  0  0  0  0  0  0  0  0  0  0
   11.9049    1.7754   23.1951 H   0  0  0  0  0  0  0  0  0  0  0  0
   12.7460    3.2999   21.2897 H   0  0  0  0  0  0  0  0  0  0  0  0
   11.2142    3.8550   22.0016 H   0  0  0  0  0  0  0  0  0  0  0  0
   11.2286    2.9839   20.4504 H   0  0  0  0  0  0  0  0  0  0  0  0
  1  2  1  0
  2  3  1  0
  3  4  1  0
  4  5  2  0
  5  6  1  0
  6  7  1  0
  7  8  2  0
  8  9  1  0
  9 10  2  0
 10 11  1  0
 11 12  2  0
 12 13  1  0
 10 14  1  0
  9 15  1  0
  8 16  1  0
  6 17  1  0
  6 18  1  0
  5 19  1  0
 19 20  2  0
 20 21  1  0
 21 22  2  0
 22 23  1  0
 23 24  1  0
 24 25  2  0
 25 26  1  0
 26 27  2  0
 27 28  1  0
 27 29  1  0
 29 30  2  0
 29 31  1  0
 26 32  1  0
 23 33  1  0
  2 34  1  0
  2 35  1  0
  1 36  1  0
  1 37  1  0
  1 38  1  0
 20  3  1  0
 30 21  1  0
 12  7  1  0
 30 24  1  0
M  END
>  <cnnaffinity>  (1) 
-5.70583

>  <filename>  (1) 
CCn1nc(Cc2cccnc2)nc1-c1n[nH]c2ncc(Br)cc12

$$$$
