
     RDKit          3D

 51 54  0  0  0  0  0  0  0  0999 V2000
    5.3260    3.3848   23.8159 C   0  0  0  0  0  0  0  0  0  0  0  0
    6.5060    4.0627   23.1297 C   0  0  0  0  0  0  0  0  0  0  0  0
    7.7432    3.9694   23.9061 N   0  0  0  0  0  0  0  0  0  0  0  0
    8.1072    4.8766   24.8659 C   0  0  0  0  0  0  0  0  0  0  0  0
    9.3148    4.4967   25.4086 C   0  0  0  0  0  0  0  0  0  0  0  0
    9.6991    3.3127   24.7521 C   0  0  0  0  0  0  0  0  0  0  0  0
    8.7048    2.9863   23.8408 C   0  0  0  0  0  0  0  0  0  0  0  0
    8.6185    1.8553   22.9189 C   0  0  0  0  0  0  0  0  0  0  0  0
    7.5454    1.1829   22.5063 N   0  0  0  0  0  0  0  0  0  0  0  0
    8.0568    0.2355   21.6851 C   0  0  0  0  0  0  0  0  0  0  0  0
    7.2242   -0.7397   20.9008 C   0  0  0  0  0  0  0  0  0  0  0  0
    6.5049   -0.0979   19.7169 C   0  0  0  0  0  0  0  0  0  0  0  0
    5.3319    0.6395   19.9264 C   0  0  0  0  0  0  0  0  0  0  0  0
    4.7676    1.3374   18.8552 C   0  0  0  0  0  0  0  0  0  0  0  0
    5.3941    1.2732   17.6087 C   0  0  0  0  0  0  0  0  0  0  0  0
    6.5061    0.5576   17.3757 N   0  0  0  0  0  0  0  0  0  0  0  0
    7.0373   -0.1043   18.4129 C   0  0  0  0  0  0  0  0  0  0  0  0
    7.9512   -0.6621   18.1985 H   0  0  0  0  0  0  0  0  0  0  0  0
    4.9875    1.8261   16.7620 H   0  0  0  0  0  0  0  0  0  0  0  0
    3.8738    1.9405   18.9794 H   0  0  0  0  0  0  0  0  0  0  0  0
    4.8874    0.6865   20.9228 H   0  0  0  0  0  0  0  0  0  0  0  0
    6.5038   -1.1839   21.5971 H   0  0  0  0  0  0  0  0  0  0  0  0
    7.8986   -1.5329   20.5622 H   0  0  0  0  0  0  0  0  0  0  0  0
    9.3660    0.2464   21.5758 N   0  0  0  0  0  0  0  0  0  0  0  0
    9.7243    1.2965   22.3520 N   0  0  0  0  0  0  0  0  0  0  0  0
   11.0771    1.7165   22.4410 C   0  0  0  0  0  0  0  0  0  0  0  0
   11.3953    3.0591   22.2757 C   0  0  0  0  0  0  0  0  0  0  0  0
   12.7237    3.4572   22.3887 C   0  0  0  0  0  0  0  0  0  0  0  0
   12.9613    4.8203   22.2067 N   0  0  0  0  0  0  0  0  0  0  0  0
   14.0726    5.5212   22.5683 C   0  0  0  0  0  0  0  0  0  0  0  0
   15.0173    5.0212   23.1490 O   0  0  0  0  0  0  0  0  0  0  0  0
   14.0064    6.9868   22.2199 C   0  0  0  0  0  0  0  0  0  0  0  0
   13.5171    7.5094   23.0475 H   0  0  0  0  0  0  0  0  0  0  0  0
   15.0151    7.3769   22.1250 H   0  0  0  0  0  0  0  0  0  0  0  0
   13.4683    7.1828   21.2909 H   0  0  0  0  0  0  0  0  0  0  0  0
   12.1742    5.3388   21.8599 H   0  0  0  0  0  0  0  0  0  0  0  0
   13.7268    2.5305   22.6745 C   0  0  0  0  0  0  0  0  0  0  0  0
   13.3921    1.1879   22.8603 C   0  0  0  0  0  0  0  0  0  0  0  0
   12.0655    0.7701   22.7459 C   0  0  0  0  0  0  0  0  0  0  0  0
   11.7671   -0.2639   22.8836 H   0  0  0  0  0  0  0  0  0  0  0  0
   14.1822    0.4724   23.0786 H   0  0  0  0  0  0  0  0  0  0  0  0
   14.7500    2.8650   22.6588 H   0  0  0  0  0  0  0  0  0  0  0  0
   10.6194    3.8065   22.1708 H   0  0  0  0  0  0  0  0  0  0  0  0
   10.6266    2.7666   24.8849 H   0  0  0  0  0  0  0  0  0  0  0  0
    9.8531    5.0089   26.1966 H   0  0  0  0  0  0  0  0  0  0  0  0
    7.4536    5.7058   25.0930 H   0  0  0  0  0  0  0  0  0  0  0  0
    6.6857    3.6225   22.1447 H   0  0  0  0  0  0  0  0  0  0  0  0
    6.3135    5.1296   22.9677 H   0  0  0  0  0  0  0  0  0  0  0  0
    5.1906    3.7726   24.8326 H   0  0  0  0  0  0  0  0  0  0  0  0
    5.5024    2.3067   23.8648 H   0  0  0  0  0  0  0  0  0  0  0  0
    4.4086    3.5676   23.2448 H   0  0  0  0  0  0  0  0  0  0  0  0
  1  2  1  0
  2  3  1  0
  3  4  1  0
  4  5  2  0
  5  6  1  0
  6  7  2  0
  7  8  1  0
  8  9  2  0
  9 10  1  0
 10 11  1  0
 11 12  1  0
 12 13  2  0
 13 14  1  0
 14 15  2  0
 15 16  1  0
 16 17  2  0
 17 18  1  0
 15 19  1  0
 14 20  1  0
 13 21  1  0
 11 22  1  0
 11 23  1  0
 10 24  2  0
 24 25  1  0
 25 26  1  0
 26 27  2  0
 27 28  1  0
 28 29  1  0
 29 30  1  0
 30 31  2  0
 30 32  1  0
 32 33  1  0
 32 34  1  0
 32 35  1  0
 29 36  1  0
 28 37  2  0
 37 38  1  0
 38 39  2  0
 39 40  1  0
 38 41  1  0
 37 42  1  0
 27 43  1  0
  6 44  1  0
  5 45  1  0
  4 46  1  0
  2 47  1  0
  2 48  1  0
  1 49  1  0
  1 50  1  0
  1 51  1  0
  7  3  1  0
 25  8  1  0
 39 26  1  0
 17 12  1  0
M  END
>  <cnnaffinity>  (1) 
-6.51427

>  <filename>  (1) 
CCn1cccc1-c1nc(Cc2cccnc2)nn1-c1cccc(NC(C)=O)c1

$$$$
