
     RDKit          3D

 48 51  0  0  0  0  0  0  0  0999 V2000
   12.3636    0.1108   24.2319 C   0  0  0  0  0  0  0  0  0  0  0  0
   11.9720    1.5707   24.3747 C   0  0  0  0  0  0  0  0  0  0  0  0
   12.0977    2.3425   23.1438 N   0  0  0  0  0  0  0  0  0  0  0  0
   13.0999    3.2344   22.8668 C   0  0  0  0  0  0  0  0  0  0  0  0
   12.9442    3.6951   21.5781 C   0  0  0  0  0  0  0  0  0  0  0  0
   11.8048    3.0510   21.0510 C   0  0  0  0  0  0  0  0  0  0  0  0
   11.2604    2.2588   22.0476 C   0  0  0  0  0  0  0  0  0  0  0  0
    9.9615    1.5743   22.0753 C   0  0  0  0  0  0  0  0  0  0  0  0
    9.5537    0.6368   21.2336 N   0  0  0  0  0  0  0  0  0  0  0  0
    8.3102    0.3347   21.6873 C   0  0  0  0  0  0  0  0  0  0  0  0
    7.3982   -0.6480   21.0114 C   0  0  0  0  0  0  0  0  0  0  0  0
    6.6207   -0.0192   19.8636 C   0  0  0  0  0  0  0  0  0  0  0  0
    5.4150    0.6574   20.0953 C   0  0  0  0  0  0  0  0  0  0  0  0
    4.7990    1.3275   19.0379 C   0  0  0  0  0  0  0  0  0  0  0  0
    5.4130    1.2988   17.7831 C   0  0  0  0  0  0  0  0  0  0  0  0
    6.5578    0.6406   17.5313 N   0  0  0  0  0  0  0  0  0  0  0  0
    7.1316    0.0011   18.5553 C   0  0  0  0  0  0  0  0  0  0  0  0
    8.0520   -0.5440   18.3298 H   0  0  0  0  0  0  0  0  0  0  0  0
    4.9654    1.8126   16.9363 H   0  0  0  0  0  0  0  0  0  0  0  0
    3.8640    1.8658   19.1712 H   0  0  0  0  0  0  0  0  0  0  0  0
    4.9690    0.6425   21.0913 H   0  0  0  0  0  0  0  0  0  0  0  0
    8.0093   -1.4798   20.6465 H   0  0  0  0  0  0  0  0  0  0  0  0
    6.7133   -1.0293   21.7775 H   0  0  0  0  0  0  0  0  0  0  0  0
    7.9170    1.0178   22.7392 N   0  0  0  0  0  0  0  0  0  0  0  0
    8.9690    1.8416   22.9862 N   0  0  0  0  0  0  0  0  0  0  0  0
    8.9022    2.8569   23.9921 C   0  0  0  0  0  0  0  0  0  0  0  0
    9.5554    4.0801   23.8112 C   0  0  0  0  0  0  0  0  0  0  0  0
    9.5672    5.0199   24.8546 C   0  0  0  0  0  0  0  0  0  0  0  0
   10.3156    6.1344   24.6186 O   0  0  0  0  0  0  0  0  0  0  0  0
   10.3490    7.1564   25.5970 C   0  0  0  0  0  0  0  0  0  0  0  0
   11.0732    7.8944   25.2519 H   0  0  0  0  0  0  0  0  0  0  0  0
    9.3658    7.6328   25.7089 H   0  0  0  0  0  0  0  0  0  0  0  0
   10.6638    6.7712   26.5767 H   0  0  0  0  0  0  0  0  0  0  0  0
    8.8749    4.7658   26.0446 C   0  0  0  0  0  0  0  0  0  0  0  0
    8.2045    3.5466   26.2048 C   0  0  0  0  0  0  0  0  0  0  0  0
    8.2076    2.5956   25.1873 C   0  0  0  0  0  0  0  0  0  0  0  0
    7.6908    1.6479   25.3015 H   0  0  0  0  0  0  0  0  0  0  0  0
    7.6822    3.3391   27.1371 H   0  0  0  0  0  0  0  0  0  0  0  0
    8.8389    5.5172   26.8255 H   0  0  0  0  0  0  0  0  0  0  0  0
   10.0651    4.3217   22.8892 H   0  0  0  0  0  0  0  0  0  0  0  0
   11.4035    3.1803   20.0516 H   0  0  0  0  0  0  0  0  0  0  0  0
   13.5984    4.3701   21.0334 H   0  0  0  0  0  0  0  0  0  0  0  0
   13.8656    3.4443   23.6024 H   0  0  0  0  0  0  0  0  0  0  0  0
   10.9463    1.6703   24.7346 H   0  0  0  0  0  0  0  0  0  0  0  0
   12.6185    2.0457   25.1035 H   0  0  0  0  0  0  0  0  0  0  0  0
   13.3842    0.0128   23.8517 H   0  0  0  0  0  0  0  0  0  0  0  0
   12.3151   -0.3783   25.2106 H   0  0  0  0  0  0  0  0  0  0  0  0
   11.6889   -0.4184   23.5526 H   0  0  0  0  0  0  0  0  0  0  0  0
  1  2  1  0
  2  3  1  0
  3  4  1  0
  4  5  2  0
  5  6  1  0
  6  7  2  0
  7  8  1  0
  8  9  2  0
  9 10  1  0
 10 11  1  0
 11 12  1  0
 12 13  2  0
 13 14  1  0
 14 15  2  0
 15 16  1  0
 16 17  2  0
 17 18  1  0
 15 19  1  0
 14 20  1  0
 13 21  1  0
 11 22  1  0
 11 23  1  0
 10 24  2  0
 24 25  1  0
 25 26  1  0
 26 27  2  0
 27 28  1  0
 28 29  1  0
 29 30  1  0
 30 31  1  0
 30 32  1  0
 30 33  1  0
 28 34  2  0
 34 35  1  0
 35 36  2  0
 36 37  1  0
 35 38  1  0
 34 39  1  0
 27 40  1  0
  6 41  1  0
  5 42  1  0
  4 43  1  0
  2 44  1  0
  2 45  1  0
  1 46  1  0
  1 47  1  0
  1 48  1  0
  7  3  1  0
 25  8  1  0
 36 26  1  0
 17 12  1  0
M  END
>  <cnnaffinity>  (1) 
-6.10125

>  <filename>  (1) 
CCn1cccc1-c1nc(Cc2cccnc2)nn1-c1cccc(OC)c1

$$$$
