
     RDKit          3D

 27 28  0  0  0  0  0  0  0  0999 V2000
    4.9706    1.8240   17.0235 H   0  0  0  0  0  0  0  0  0  0  0  0
    5.4497    1.2871   17.8361 C   0  0  0  0  0  0  0  0  0  0  0  0
    6.6118    0.6776   17.5453 N   0  0  0  0  0  0  0  0  0  0  0  0
    7.2205    0.0195   18.5364 C   0  0  0  0  0  0  0  0  0  0  0  0
    8.1636   -0.4700   18.2974 H   0  0  0  0  0  0  0  0  0  0  0  0
    6.7043   -0.0882   19.8392 C   0  0  0  0  0  0  0  0  0  0  0  0
    7.4523   -0.7771   20.8425 N   0  0  0  0  0  0  0  0  0  0  0  0
    8.7221   -0.3571   21.2597 C   0  0  0  0  0  0  0  0  0  0  0  0
    9.2944    0.3653   20.7075 H   0  0  0  0  0  0  0  0  0  0  0  0
    9.0543   -1.1070   22.3277 C   0  0  0  0  0  0  0  0  0  0  0  0
   10.1217   -1.1542   23.1965 N   0  0  0  0  0  0  0  0  0  0  0  0
   10.2301   -2.1097   23.5115 H   0  0  0  0  0  0  0  0  0  0  0  0
   11.3821   -0.6097   22.7092 C   0  0  0  0  0  0  0  0  0  0  0  0
   12.1062   -0.5857   23.5283 H   0  0  0  0  0  0  0  0  0  0  0  0
   11.2222    0.4330   22.4172 H   0  0  0  0  0  0  0  0  0  0  0  0
   11.9192   -1.3959   21.5279 C   0  0  0  0  0  0  0  0  0  0  0  0
   11.1935   -1.3345   20.7140 H   0  0  0  0  0  0  0  0  0  0  0  0
   12.0698   -2.4492   21.7749 H   0  0  0  0  0  0  0  0  0  0  0  0
   12.8798   -1.0079   21.1959 H   0  0  0  0  0  0  0  0  0  0  0  0
    8.0427   -2.0103   22.5146 N   0  0  0  0  0  0  0  0  0  0  0  0
    8.0161   -2.7131   23.2288 H   0  0  0  0  0  0  0  0  0  0  0  0
    7.0461   -1.8535   21.6014 C   0  0  0  0  0  0  0  0  0  0  0  0
    5.7082   -2.8279   21.4463 S   0  0  0  0  0  0  0  0  0  0  0  0
    5.4878    0.5451   20.1352 C   0  0  0  0  0  0  0  0  0  0  0  0
    5.0770    0.5098   21.1471 H   0  0  0  0  0  0  0  0  0  0  0  0
    4.8588    1.2505   19.1049 C   0  0  0  0  0  0  0  0  0  0  0  0
    3.9299    1.7844   19.2807 H   0  0  0  0  0  0  0  0  0  0  0  0
  1  2  1  0
  2  3  2  0
  3  4  1  0
  4  5  1  0
  4  6  2  0
  6  7  1  0
  7  8  1  0
  8  9  1  0
  8 10  2  0
 10 11  1  0
 11 12  1  0
 11 13  1  0
 13 14  1  0
 13 15  1  0
 13 16  1  0
 16 17  1  0
 16 18  1  0
 16 19  1  0
 10 20  1  0
 20 21  1  0
 20 22  1  0
 22 23  2  0
  6 24  1  0
 24 25  1  0
 24 26  2  0
 26 27  1  0
 26  2  1  0
 22  7  1  0
M  END
>  <cnnaffinity>  (1) 
-4.54197

>  <filename>  (1) 
CCNc1cn(-c2cccnc2)c(=S)[nH]1

$$$$
