
     RDKit          3D

 30 31  0  0  0  0  0  0  0  0999 V2000
    4.9400    1.7888   17.0737 H   0  0  0  0  0  0  0  0  0  0  0  0
    5.3937    1.2333   17.8928 C   0  0  0  0  0  0  0  0  0  0  0  0
    6.5234    0.5688   17.5959 N   0  0  0  0  0  0  0  0  0  0  0  0
    7.1384   -0.0891   18.5833 C   0  0  0  0  0  0  0  0  0  0  0  0
    8.0835   -0.5808   18.3446 H   0  0  0  0  0  0  0  0  0  0  0  0
    6.6474   -0.1534   19.9062 C   0  0  0  0  0  0  0  0  0  0  0  0
    7.4226   -0.7911   20.9330 N   0  0  0  0  0  0  0  0  0  0  0  0
    7.1090   -1.7649   21.8786 C   0  0  0  0  0  0  0  0  0  0  0  0
    5.8926   -2.3823   21.8531 N   0  0  0  0  0  0  0  0  0  0  0  0
    5.2679   -2.1083   21.1243 H   0  0  0  0  0  0  0  0  0  0  0  0
    5.4702   -3.2574   22.8465 C   0  0  0  0  0  0  0  0  0  0  0  0
    6.1046   -3.5157   23.8418 O   0  0  0  0  0  0  0  0  0  0  0  0
    4.2498   -3.8104   22.5581 N   0  0  0  0  0  0  0  0  0  0  0  0
    3.7580   -3.3824   21.7991 H   0  0  0  0  0  0  0  0  0  0  0  0
    3.4564   -4.4834   23.5995 C   0  0  0  0  0  0  0  0  0  0  0  0
    2.4006   -4.4638   23.2998 H   0  0  0  0  0  0  0  0  0  0  0  0
    3.5493   -3.9445   24.5564 H   0  0  0  0  0  0  0  0  0  0  0  0
    3.8574   -5.9338   23.8332 C   0  0  0  0  0  0  0  0  0  0  0  0
    4.8964   -6.0107   24.1611 H   0  0  0  0  0  0  0  0  0  0  0  0
    3.2282   -6.3394   24.6307 H   0  0  0  0  0  0  0  0  0  0  0  0
    3.7209   -6.5591   22.9451 H   0  0  0  0  0  0  0  0  0  0  0  0
    8.0801   -2.0342   22.6911 N   0  0  0  0  0  0  0  0  0  0  0  0
    9.0791   -1.1875   22.2551 N   0  0  0  0  0  0  0  0  0  0  0  0
   10.0057   -1.1596   22.6417 H   0  0  0  0  0  0  0  0  0  0  0  0
    8.7592   -0.4237   21.1927 C   0  0  0  0  0  0  0  0  0  0  0  0
    9.4708    0.3703   20.6000 O   0  0  0  0  0  0  0  0  0  0  0  0
    5.4478    0.5047   20.1924 C   0  0  0  0  0  0  0  0  0  0  0  0
    5.0411    0.4854   21.2024 H   0  0  0  0  0  0  0  0  0  0  0  0
    4.8193    1.2235   19.1658 C   0  0  0  0  0  0  0  0  0  0  0  0
    3.9139    1.7906   19.3427 H   0  0  0  0  0  0  0  0  0  0  0  0
  1  2  1  0
  2  3  2  0
  3  4  1  0
  4  5  1  0
  4  6  2  0
  6  7  1  0
  7  8  1  0
  8  9  1  0
  9 10  1  0
  9 11  1  0
 11 12  2  0
 11 13  1  0
 13 14  1  0
 13 15  1  0
 15 16  1  0
 15 17  1  0
 15 18  1  0
 18 19  1  0
 18 20  1  0
 18 21  1  0
  8 22  2  0
 22 23  1  0
 23 24  1  0
 23 25  1  0
 25 26  2  0
  6 27  1  0
 27 28  1  0
 27 29  2  0
 29 30  1  0
 29  2  1  0
 25  7  1  0
M  END
>  <cnnaffinity>  (1) 
-4.59625

>  <filename>  (1) 
CCNC(=O)Nc1n[nH]c(=O)n1-c1cccnc1

$$$$
