
     RDKit          3D

 31 32  0  0  0  0  0  0  0  0999 V2000
    4.9601    1.7839   17.0222 H   0  0  0  0  0  0  0  0  0  0  0  0
    5.4233    1.2677   17.8639 C   0  0  0  0  0  0  0  0  0  0  0  0
    6.5779    0.6278   17.6190 N   0  0  0  0  0  0  0  0  0  0  0  0
    7.1884   -0.0008   18.6314 C   0  0  0  0  0  0  0  0  0  0  0  0
    8.1358   -0.4960   18.4099 H   0  0  0  0  0  0  0  0  0  0  0  0
    6.6570   -0.0439   19.9364 C   0  0  0  0  0  0  0  0  0  0  0  0
    7.3124   -0.7464   20.9925 N   0  0  0  0  0  0  0  0  0  0  0  0
    6.7009   -1.7205   21.8037 C   0  0  0  0  0  0  0  0  0  0  0  0
    5.6565   -1.9672   21.7439 H   0  0  0  0  0  0  0  0  0  0  0  0
    7.6489   -2.1514   22.6532 C   0  0  0  0  0  0  0  0  0  0  0  0
    7.6493   -3.1363   23.6217 N   0  0  0  0  0  0  0  0  0  0  0  0
    6.7741   -3.5966   23.7932 H   0  0  0  0  0  0  0  0  0  0  0  0
    8.5540   -3.1722   24.6712 C   0  0  0  0  0  0  0  0  0  0  0  0
    9.5143   -2.4295   24.7920 O   0  0  0  0  0  0  0  0  0  0  0  0
    8.2063   -4.1630   25.5414 N   0  0  0  0  0  0  0  0  0  0  0  0
    7.6455   -4.8720   25.1026 H   0  0  0  0  0  0  0  0  0  0  0  0
    9.0655   -4.5732   26.6495 C   0  0  0  0  0  0  0  0  0  0  0  0
    9.1922   -3.7144   27.3184 H   0  0  0  0  0  0  0  0  0  0  0  0
    8.5129   -5.3309   27.2164 H   0  0  0  0  0  0  0  0  0  0  0  0
   10.4348   -5.1045   26.2444 C   0  0  0  0  0  0  0  0  0  0  0  0
   10.3625   -6.0179   25.6450 H   0  0  0  0  0  0  0  0  0  0  0  0
   10.9686   -4.3445   25.6706 H   0  0  0  0  0  0  0  0  0  0  0  0
   11.0055   -5.3239   27.1508 H   0  0  0  0  0  0  0  0  0  0  0  0
    8.7967   -1.4714   22.3935 N   0  0  0  0  0  0  0  0  0  0  0  0
    9.5821   -1.5169   23.0265 H   0  0  0  0  0  0  0  0  0  0  0  0
    8.6217   -0.5572   21.3995 C   0  0  0  0  0  0  0  0  0  0  0  0
    9.7809    0.5121   20.8889 S   0  0  0  0  0  0  0  0  0  0  0  0
    5.4550    0.6218   20.1817 C   0  0  0  0  0  0  0  0  0  0  0  0
    5.0433    0.6278   21.1888 H   0  0  0  0  0  0  0  0  0  0  0  0
    4.8298    1.2892   19.1277 C   0  0  0  0  0  0  0  0  0  0  0  0
    3.9097    1.8353   19.2761 H   0  0  0  0  0  0  0  0  0  0  0  0
  1  2  1  0
  2  3  2  0
  3  4  1  0
  4  5  1  0
  4  6  2  0
  6  7  1  0
  7  8  1  0
  8  9  1  0
  8 10  2  0
 10 11  1  0
 11 12  1  0
 11 13  1  0
 13 14  2  0
 13 15  1  0
 15 16  1  0
 15 17  1  0
 17 18  1  0
 17 19  1  0
 17 20  1  0
 20 21  1  0
 20 22  1  0
 20 23  1  0
 10 24  1  0
 24 25  1  0
 24 26  1  0
 26 27  2  0
  6 28  1  0
 28 29  1  0
 28 30  2  0
 30 31  1  0
 30  2  1  0
 26  7  1  0
M  END
>  <cnnaffinity>  (1) 
-4.71582

>  <filename>  (1) 
CCNC(=O)Nc1cn(-c2cccnc2)c(=S)[nH]1

$$$$
