
     RDKit          3D

 24 24  0  0  0  0  0  0  0  0999 V2000
    4.9939    1.8498   16.8968 H   0  0  0  0  0  0  0  0  0  0  0  0
    5.3865    1.2864   17.7405 C   0  0  0  0  0  0  0  0  0  0  0  0
    6.5250    0.6074   17.5306 N   0  0  0  0  0  0  0  0  0  0  0  0
    7.0728   -0.0151   18.5854 C   0  0  0  0  0  0  0  0  0  0  0  0
    7.9934   -0.5630   18.3904 H   0  0  0  0  0  0  0  0  0  0  0  0
    6.5128    0.0089   19.8795 C   0  0  0  0  0  0  0  0  0  0  0  0
    7.3367   -0.7156   21.2821 S   0  0  0  0  0  0  0  0  0  0  0  0
    8.4509    0.8632   22.0064 S   0  0  0  0  0  0  0  0  0  0  0  0
   10.0372    0.6118   21.1330 C   0  0  0  0  0  0  0  0  0  0  0  0
   10.4915    1.6039   21.0686 H   0  0  0  0  0  0  0  0  0  0  0  0
    9.7863    0.3075   20.1135 H   0  0  0  0  0  0  0  0  0  0  0  0
   10.9699   -0.3001   21.7227 N   0  0  0  0  0  0  0  0  0  0  0  0
   10.6578   -1.2588   21.6163 H   0  0  0  0  0  0  0  0  0  0  0  0
   11.4803   -0.0475   23.0582 C   0  0  0  0  0  0  0  0  0  0  0  0
   11.4925    1.0379   23.2252 H   0  0  0  0  0  0  0  0  0  0  0  0
   12.5307   -0.3765   23.1096 H   0  0  0  0  0  0  0  0  0  0  0  0
   10.6673   -0.7445   24.1496 C   0  0  0  0  0  0  0  0  0  0  0  0
   10.6641   -1.8304   23.9868 H   0  0  0  0  0  0  0  0  0  0  0  0
   11.0887   -0.5458   25.1415 H   0  0  0  0  0  0  0  0  0  0  0  0
    9.6324   -0.3931   24.1259 H   0  0  0  0  0  0  0  0  0  0  0  0
    5.2869    0.6603   20.0669 C   0  0  0  0  0  0  0  0  0  0  0  0
    4.8053    0.6554   21.0464 H   0  0  0  0  0  0  0  0  0  0  0  0
    4.7238    1.3209   18.9743 C   0  0  0  0  0  0  0  0  0  0  0  0
    3.7977    1.8761   19.0802 H   0  0  0  0  0  0  0  0  0  0  0  0
  1  2  1  0
  2  3  2  0
  3  4  1  0
  4  5  1  0
  4  6  2  0
  6  7  1  0
  7  8  1  0
  8  9  1  0
  9 10  1  0
  9 11  1  0
  9 12  1  0
 12 13  1  0
 12 14  1  0
 14 15  1  0
 14 16  1  0
 14 17  1  0
 17 18  1  0
 17 19  1  0
 17 20  1  0
  6 21  1  0
 21 22  1  0
 21 23  2  0
 23 24  1  0
 23  2  1  0
M  END
>  <cnnaffinity>  (1) 
-3.95369

>  <filename>  (1) 
CCNCSSc1cccnc1

$$$$
