
     RDKit          3D

 42 45  0  0  0  0  0  0  0  0999 V2000
    6.6041   -6.5249   22.6748 C   0  0  0  0  0  0  0  0  0  0  0  0
    7.7981   -5.5850   22.6516 C   0  0  0  0  0  0  0  0  0  0  0  0
    7.3209   -4.2540   22.6740 O   0  0  0  0  0  0  0  0  0  0  0  0
    8.3101   -3.2415   22.5271 C   0  0  0  0  0  0  0  0  0  0  0  0
    7.6766   -1.9050   22.2527 C   0  0  0  0  0  0  0  0  0  0  0  0
    7.2913   -1.1019   23.2213 N   0  0  0  0  0  0  0  0  0  0  0  0
    6.7373   -0.0565   22.5531 N   0  0  0  0  0  0  0  0  0  0  0  0
    6.2478    1.0694   23.2862 C   0  0  0  0  0  0  0  0  0  0  0  0
    5.3059    0.8635   24.2747 C   0  0  0  0  0  0  0  0  0  0  0  0
    4.6618    1.9574   24.8993 C   0  0  0  0  0  0  0  0  0  0  0  0
    5.0413    3.2495   24.5962 C   0  0  0  0  0  0  0  0  0  0  0  0
    6.0950    3.4909   23.6696 C   0  0  0  0  0  0  0  0  0  0  0  0
    6.5715    4.8002   23.3708 C   0  0  0  0  0  0  0  0  0  0  0  0
    7.6230    4.9615   22.5030 C   0  0  0  0  0  0  0  0  0  0  0  0
    8.2799    3.9305   21.9194 N   0  0  0  0  0  0  0  0  0  0  0  0
    7.8485    2.7071   22.1650 C   0  0  0  0  0  0  0  0  0  0  0  0
    6.7304    2.3960   23.0080 C   0  0  0  0  0  0  0  0  0  0  0  0
    8.4120    1.8978   21.7053 H   0  0  0  0  0  0  0  0  0  0  0  0
    7.9965    5.9567   22.2623 H   0  0  0  0  0  0  0  0  0  0  0  0
    6.1106    5.6584   23.8442 H   0  0  0  0  0  0  0  0  0  0  0  0
    4.5732    4.1021   25.0788 H   0  0  0  0  0  0  0  0  0  0  0  0
    3.8714    1.7688   25.6243 H   0  0  0  0  0  0  0  0  0  0  0  0
    5.0762   -0.1526   24.5782 H   0  0  0  0  0  0  0  0  0  0  0  0
    6.7943   -0.3070   21.2022 C   0  0  0  0  0  0  0  0  0  0  0  0
    6.2204    0.4656   20.0859 C   0  0  0  0  0  0  0  0  0  0  0  0
    5.1510    1.3794   20.1591 C   0  0  0  0  0  0  0  0  0  0  0  0
    4.7335    1.9928   18.9762 C   0  0  0  0  0  0  0  0  0  0  0  0
    5.3894    1.6896   17.7778 C   0  0  0  0  0  0  0  0  0  0  0  0
    6.3944    0.8058   17.6909 N   0  0  0  0  0  0  0  0  0  0  0  0
    6.7814    0.2080   18.8195 C   0  0  0  0  0  0  0  0  0  0  0  0
    7.5869   -0.5185   18.7315 H   0  0  0  0  0  0  0  0  0  0  0  0
    5.1027    2.1753   16.8457 H   0  0  0  0  0  0  0  0  0  0  0  0
    3.9222    2.7129   18.9633 H   0  0  0  0  0  0  0  0  0  0  0  0
    4.6577    1.6143   21.1072 H   0  0  0  0  0  0  0  0  0  0  0  0
    7.4291   -1.4483   21.0024 N   0  0  0  0  0  0  0  0  0  0  0  0
    8.9254   -3.1527   23.4364 H   0  0  0  0  0  0  0  0  0  0  0  0
    8.9638   -3.4594   21.6715 H   0  0  0  0  0  0  0  0  0  0  0  0
    8.3989   -5.7540   21.7423 H   0  0  0  0  0  0  0  0  0  0  0  0
    8.4453   -5.7867   23.5227 H   0  0  0  0  0  0  0  0  0  0  0  0
    5.9358   -6.3370   21.8290 H   0  0  0  0  0  0  0  0  0  0  0  0
    6.9448   -7.5655   22.6177 H   0  0  0  0  0  0  0  0  0  0  0  0
    6.0294   -6.3969   23.5983 H   0  0  0  0  0  0  0  0  0  0  0  0
  1  2  1  0
  2  3  1  0
  3  4  1  0
  4  5  1  0
  5  6  2  0
  6  7  1  0
  7  8  1  0
  8  9  2  0
  9 10  1  0
 10 11  2  0
 11 12  1  0
 12 13  2  0
 13 14  1  0
 14 15  2  0
 15 16  1  0
 16 17  2  0
 16 18  1  0
 14 19  1  0
 13 20  1  0
 11 21  1  0
 10 22  1  0
  9 23  1  0
  7 24  1  0
 24 25  1  0
 25 26  2  0
 26 27  1  0
 27 28  2  0
 28 29  1  0
 29 30  2  0
 30 31  1  0
 28 32  1  0
 27 33  1  0
 26 34  1  0
 24 35  2  0
  4 36  1  0
  4 37  1  0
  2 38  1  0
  2 39  1  0
  1 40  1  0
  1 41  1  0
  1 42  1  0
 35  5  1  0
 17  8  1  0
 30 25  1  0
 17 12  1  0
M  END
>  <cnnaffinity>  (1) 
-5.59863

>  <filename>  (1) 
CCOCc1nc(-c2cccnc2)n(-c2cccc3ccncc23)n1

$$$$
