
     RDKit          3D

 45 48  0  0  0  0  0  0  0  0999 V2000
   11.1839    1.1170   24.9107 C   0  0  0  0  0  0  0  0  0  0  0  0
   11.6686    0.5406   23.5960 C   0  0  0  0  0  0  0  0  0  0  0  0
   10.8369   -0.5558   23.2981 O   0  0  0  0  0  0  0  0  0  0  0  0
   11.1656   -1.3170   22.1630 C   0  0  0  0  0  0  0  0  0  0  0  0
   10.0155   -2.2861   21.9424 C   0  0  0  0  0  0  0  0  0  0  0  0
    8.7245   -1.6506   21.7484 N   0  0  0  0  0  0  0  0  0  0  0  0
    8.4170   -1.2111   20.5125 N   0  0  0  0  0  0  0  0  0  0  0  0
    7.2378   -0.6416   20.6801 C   0  0  0  0  0  0  0  0  0  0  0  0
    6.5396    0.0499   19.5999 C   0  0  0  0  0  0  0  0  0  0  0  0
    5.3441    0.7531   19.8071 C   0  0  0  0  0  0  0  0  0  0  0  0
    4.7933    1.4393   18.7267 C   0  0  0  0  0  0  0  0  0  0  0  0
    5.4509    1.3932   17.4922 C   0  0  0  0  0  0  0  0  0  0  0  0
    6.5917    0.7198   17.2845 N   0  0  0  0  0  0  0  0  0  0  0  0
    7.1232    0.0688   18.3237 C   0  0  0  0  0  0  0  0  0  0  0  0
    8.0587   -0.4549   18.1339 H   0  0  0  0  0  0  0  0  0  0  0  0
    5.0511    1.9235   16.6310 H   0  0  0  0  0  0  0  0  0  0  0  0
    3.8859    2.0257   18.8277 H   0  0  0  0  0  0  0  0  0  0  0  0
    4.8754    0.7727   20.7938 H   0  0  0  0  0  0  0  0  0  0  0  0
    6.7723   -0.6907   21.9507 N   0  0  0  0  0  0  0  0  0  0  0  0
    7.7349   -1.3174   22.6116 C   0  0  0  0  0  0  0  0  0  0  0  0
    7.7999   -1.6679   24.0545 C   0  0  0  0  0  0  0  0  0  0  0  0
    7.9201   -2.9927   24.4623 C   0  0  0  0  0  0  0  0  0  0  0  0
    8.0259   -3.2994   25.8359 C   0  0  0  0  0  0  0  0  0  0  0  0
    8.1564   -4.5873   26.1904 F   0  0  0  0  0  0  0  0  0  0  0  0
    7.9949   -2.3383   26.8119 C   0  0  0  0  0  0  0  0  0  0  0  0
    7.8406   -0.9755   26.4275 C   0  0  0  0  0  0  0  0  0  0  0  0
    7.7267    0.0891   27.3790 C   0  0  0  0  0  0  0  0  0  0  0  0
    7.5533    1.3590   27.0700 N   0  0  0  0  0  0  0  0  0  0  0  0
    7.5184    1.6850   25.7531 C   0  0  0  0  0  0  0  0  0  0  0  0
    7.6602    0.7690   24.7414 C   0  0  0  0  0  0  0  0  0  0  0  0
    7.7679   -0.6231   25.0423 C   0  0  0  0  0  0  0  0  0  0  0  0
    7.7058    1.0930   23.7103 H   0  0  0  0  0  0  0  0  0  0  0  0
    7.3797    2.7426   25.5353 H   0  0  0  0  0  0  0  0  0  0  0  0
    7.7793   -0.1423   28.4385 H   0  0  0  0  0  0  0  0  0  0  0  0
    8.0875   -2.6270   27.8497 H   0  0  0  0  0  0  0  0  0  0  0  0
    7.9035   -3.8144   23.7523 H   0  0  0  0  0  0  0  0  0  0  0  0
   10.1807   -2.8607   21.0382 H   0  0  0  0  0  0  0  0  0  0  0  0
    9.9598   -2.9408   22.8108 H   0  0  0  0  0  0  0  0  0  0  0  0
   11.3329   -0.7047   21.2598 H   0  0  0  0  0  0  0  0  0  0  0  0
   12.0817   -1.9035   22.3451 H   0  0  0  0  0  0  0  0  0  0  0  0
   12.7315    0.2457   23.6875 H   0  0  0  0  0  0  0  0  0  0  0  0
   11.6115    1.2928   22.7878 H   0  0  0  0  0  0  0  0  0  0  0  0
   11.8106    1.9711   25.1903 H   0  0  0  0  0  0  0  0  0  0  0  0
   10.1454    1.4488   24.8188 H   0  0  0  0  0  0  0  0  0  0  0  0
   11.2287    0.3576   25.7039 H   0  0  0  0  0  0  0  0  0  0  0  0
  1  2  1  0
  2  3  1  0
  3  4  1  0
  4  5  1  0
  5  6  1  0
  6  7  1  0
  7  8  2  0
  8  9  1  0
  9 10  2  0
 10 11  1  0
 11 12  2  0
 12 13  1  0
 13 14  2  0
 14 15  1  0
 12 16  1  0
 11 17  1  0
 10 18  1  0
  8 19  1  0
 19 20  2  0
 20 21  1  0
 21 22  2  0
 22 23  1  0
 23 24  1  0
 23 25  2  0
 25 26  1  0
 26 27  2  0
 27 28  1  0
 28 29  2  0
 29 30  1  0
 30 31  2  0
 30 32  1  0
 29 33  1  0
 27 34  1  0
 25 35  1  0
 22 36  1  0
  5 37  1  0
  5 38  1  0
  4 39  1  0
  4 40  1  0
  2 41  1  0
  2 42  1  0
  1 43  1  0
  1 44  1  0
  1 45  1  0
 20  6  1  0
 31 21  1  0
 14  9  1  0
 31 26  1  0
M  END
>  <cnnaffinity>  (1) 
-6.16142

>  <filename>  (1) 
CCOCCn1nc(-c2cccnc2)nc1-c1cc(F)cc2cnccc12

$$$$
