
     RDKit          3D

 45 48  0  0  0  0  0  0  0  0999 V2000
    8.3243   -6.1433   23.2557 C   0  0  0  0  0  0  0  0  0  0  0  0
    7.9391   -4.7067   23.5809 C   0  0  0  0  0  0  0  0  0  0  0  0
    9.0806   -3.8619   23.6166 O   0  0  0  0  0  0  0  0  0  0  0  0
    9.3215   -3.0730   22.4630 C   0  0  0  0  0  0  0  0  0  0  0  0
   10.7046   -2.4328   22.6663 C   0  0  0  0  0  0  0  0  0  0  0  0
   10.6404   -1.5730   23.3458 H   0  0  0  0  0  0  0  0  0  0  0  0
   11.4105   -3.1548   23.0912 H   0  0  0  0  0  0  0  0  0  0  0  0
   11.1057   -2.0547   21.7227 H   0  0  0  0  0  0  0  0  0  0  0  0
    8.2525   -2.0453   22.1639 C   0  0  0  0  0  0  0  0  0  0  0  0
    7.5936   -1.4079   23.1032 N   0  0  0  0  0  0  0  0  0  0  0  0
    6.9364   -0.4401   22.4025 N   0  0  0  0  0  0  0  0  0  0  0  0
    6.5722    0.7553   23.1034 C   0  0  0  0  0  0  0  0  0  0  0  0
    5.7797    0.6776   24.2275 C   0  0  0  0  0  0  0  0  0  0  0  0
    5.2963    1.8632   24.8294 C   0  0  0  0  0  0  0  0  0  0  0  0
    5.6541    3.1038   24.3394 C   0  0  0  0  0  0  0  0  0  0  0  0
    6.5888    3.2079   23.2695 C   0  0  0  0  0  0  0  0  0  0  0  0
    7.0900    4.4507   22.7726 C   0  0  0  0  0  0  0  0  0  0  0  0
    8.1071    4.4426   21.8537 C   0  0  0  0  0  0  0  0  0  0  0  0
    8.6793    3.3103   21.3690 N   0  0  0  0  0  0  0  0  0  0  0  0
    8.1980    2.1598   21.7596 C   0  0  0  0  0  0  0  0  0  0  0  0
    7.1094    2.0187   22.6831 C   0  0  0  0  0  0  0  0  0  0  0  0
    8.6901    1.2854   21.3428 H   0  0  0  0  0  0  0  0  0  0  0  0
    8.5306    5.3705   21.4751 H   0  0  0  0  0  0  0  0  0  0  0  0
    6.6963    5.4000   23.1223 H   0  0  0  0  0  0  0  0  0  0  0  0
    5.2683    4.0104   24.7941 H   0  0  0  0  0  0  0  0  0  0  0  0
    4.6353    1.7832   25.6871 H   0  0  0  0  0  0  0  0  0  0  0  0
    5.5347   -0.2943   24.6428 H   0  0  0  0  0  0  0  0  0  0  0  0
    7.1481   -0.6441   21.0588 C   0  0  0  0  0  0  0  0  0  0  0  0
    6.4972    0.0801   19.9596 C   0  0  0  0  0  0  0  0  0  0  0  0
    5.3073    0.8096   20.1136 C   0  0  0  0  0  0  0  0  0  0  0  0
    4.7610    1.4219   18.9901 C   0  0  0  0  0  0  0  0  0  0  0  0
    5.4343    1.3221   17.7682 C   0  0  0  0  0  0  0  0  0  0  0  0
    6.5779    0.6404   17.6110 N   0  0  0  0  0  0  0  0  0  0  0  0
    7.0877    0.0291   18.6846 C   0  0  0  0  0  0  0  0  0  0  0  0
    8.0108   -0.5226   18.5131 H   0  0  0  0  0  0  0  0  0  0  0  0
    5.0323    1.7999   16.8767 H   0  0  0  0  0  0  0  0  0  0  0  0
    3.8286    1.9705   19.0435 H   0  0  0  0  0  0  0  0  0  0  0  0
    4.8304    0.9016   21.0921 H   0  0  0  0  0  0  0  0  0  0  0  0
    8.0093   -1.6306   20.8931 N   0  0  0  0  0  0  0  0  0  0  0  0
    9.2666   -3.6716   21.5468 H   0  0  0  0  0  0  0  0  0  0  0  0
    7.1838   -4.3285   22.8744 H   0  0  0  0  0  0  0  0  0  0  0  0
    7.4942   -4.6541   24.5813 H   0  0  0  0  0  0  0  0  0  0  0  0
    8.8968   -6.5723   24.0837 H   0  0  0  0  0  0  0  0  0  0  0  0
    7.4255   -6.7469   23.0910 H   0  0  0  0  0  0  0  0  0  0  0  0
    8.9359   -6.2051   22.3493 H   0  0  0  0  0  0  0  0  0  0  0  0
  1  2  1  0
  2  3  1  0
  3  4  1  0
  4  5  1  0
  5  6  1  0
  5  7  1  0
  5  8  1  0
  4  9  1  0
  9 10  2  0
 10 11  1  0
 11 12  1  0
 12 13  2  0
 13 14  1  0
 14 15  2  0
 15 16  1  0
 16 17  2  0
 17 18  1  0
 18 19  2  0
 19 20  1  0
 20 21  2  0
 20 22  1  0
 18 23  1  0
 17 24  1  0
 15 25  1  0
 14 26  1  0
 13 27  1  0
 11 28  1  0
 28 29  1  0
 29 30  2  0
 30 31  1  0
 31 32  2  0
 32 33  1  0
 33 34  2  0
 34 35  1  0
 32 36  1  0
 31 37  1  0
 30 38  1  0
 28 39  2  0
  4 40  1  0
  2 41  1  0
  2 42  1  0
  1 43  1  0
  1 44  1  0
  1 45  1  0
 39  9  1  0
 21 12  1  0
 34 29  1  0
 21 16  1  0
M  END
>  <cnnaffinity>  (1) 
-5.97596

>  <filename>  (1) 
CCOC(C)c1nc(-c2cccnc2)n(-c2cccc3ccncc23)n1

$$$$
