
     RDKit          3D

 45 48  0  0  0  0  0  0  0  0999 V2000
    8.1090   -6.0988   23.0847 C   0  0  0  0  0  0  0  0  0  0  0  0
    7.7927   -4.6652   23.5029 C   0  0  0  0  0  0  0  0  0  0  0  0
    8.9387   -3.8329   23.5018 O   0  0  0  0  0  0  0  0  0  0  0  0
    9.2306   -3.0714   22.3321 C   0  0  0  0  0  0  0  0  0  0  0  0
   10.6769   -2.6128   22.5642 C   0  0  0  0  0  0  0  0  0  0  0  0
   10.6875   -1.8447   23.3465 H   0  0  0  0  0  0  0  0  0  0  0  0
   11.2640   -3.4638   22.9205 H   0  0  0  0  0  0  0  0  0  0  0  0
   11.1469   -2.2083   21.6641 H   0  0  0  0  0  0  0  0  0  0  0  0
    8.2878   -1.9129   22.0411 C   0  0  0  0  0  0  0  0  0  0  0  0
    7.8741   -1.6437   20.8141 N   0  0  0  0  0  0  0  0  0  0  0  0
    7.1982   -0.4673   20.9583 N   0  0  0  0  0  0  0  0  0  0  0  0
    6.5139    0.1005   19.8465 C   0  0  0  0  0  0  0  0  0  0  0  0
    5.3147    0.8097   20.0021 C   0  0  0  0  0  0  0  0  0  0  0  0
    4.7544    1.4105   18.8703 C   0  0  0  0  0  0  0  0  0  0  0  0
    5.3980    1.2819   17.6366 C   0  0  0  0  0  0  0  0  0  0  0  0
    6.5125    0.5486   17.4696 N   0  0  0  0  0  0  0  0  0  0  0  0
    7.0425   -0.0419   18.5450 C   0  0  0  0  0  0  0  0  0  0  0  0
    7.9268   -0.6511   18.3752 H   0  0  0  0  0  0  0  0  0  0  0  0
    5.0082    1.7845   16.7521 H   0  0  0  0  0  0  0  0  0  0  0  0
    3.8504    2.0054   18.9424 H   0  0  0  0  0  0  0  0  0  0  0  0
    4.8498    0.9028   20.9838 H   0  0  0  0  0  0  0  0  0  0  0  0
    7.2942   -0.0713   22.2731 C   0  0  0  0  0  0  0  0  0  0  0  0
    6.9508    1.2533   22.8258 C   0  0  0  0  0  0  0  0  0  0  0  0
    7.4055    2.4281   22.2317 C   0  0  0  0  0  0  0  0  0  0  0  0
    7.1659    3.6859   22.8337 C   0  0  0  0  0  0  0  0  0  0  0  0
    6.4593    3.7821   24.0121 C   0  0  0  0  0  0  0  0  0  0  0  0
    5.9642    2.6002   24.6439 C   0  0  0  0  0  0  0  0  0  0  0  0
    5.2358    2.6237   25.8756 C   0  0  0  0  0  0  0  0  0  0  0  0
    4.7978    1.5598   26.5112 N   0  0  0  0  0  0  0  0  0  0  0  0
    5.0649    0.3431   25.9601 C   0  0  0  0  0  0  0  0  0  0  0  0
    5.7429    0.1800   24.7804 C   0  0  0  0  0  0  0  0  0  0  0  0
    6.2217    1.3203   24.0646 C   0  0  0  0  0  0  0  0  0  0  0  0
    5.9390   -0.8119   24.3933 H   0  0  0  0  0  0  0  0  0  0  0  0
    4.7020   -0.5119   26.5267 H   0  0  0  0  0  0  0  0  0  0  0  0
    5.0221    3.5830   26.3464 H   0  0  0  0  0  0  0  0  0  0  0  0
    6.2613    4.7482   24.4687 H   0  0  0  0  0  0  0  0  0  0  0  0
    7.5640    4.5840   22.3642 H   0  0  0  0  0  0  0  0  0  0  0  0
    7.9946    2.3906   21.3171 H   0  0  0  0  0  0  0  0  0  0  0  0
    7.9347   -0.9987   22.9672 N   0  0  0  0  0  0  0  0  0  0  0  0
    9.1168   -3.6889   21.4330 H   0  0  0  0  0  0  0  0  0  0  0  0
    6.9923   -4.2260   22.8924 H   0  0  0  0  0  0  0  0  0  0  0  0
    7.4337   -4.6552   24.5356 H   0  0  0  0  0  0  0  0  0  0  0  0
    8.6799   -6.1246   22.1535 H   0  0  0  0  0  0  0  0  0  0  0  0
    7.1910   -6.6722   22.9259 H   0  0  0  0  0  0  0  0  0  0  0  0
    8.6918   -6.6116   23.8535 H   0  0  0  0  0  0  0  0  0  0  0  0
  1  2  1  0
  2  3  1  0
  3  4  1  0
  4  5  1  0
  5  6  1  0
  5  7  1  0
  5  8  1  0
  4  9  1  0
  9 10  2  0
 10 11  1  0
 11 12  1  0
 12 13  2  0
 13 14  1  0
 14 15  2  0
 15 16  1  0
 16 17  2  0
 17 18  1  0
 15 19  1  0
 14 20  1  0
 13 21  1  0
 11 22  1  0
 22 23  1  0
 23 24  2  0
 24 25  1  0
 25 26  2  0
 26 27  1  0
 27 28  2  0
 28 29  1  0
 29 30  2  0
 30 31  1  0
 31 32  2  0
 31 33  1  0
 30 34  1  0
 28 35  1  0
 26 36  1  0
 25 37  1  0
 24 38  1  0
 22 39  2  0
  4 40  1  0
  2 41  1  0
  2 42  1  0
  1 43  1  0
  1 44  1  0
  1 45  1  0
 39  9  1  0
 17 12  1  0
 32 23  1  0
 32 27  1  0
M  END
>  <cnnaffinity>  (1) 
-6.04719

>  <filename>  (1) 
CCOC(C)c1nc(-c2cccc3cnccc23)n(-c2cccnc2)n1

$$$$
