
     RDKit          3D

 50 53  0  0  0  0  0  0  0  0999 V2000
   14.2810   -2.0248   21.4706 C   0  0  0  0  0  0  0  0  0  0  0  0
   12.8690   -1.4627   21.4504 C   0  0  0  0  0  0  0  0  0  0  0  0
   12.1305   -2.0978   22.4716 O   0  0  0  0  0  0  0  0  0  0  0  0
   10.8362   -1.5909   22.6717 C   0  0  0  0  0  0  0  0  0  0  0  0
    9.7959   -2.5085   22.0257 C   0  0  0  0  0  0  0  0  0  0  0  0
    8.5087   -1.8494   21.8616 N   0  0  0  0  0  0  0  0  0  0  0  0
    8.1790   -1.3480   20.6543 N   0  0  0  0  0  0  0  0  0  0  0  0
    7.0890   -0.6378   20.9023 C   0  0  0  0  0  0  0  0  0  0  0  0
    6.4049    0.1072   19.8415 C   0  0  0  0  0  0  0  0  0  0  0  0
    5.2035    0.8182   20.0042 C   0  0  0  0  0  0  0  0  0  0  0  0
    4.6802    1.4689   18.8833 C   0  0  0  0  0  0  0  0  0  0  0  0
    5.3682    1.3950   17.6661 C   0  0  0  0  0  0  0  0  0  0  0  0
    6.5155    0.7218   17.5025 N   0  0  0  0  0  0  0  0  0  0  0  0
    7.0140    0.1027   18.5753 C   0  0  0  0  0  0  0  0  0  0  0  0
    7.9507   -0.4286   18.4303 H   0  0  0  0  0  0  0  0  0  0  0  0
    4.9846    1.8940   16.7799 H   0  0  0  0  0  0  0  0  0  0  0  0
    3.7579    2.0367   18.9328 H   0  0  0  0  0  0  0  0  0  0  0  0
    4.6879    0.8637   20.9677 H   0  0  0  0  0  0  0  0  0  0  0  0
    6.7151   -0.6494   22.2038 N   0  0  0  0  0  0  0  0  0  0  0  0
    7.6264   -1.4131   22.7923 C   0  0  0  0  0  0  0  0  0  0  0  0
    7.7086   -1.8052   24.2619 C   0  0  0  0  0  0  0  0  0  0  0  0
    8.0152   -0.6146   25.2050 C   0  0  0  0  0  0  0  0  0  0  0  0
    6.7678    0.2509   25.4186 C   0  0  0  0  0  0  0  0  0  0  0  0
    5.6535   -0.5711   26.0812 C   0  0  0  0  0  0  0  0  0  0  0  0
    5.4325   -1.9371   25.4422 C   0  0  0  0  0  0  0  0  0  0  0  0
    4.2286   -2.6314   25.6559 C   0  0  0  0  0  0  0  0  0  0  0  0
    4.0299   -3.9162   25.1445 C   0  0  0  0  0  0  0  0  0  0  0  0
    5.0543   -4.5406   24.4217 C   0  0  0  0  0  0  0  0  0  0  0  0
    6.2473   -3.8568   24.1962 C   0  0  0  0  0  0  0  0  0  0  0  0
    6.4389   -2.5508   24.6763 C   0  0  0  0  0  0  0  0  0  0  0  0
    7.0487   -4.3403   23.6420 H   0  0  0  0  0  0  0  0  0  0  0  0
    4.9216   -5.5463   24.0323 H   0  0  0  0  0  0  0  0  0  0  0  0
    3.0871   -4.4318   25.3127 H   0  0  0  0  0  0  0  0  0  0  0  0
    3.4417   -2.1519   26.2338 H   0  0  0  0  0  0  0  0  0  0  0  0
    5.9007   -0.7303   27.1425 H   0  0  0  0  0  0  0  0  0  0  0  0
    4.7113   -0.0084   26.0801 H   0  0  0  0  0  0  0  0  0  0  0  0
    6.4173    0.6138   24.4431 H   0  0  0  0  0  0  0  0  0  0  0  0
    7.0043    1.1296   26.0299 H   0  0  0  0  0  0  0  0  0  0  0  0
    8.8516   -0.0214   24.8075 H   0  0  0  0  0  0  0  0  0  0  0  0
    8.3471   -1.0249   26.1716 H   0  0  0  0  0  0  0  0  0  0  0  0
    8.5322   -2.5273   24.3466 H   0  0  0  0  0  0  0  0  0  0  0  0
    9.6967   -3.4336   22.6025 H   0  0  0  0  0  0  0  0  0  0  0  0
   10.1244   -2.7779   21.0232 H   0  0  0  0  0  0  0  0  0  0  0  0
   10.6599   -1.5242   23.7523 H   0  0  0  0  0  0  0  0  0  0  0  0
   10.7419   -0.5765   22.2603 H   0  0  0  0  0  0  0  0  0  0  0  0
   12.8645   -0.3698   21.6272 H   0  0  0  0  0  0  0  0  0  0  0  0
   12.4093   -1.6461   20.4671 H   0  0  0  0  0  0  0  0  0  0  0  0
   14.2788   -3.0234   21.9259 H   0  0  0  0  0  0  0  0  0  0  0  0
   14.6966   -2.0801   20.4550 H   0  0  0  0  0  0  0  0  0  0  0  0
   14.9302   -1.4012   22.0860 H   0  0  0  0  0  0  0  0  0  0  0  0
  1  2  1  0
  2  3  1  0
  3  4  1  0
  4  5  1  0
  5  6  1  0
  6  7  1  0
  7  8  2  0
  8  9  1  0
  9 10  2  0
 10 11  1  0
 11 12  2  0
 12 13  1  0
 13 14  2  0
 14 15  1  0
 12 16  1  0
 11 17  1  0
 10 18  1  0
  8 19  1  0
 19 20  2  0
 20 21  1  0
 21 22  1  0
 22 23  1  0
 23 24  1  0
 24 25  1  0
 25 26  2  0
 26 27  1  0
 27 28  2  0
 28 29  1  0
 29 30  2  0
 29 31  1  0
 28 32  1  0
 27 33  1  0
 26 34  1  0
 24 35  1  0
 24 36  1  0
 23 37  1  0
 23 38  1  0
 22 39  1  0
 22 40  1  0
 21 41  1  0
  5 42  1  0
  5 43  1  0
  4 44  1  0
  4 45  1  0
  2 46  1  0
  2 47  1  0
  1 48  1  0
  1 49  1  0
  1 50  1  0
 20  6  1  0
 30 21  1  0
 14  9  1  0
 30 25  1  0
M  END
>  <cnnaffinity>  (1) 
-6.18177

>  <filename>  (1) 
CCOCCn1nc(-c2cccnc2)nc1C1CCCc2ccccc21

$$$$
