
     RDKit          3D

 45 48  0  0  0  0  0  0  0  0999 V2000
    6.6575   -4.3995   23.3609 C   0  0  0  0  0  0  0  0  0  0  0  0
    8.0768   -4.9259   23.5168 C   0  0  0  0  0  0  0  0  0  0  0  0
    9.0395   -3.8922   23.4970 O   0  0  0  0  0  0  0  0  0  0  0  0
    9.2310   -3.2020   22.2744 C   0  0  0  0  0  0  0  0  0  0  0  0
   10.6422   -2.6176   22.3634 C   0  0  0  0  0  0  0  0  0  0  0  0
   11.3417   -3.3842   22.6966 H   0  0  0  0  0  0  0  0  0  0  0  0
   10.6254   -1.8053   23.1001 H   0  0  0  0  0  0  0  0  0  0  0  0
   10.9740   -2.2138   21.4046 H   0  0  0  0  0  0  0  0  0  0  0  0
    8.2615   -2.0793   22.0144 C   0  0  0  0  0  0  0  0  0  0  0  0
    7.8491   -1.7880   20.7961 N   0  0  0  0  0  0  0  0  0  0  0  0
    7.2482   -0.5753   20.9622 N   0  0  0  0  0  0  0  0  0  0  0  0
    6.5659    0.0381   19.8858 C   0  0  0  0  0  0  0  0  0  0  0  0
    5.3610    0.7215   20.0891 C   0  0  0  0  0  0  0  0  0  0  0  0
    4.7861    1.3509   18.9837 C   0  0  0  0  0  0  0  0  0  0  0  0
    5.4242    1.2671   17.7414 C   0  0  0  0  0  0  0  0  0  0  0  0
    6.5590    0.5734   17.5381 N   0  0  0  0  0  0  0  0  0  0  0  0
    7.1089   -0.0359   18.5898 C   0  0  0  0  0  0  0  0  0  0  0  0
    8.0245   -0.6013   18.4215 H   0  0  0  0  0  0  0  0  0  0  0  0
    5.0147    1.7755   16.8728 H   0  0  0  0  0  0  0  0  0  0  0  0
    3.8682    1.9197   19.0803 H   0  0  0  0  0  0  0  0  0  0  0  0
    4.9078    0.7652   21.0827 H   0  0  0  0  0  0  0  0  0  0  0  0
    7.3558   -0.2033   22.2754 C   0  0  0  0  0  0  0  0  0  0  0  0
    7.0178    1.1147   22.8368 C   0  0  0  0  0  0  0  0  0  0  0  0
    7.4754    2.2710   22.2172 C   0  0  0  0  0  0  0  0  0  0  0  0
    7.2245    3.5467   22.7691 C   0  0  0  0  0  0  0  0  0  0  0  0
    6.5088    3.6689   23.9396 C   0  0  0  0  0  0  0  0  0  0  0  0
    6.0136    2.5126   24.6060 C   0  0  0  0  0  0  0  0  0  0  0  0
    5.2874    2.5875   25.8292 C   0  0  0  0  0  0  0  0  0  0  0  0
    4.8484    1.4363   26.4316 C   0  0  0  0  0  0  0  0  0  0  0  0
    5.0509    0.1939   25.9289 N   0  0  0  0  0  0  0  0  0  0  0  0
    5.7329    0.0974   24.8006 C   0  0  0  0  0  0  0  0  0  0  0  0
    6.2660    1.2133   24.0613 C   0  0  0  0  0  0  0  0  0  0  0  0
    5.9131   -0.9057   24.4169 H   0  0  0  0  0  0  0  0  0  0  0  0
    4.3040    1.4732   27.3743 H   0  0  0  0  0  0  0  0  0  0  0  0
    5.0952    3.5507   26.2875 H   0  0  0  0  0  0  0  0  0  0  0  0
    6.3236    4.6445   24.3819 H   0  0  0  0  0  0  0  0  0  0  0  0
    7.6158    4.4257   22.2616 H   0  0  0  0  0  0  0  0  0  0  0  0
    8.0396    2.2011   21.2918 H   0  0  0  0  0  0  0  0  0  0  0  0
    7.9652   -1.1618   22.9551 N   0  0  0  0  0  0  0  0  0  0  0  0
    9.0661   -3.8629   21.4145 H   0  0  0  0  0  0  0  0  0  0  0  0
    8.2310   -5.4121   24.4871 H   0  0  0  0  0  0  0  0  0  0  0  0
    8.3053   -5.6720   22.7333 H   0  0  0  0  0  0  0  0  0  0  0  0
    6.5017   -3.9678   22.3651 H   0  0  0  0  0  0  0  0  0  0  0  0
    5.9491   -5.2199   23.4960 H   0  0  0  0  0  0  0  0  0  0  0  0
    6.4453   -3.6264   24.1091 H   0  0  0  0  0  0  0  0  0  0  0  0
  1  2  1  0
  2  3  1  0
  3  4  1  0
  4  5  1  0
  5  6  1  0
  5  7  1  0
  5  8  1  0
  4  9  1  0
  9 10  2  0
 10 11  1  0
 11 12  1  0
 12 13  2  0
 13 14  1  0
 14 15  2  0
 15 16  1  0
 16 17  2  0
 17 18  1  0
 15 19  1  0
 14 20  1  0
 13 21  1  0
 11 22  1  0
 22 23  1  0
 23 24  2  0
 24 25  1  0
 25 26  2  0
 26 27  1  0
 27 28  2  0
 28 29  1  0
 29 30  2  0
 30 31  1  0
 31 32  2  0
 31 33  1  0
 29 34  1  0
 28 35  1  0
 26 36  1  0
 25 37  1  0
 24 38  1  0
 22 39  2  0
  4 40  1  0
  2 41  1  0
  2 42  1  0
  1 43  1  0
  1 44  1  0
  1 45  1  0
 39  9  1  0
 17 12  1  0
 32 23  1  0
 32 27  1  0
M  END
>  <cnnaffinity>  (1) 
-6.02858

>  <filename>  (1) 
CCOC(C)c1nc(-c2cccc3ccncc23)n(-c2cccnc2)n1

$$$$
