
     RDKit          3D

 42 45  0  0  0  0  0  0  0  0999 V2000
    7.1977   -6.3332   22.8053 C   0  0  0  0  0  0  0  0  0  0  0  0
    8.4243   -5.4692   22.5642 C   0  0  0  0  0  0  0  0  0  0  0  0
    7.9961   -4.1248   22.4483 O   0  0  0  0  0  0  0  0  0  0  0  0
    8.9026   -3.1754   21.9030 C   0  0  0  0  0  0  0  0  0  0  0  0
    8.2569   -1.8126   21.7786 C   0  0  0  0  0  0  0  0  0  0  0  0
    7.8681   -1.3811   20.5993 N   0  0  0  0  0  0  0  0  0  0  0  0
    7.2792   -0.1894   20.8585 N   0  0  0  0  0  0  0  0  0  0  0  0
    6.5401    0.3964   19.7924 C   0  0  0  0  0  0  0  0  0  0  0  0
    5.3259    1.0684   19.9687 C   0  0  0  0  0  0  0  0  0  0  0  0
    4.6851    1.5634   18.8265 C   0  0  0  0  0  0  0  0  0  0  0  0
    5.2774    1.3866   17.5739 C   0  0  0  0  0  0  0  0  0  0  0  0
    6.4168    0.6981   17.3938 N   0  0  0  0  0  0  0  0  0  0  0  0
    7.0116    0.1986   18.4760 C   0  0  0  0  0  0  0  0  0  0  0  0
    7.9008   -0.4026   18.3059 H   0  0  0  0  0  0  0  0  0  0  0  0
    4.8340    1.8136   16.6774 H   0  0  0  0  0  0  0  0  0  0  0  0
    3.7450    2.0995   18.9008 H   0  0  0  0  0  0  0  0  0  0  0  0
    4.8796    1.1852   20.9560 H   0  0  0  0  0  0  0  0  0  0  0  0
    7.4032    0.0753   22.2064 C   0  0  0  0  0  0  0  0  0  0  0  0
    7.0564    1.3674   22.8485 C   0  0  0  0  0  0  0  0  0  0  0  0
    7.4684    2.5729   22.2806 C   0  0  0  0  0  0  0  0  0  0  0  0
    7.1528    3.7929   22.9145 C   0  0  0  0  0  0  0  0  0  0  0  0
    7.5877    4.9329   22.3533 F   0  0  0  0  0  0  0  0  0  0  0  0
    6.4271    3.8629   24.0743 C   0  0  0  0  0  0  0  0  0  0  0  0
    5.9850    2.6475   24.6752 C   0  0  0  0  0  0  0  0  0  0  0  0
    5.2092    2.6326   25.8767 C   0  0  0  0  0  0  0  0  0  0  0  0
    4.7674    1.5500   26.4748 N   0  0  0  0  0  0  0  0  0  0  0  0
    5.0905    0.3493   25.9209 C   0  0  0  0  0  0  0  0  0  0  0  0
    5.8371    0.2176   24.7748 C   0  0  0  0  0  0  0  0  0  0  0  0
    6.3092    1.3815   24.0864 C   0  0  0  0  0  0  0  0  0  0  0  0
    6.0697   -0.7717   24.4040 H   0  0  0  0  0  0  0  0  0  0  0  0
    4.7077   -0.5184   26.4557 H   0  0  0  0  0  0  0  0  0  0  0  0
    4.9508    3.5862   26.3381 H   0  0  0  0  0  0  0  0  0  0  0  0
    6.2020    4.8297   24.5145 H   0  0  0  0  0  0  0  0  0  0  0  0
    8.0545    2.6254   21.3664 H   0  0  0  0  0  0  0  0  0  0  0  0
    8.0027   -0.9508   22.7966 N   0  0  0  0  0  0  0  0  0  0  0  0
    9.1846   -3.4481   20.8761 H   0  0  0  0  0  0  0  0  0  0  0  0
    9.8283   -3.1012   22.4975 H   0  0  0  0  0  0  0  0  0  0  0  0
    9.1423   -5.5759   23.3948 H   0  0  0  0  0  0  0  0  0  0  0  0
    8.9156   -5.8017   21.6411 H   0  0  0  0  0  0  0  0  0  0  0  0
    7.4490   -7.3934   22.6967 H   0  0  0  0  0  0  0  0  0  0  0  0
    6.8049   -6.1593   23.8119 H   0  0  0  0  0  0  0  0  0  0  0  0
    6.4132   -6.0897   22.0791 H   0  0  0  0  0  0  0  0  0  0  0  0
  1  2  1  0
  2  3  1  0
  3  4  1  0
  4  5  1  0
  5  6  2  0
  6  7  1  0
  7  8  1  0
  8  9  2  0
  9 10  1  0
 10 11  2  0
 11 12  1  0
 12 13  2  0
 13 14  1  0
 11 15  1  0
 10 16  1  0
  9 17  1  0
  7 18  1  0
 18 19  1  0
 19 20  2  0
 20 21  1  0
 21 22  1  0
 21 23  2  0
 23 24  1  0
 24 25  2  0
 25 26  1  0
 26 27  2  0
 27 28  1  0
 28 29  2  0
 28 30  1  0
 27 31  1  0
 25 32  1  0
 23 33  1  0
 20 34  1  0
 18 35  2  0
  4 36  1  0
  4 37  1  0
  2 38  1  0
  2 39  1  0
  1 40  1  0
  1 41  1  0
  1 42  1  0
 35  5  1  0
 13  8  1  0
 29 19  1  0
 29 24  1  0
M  END
>  <cnnaffinity>  (1) 
-5.4521

>  <filename>  (1) 
CCOCc1nc(-c2cc(F)cc3cnccc23)n(-c2cccnc2)n1

$$$$
