
     RDKit          3D

 42 44  0  0  0  0  0  0  0  0999 V2000
    7.0265    0.0200   25.2697 C   0  0  0  0  0  0  0  0  0  0  0  0
    6.4906   -1.4040   25.3550 C   0  0  0  0  0  0  0  0  0  0  0  0
    7.5141   -2.3507   25.0825 O   0  0  0  0  0  0  0  0  0  0  0  0
    7.5039   -2.9854   23.7954 C   0  0  0  0  0  0  0  0  0  0  0  0
    8.6016   -4.0372   23.9009 C   0  0  0  0  0  0  0  0  0  0  0  0
    8.6619   -4.6681   23.0088 H   0  0  0  0  0  0  0  0  0  0  0  0
    8.3948   -4.6565   24.7761 H   0  0  0  0  0  0  0  0  0  0  0  0
    9.5658   -3.5411   24.0581 H   0  0  0  0  0  0  0  0  0  0  0  0
    7.7137   -2.0033   22.6411 C   0  0  0  0  0  0  0  0  0  0  0  0
    8.8871   -1.4417   22.4221 N   0  0  0  0  0  0  0  0  0  0  0  0
    8.6513   -0.5865   21.3922 N   0  0  0  0  0  0  0  0  0  0  0  0
    9.5900    0.5308   21.2413 C   0  0  0  0  0  0  0  0  0  0  0  0
    9.1463    1.7304   22.0418 C   0  0  0  0  0  0  0  0  0  0  0  0
    8.2381    2.6390   21.4978 C   0  0  0  0  0  0  0  0  0  0  0  0
    7.8426    3.7475   22.2493 C   0  0  0  0  0  0  0  0  0  0  0  0
    8.2525    3.9710   23.5049 N   0  0  0  0  0  0  0  0  0  0  0  0
    9.0813    3.0687   24.0438 C   0  0  0  0  0  0  0  0  0  0  0  0
    9.5517    1.9400   23.3628 C   0  0  0  0  0  0  0  0  0  0  0  0
   10.1988    1.2291   23.8622 H   0  0  0  0  0  0  0  0  0  0  0  0
    9.3741    3.2621   25.0720 H   0  0  0  0  0  0  0  0  0  0  0  0
    7.1641    4.4888   21.8308 H   0  0  0  0  0  0  0  0  0  0  0  0
    7.8329    2.4584   20.5135 H   0  0  0  0  0  0  0  0  0  0  0  0
    9.6864    0.7812   20.1843 H   0  0  0  0  0  0  0  0  0  0  0  0
   10.5557    0.1679   21.5989 H   0  0  0  0  0  0  0  0  0  0  0  0
    7.3392   -0.6844   21.0380 C   0  0  0  0  0  0  0  0  0  0  0  0
    6.6854    0.0356   19.9282 C   0  0  0  0  0  0  0  0  0  0  0  0
    5.4503    0.6788   20.1069 C   0  0  0  0  0  0  0  0  0  0  0  0
    4.8680    1.3356   19.0232 C   0  0  0  0  0  0  0  0  0  0  0  0
    5.5279    1.3026   17.7897 C   0  0  0  0  0  0  0  0  0  0  0  0
    6.6875    0.6539   17.5922 N   0  0  0  0  0  0  0  0  0  0  0  0
    7.2440    0.0372   18.6420 C   0  0  0  0  0  0  0  0  0  0  0  0
    8.1695   -0.5055   18.4387 H   0  0  0  0  0  0  0  0  0  0  0  0
    5.0979    1.7983   16.9196 H   0  0  0  0  0  0  0  0  0  0  0  0
    3.9229    1.8636   19.1163 H   0  0  0  0  0  0  0  0  0  0  0  0
    4.9657    0.6618   21.0835 H   0  0  0  0  0  0  0  0  0  0  0  0
    6.7281   -1.5678   21.8142 N   0  0  0  0  0  0  0  0  0  0  0  0
    6.5155   -3.4519   23.6239 H   0  0  0  0  0  0  0  0  0  0  0  0
    5.6237   -1.5523   24.6865 H   0  0  0  0  0  0  0  0  0  0  0  0
    6.1505   -1.6209   26.3761 H   0  0  0  0  0  0  0  0  0  0  0  0
    7.8463    0.1540   25.9850 H   0  0  0  0  0  0  0  0  0  0  0  0
    7.4064    0.2534   24.2690 H   0  0  0  0  0  0  0  0  0  0  0  0
    6.2314    0.7381   25.5028 H   0  0  0  0  0  0  0  0  0  0  0  0
  1  2  1  0
  2  3  1  0
  3  4  1  0
  4  5  1  0
  5  6  1  0
  5  7  1  0
  5  8  1  0
  4  9  1  0
  9 10  2  0
 10 11  1  0
 11 12  1  0
 12 13  1  0
 13 14  2  0
 14 15  1  0
 15 16  2  0
 16 17  1  0
 17 18  2  0
 18 19  1  0
 17 20  1  0
 15 21  1  0
 14 22  1  0
 12 23  1  0
 12 24  1  0
 11 25  1  0
 25 26  1  0
 26 27  2  0
 27 28  1  0
 28 29  2  0
 29 30  1  0
 30 31  2  0
 31 32  1  0
 29 33  1  0
 28 34  1  0
 27 35  1  0
 25 36  2  0
  4 37  1  0
  2 38  1  0
  2 39  1  0
  1 40  1  0
  1 41  1  0
  1 42  1  0
 36  9  1  0
 18 13  1  0
 31 26  1  0
M  END
>  <cnnaffinity>  (1) 
-5.43102

>  <filename>  (1) 
CCOC(C)c1nc(-c2cccnc2)n(Cc2ccncc2)n1

$$$$
