
     RDKit          3D

 45 48  0  0  0  0  0  0  0  0999 V2000
    6.3820   -5.3250   24.3125 C   0  0  0  0  0  0  0  0  0  0  0  0
    7.6332   -4.4986   24.0743 C   0  0  0  0  0  0  0  0  0  0  0  0
    7.8937   -4.5726   22.6799 O   0  0  0  0  0  0  0  0  0  0  0  0
    8.7608   -3.6050   22.1171 C   0  0  0  0  0  0  0  0  0  0  0  0
    8.1961   -2.2216   21.9414 C   0  0  0  0  0  0  0  0  0  0  0  0
    7.8492   -1.8103   20.7411 N   0  0  0  0  0  0  0  0  0  0  0  0
    7.3453   -0.5786   20.9653 N   0  0  0  0  0  0  0  0  0  0  0  0
    6.6339    0.0678   19.9250 C   0  0  0  0  0  0  0  0  0  0  0  0
    5.3988    0.6881   20.1508 C   0  0  0  0  0  0  0  0  0  0  0  0
    4.7842    1.3153   19.0635 C   0  0  0  0  0  0  0  0  0  0  0  0
    5.4156    1.2847   17.8166 C   0  0  0  0  0  0  0  0  0  0  0  0
    6.5686    0.6303   17.5863 N   0  0  0  0  0  0  0  0  0  0  0  0
    7.1538    0.0229   18.6200 C   0  0  0  0  0  0  0  0  0  0  0  0
    8.0786   -0.5189   18.4218 H   0  0  0  0  0  0  0  0  0  0  0  0
    4.9889    1.8110   16.9665 H   0  0  0  0  0  0  0  0  0  0  0  0
    3.8457    1.8469   19.1848 H   0  0  0  0  0  0  0  0  0  0  0  0
    4.9568    0.6860   21.1475 H   0  0  0  0  0  0  0  0  0  0  0  0
    7.4662   -0.2883   22.3083 C   0  0  0  0  0  0  0  0  0  0  0  0
    7.1985    1.0237   22.8721 C   0  0  0  0  0  0  0  0  0  0  0  0
    7.4804    2.2033   22.1861 C   0  0  0  0  0  0  0  0  0  0  0  0
    7.1748    3.4639   22.7387 C   0  0  0  0  0  0  0  0  0  0  0  0
    6.5785    3.5603   23.9852 C   0  0  0  0  0  0  0  0  0  0  0  0
    6.2752    2.3744   24.7189 C   0  0  0  0  0  0  0  0  0  0  0  0
    5.6492    2.3750   26.0092 C   0  0  0  0  0  0  0  0  0  0  0  0
    5.3810    1.1762   26.6230 C   0  0  0  0  0  0  0  0  0  0  0  0
    5.7201   -0.0498   25.9665 C   0  0  0  0  0  0  0  0  0  0  0  0
    5.4415   -1.3600   26.6488 C   0  0  0  0  0  0  0  0  0  0  0  0
    6.0375   -1.4475   27.5605 H   0  0  0  0  0  0  0  0  0  0  0  0
    4.3893   -1.4414   26.9283 H   0  0  0  0  0  0  0  0  0  0  0  0
    5.6912   -2.1989   25.9993 H   0  0  0  0  0  0  0  0  0  0  0  0
    6.2900   -0.0930   24.7931 N   0  0  0  0  0  0  0  0  0  0  0  0
    6.5954    1.0800   24.1602 C   0  0  0  0  0  0  0  0  0  0  0  0
    4.9211    1.1114   27.6045 H   0  0  0  0  0  0  0  0  0  0  0  0
    5.3949    3.3253   26.4822 H   0  0  0  0  0  0  0  0  0  0  0  0
    6.3261    4.5384   24.4054 H   0  0  0  0  0  0  0  0  0  0  0  0
    7.4094    4.3582   22.1606 H   0  0  0  0  0  0  0  0  0  0  0  0
    7.9250    2.1543   21.1911 H   0  0  0  0  0  0  0  0  0  0  0  0
    8.0085   -1.3250   22.9296 N   0  0  0  0  0  0  0  0  0  0  0  0
    8.9187   -3.9380   21.0917 H   0  0  0  0  0  0  0  0  0  0  0  0
    9.7267   -3.5429   22.6500 H   0  0  0  0  0  0  0  0  0  0  0  0
    7.4940   -3.4482   24.3831 H   0  0  0  0  0  0  0  0  0  0  0  0
    8.4902   -4.9069   24.6332 H   0  0  0  0  0  0  0  0  0  0  0  0
    6.5107   -6.3181   23.8748 H   0  0  0  0  0  0  0  0  0  0  0  0
    6.1686   -5.4403   25.3803 H   0  0  0  0  0  0  0  0  0  0  0  0
    5.5206   -4.8513   23.8312 H   0  0  0  0  0  0  0  0  0  0  0  0
  1  2  1  0
  2  3  1  0
  3  4  1  0
  4  5  1  0
  5  6  2  0
  6  7  1  0
  7  8  1  0
  8  9  2  0
  9 10  1  0
 10 11  2  0
 11 12  1  0
 12 13  2  0
 13 14  1  0
 11 15  1  0
 10 16  1  0
  9 17  1  0
  7 18  1  0
 18 19  1  0
 19 20  2  0
 20 21  1  0
 21 22  2  0
 22 23  1  0
 23 24  2  0
 24 25  1  0
 25 26  2  0
 26 27  1  0
 27 28  1  0
 27 29  1  0
 27 30  1  0
 26 31  1  0
 31 32  2  0
 25 33  1  0
 24 34  1  0
 22 35  1  0
 21 36  1  0
 20 37  1  0
 18 38  2  0
  4 39  1  0
  4 40  1  0
  2 41  1  0
  2 42  1  0
  1 43  1  0
  1 44  1  0
  1 45  1  0
 38  5  1  0
 13  8  1  0
 32 19  1  0
 32 23  1  0
M  END
>  <cnnaffinity>  (1) 
-5.81509

>  <filename>  (1) 
CCOCc1nc(-c2cccc3ccc(C)nc23)n(-c2cccnc2)n1

$$$$
