
     RDKit          3D

 28 28  0  0  0  0  0  0  0  0999 V2000
    7.6346   -1.7722   20.7462 H   0  0  0  0  0  0  0  0  0  0  0  0
    7.3889   -0.7211   20.9398 C   0  0  0  0  0  0  0  0  0  0  0  0
    7.8224   -0.1740   22.0862 C   0  0  0  0  0  0  0  0  0  0  0  0
    7.6781    1.3020   22.3863 C   0  0  0  0  0  0  0  0  0  0  0  0
    7.9596    1.9041   21.5128 H   0  0  0  0  0  0  0  0  0  0  0  0
    8.2844    1.6140   23.2449 H   0  0  0  0  0  0  0  0  0  0  0  0
    6.6406    1.5855   22.5973 H   0  0  0  0  0  0  0  0  0  0  0  0
    8.5741   -1.0654   23.0641 C   0  0  0  0  0  0  0  0  0  0  0  0
    7.9678   -1.9447   23.3190 H   0  0  0  0  0  0  0  0  0  0  0  0
    8.7786   -0.5075   23.9916 H   0  0  0  0  0  0  0  0  0  0  0  0
    9.7787   -1.5859   22.5197 O   0  0  0  0  0  0  0  0  0  0  0  0
   10.8439   -0.6507   22.5648 C   0  0  0  0  0  0  0  0  0  0  0  0
   10.5438    0.3244   22.1449 H   0  0  0  0  0  0  0  0  0  0  0  0
   11.1176   -0.4669   23.6154 H   0  0  0  0  0  0  0  0  0  0  0  0
   12.0252   -1.2031   21.7992 C   0  0  0  0  0  0  0  0  0  0  0  0
   12.8684   -0.5080   21.8697 H   0  0  0  0  0  0  0  0  0  0  0  0
   12.3361   -2.1697   22.2053 H   0  0  0  0  0  0  0  0  0  0  0  0
   11.7870   -1.3343   20.7414 H   0  0  0  0  0  0  0  0  0  0  0  0
    6.6418   -0.0037   19.8875 C   0  0  0  0  0  0  0  0  0  0  0  0
    7.1477    0.0546   18.5764 C   0  0  0  0  0  0  0  0  0  0  0  0
    8.1014   -0.4206   18.3596 H   0  0  0  0  0  0  0  0  0  0  0  0
    6.5576    0.6842   17.5563 N   0  0  0  0  0  0  0  0  0  0  0  0
    5.3942    1.3032   17.8221 C   0  0  0  0  0  0  0  0  0  0  0  0
    4.9174    1.7972   16.9795 H   0  0  0  0  0  0  0  0  0  0  0  0
    4.7968    1.3152   19.0871 C   0  0  0  0  0  0  0  0  0  0  0  0
    3.8675    1.8473   19.2458 H   0  0  0  0  0  0  0  0  0  0  0  0
    5.4279    0.6540   20.1425 C   0  0  0  0  0  0  0  0  0  0  0  0
    5.0068    0.6254   21.1504 H   0  0  0  0  0  0  0  0  0  0  0  0
  1  2  1  0
  2  3  2  3
  3  4  1  0
  4  5  1  0
  4  6  1  0
  4  7  1  0
  3  8  1  0
  8  9  1  0
  8 10  1  0
  8 11  1  0
 11 12  1  0
 12 13  1  0
 12 14  1  0
 12 15  1  0
 15 16  1  0
 15 17  1  0
 15 18  1  0
  2 19  1  0
 19 20  2  0
 20 21  1  0
 20 22  1  0
 22 23  2  0
 23 24  1  0
 23 25  1  0
 25 26  1  0
 25 27  2  0
 27 28  1  0
 27 19  1  0
M  END
>  <cnnaffinity>  (1) 
-4.27204

>  <filename>  (1) 
CCOCC(C)=Cc1cccnc1

$$$$
