
     RDKit          3D

 28 29  0  0  0  0  0  0  0  0999 V2000
    4.9375    1.7998   16.9783 H   0  0  0  0  0  0  0  0  0  0  0  0
    5.3994    1.2888   17.8226 C   0  0  0  0  0  0  0  0  0  0  0  0
    6.5629    0.6658   17.5735 N   0  0  0  0  0  0  0  0  0  0  0  0
    7.1538    0.0274   18.5891 C   0  0  0  0  0  0  0  0  0  0  0  0
    8.1162   -0.4350   18.3606 H   0  0  0  0  0  0  0  0  0  0  0  0
    6.6273   -0.0207   19.8905 C   0  0  0  0  0  0  0  0  0  0  0  0
    7.3581   -0.6709   20.9834 C   0  0  0  0  0  0  0  0  0  0  0  0
    7.7779   -0.0434   22.1419 C   0  0  0  0  0  0  0  0  0  0  0  0
    7.6104    1.7086   22.4115 S   0  0  0  0  0  0  0  0  0  0  0  0
    9.0831    2.2345   21.4636 C   0  0  0  0  0  0  0  0  0  0  0  0
    8.8786    3.2642   21.1534 H   0  0  0  0  0  0  0  0  0  0  0  0
    9.1127    1.6088   20.5635 H   0  0  0  0  0  0  0  0  0  0  0  0
   10.3653    2.1130   22.2832 C   0  0  0  0  0  0  0  0  0  0  0  0
   11.2365    2.4996   21.7384 H   0  0  0  0  0  0  0  0  0  0  0  0
   10.5550    1.0611   22.5320 H   0  0  0  0  0  0  0  0  0  0  0  0
   10.2673    2.6638   23.2261 H   0  0  0  0  0  0  0  0  0  0  0  0
    8.4647   -0.8303   23.1190 C   0  0  0  0  0  0  0  0  0  0  0  0
    8.8022   -0.3054   24.0133 H   0  0  0  0  0  0  0  0  0  0  0  0
    8.7081   -2.1629   22.9399 C   0  0  0  0  0  0  0  0  0  0  0  0
    9.2198   -2.7832   23.6637 H   0  0  0  0  0  0  0  0  0  0  0  0
    8.2761   -2.8320   21.7201 C   0  0  0  0  0  0  0  0  0  0  0  0
    8.3863   -4.0111   21.4275 O   0  0  0  0  0  0  0  0  0  0  0  0
    7.6678   -1.9918   20.8010 N   0  0  0  0  0  0  0  0  0  0  0  0
    7.3572   -2.5229   20.0052 H   0  0  0  0  0  0  0  0  0  0  0  0
    5.4123    0.6336   20.1354 C   0  0  0  0  0  0  0  0  0  0  0  0
    4.9905    0.6363   21.1410 H   0  0  0  0  0  0  0  0  0  0  0  0
    4.7923    1.2993   19.0814 C   0  0  0  0  0  0  0  0  0  0  0  0
    3.8706    1.8455   19.2310 H   0  0  0  0  0  0  0  0  0  0  0  0
  1  2  1  0
  2  3  2  0
  3  4  1  0
  4  5  1  0
  4  6  2  0
  6  7  1  0
  7  8  2  0
  8  9  1  0
  9 10  1  0
 10 11  1  0
 10 12  1  0
 10 13  1  0
 13 14  1  0
 13 15  1  0
 13 16  1  0
  8 17  1  0
 17 18  1  0
 17 19  2  0
 19 20  1  0
 19 21  1  0
 21 22  2  0
 21 23  1  0
 23 24  1  0
  6 25  1  0
 25 26  1  0
 25 27  2  0
 27 28  1  0
 27  2  1  0
 23  7  1  0
M  END
>  <cnnaffinity>  (1) 
-5.06162

>  <filename>  (1) 
CCSc1ccc(=O)[nH]c1-c1cccnc1

$$$$
