
     RDKit          3D

 36 38  0  0  0  0  0  0  0  0999 V2000
    4.9281    1.8148   16.9556 H   0  0  0  0  0  0  0  0  0  0  0  0
    5.3807    1.3096   17.8088 C   0  0  0  0  0  0  0  0  0  0  0  0
    6.5480    0.6899   17.5698 N   0  0  0  0  0  0  0  0  0  0  0  0
    7.1566    0.0950   18.6038 C   0  0  0  0  0  0  0  0  0  0  0  0
    8.1079   -0.3778   18.3624 H   0  0  0  0  0  0  0  0  0  0  0  0
    6.6441    0.0651   19.9124 C   0  0  0  0  0  0  0  0  0  0  0  0
    7.3600   -0.6544   21.0306 C   0  0  2  0  0  0  0  0  0  0  0  0
    6.8449   -0.4850   21.9884 H   0  0  0  0  0  0  0  0  0  0  0  0
    9.0129    0.0730   21.2409 Cl  0  0  0  0  0  0  0  0  0  0  0  0
    7.5062   -2.1761   20.7726 C   0  0  0  0  0  0  0  0  0  0  0  0
    8.4889   -2.3139   20.3061 H   0  0  0  0  0  0  0  0  0  0  0  0
    6.7540   -2.4840   20.0363 H   0  0  0  0  0  0  0  0  0  0  0  0
    7.4285   -3.0750   21.9007 N   0  0  0  0  0  0  0  0  0  0  0  0
    8.5535   -2.9040   22.8144 C   0  0  0  0  0  0  0  0  0  0  0  0
    9.4767   -2.9857   22.2203 H   0  0  0  0  0  0  0  0  0  0  0  0
    8.5638   -1.8852   23.2576 H   0  0  0  0  0  0  0  0  0  0  0  0
    8.5649   -3.9313   23.9280 C   0  0  0  0  0  0  0  0  0  0  0  0
    9.7441   -4.1568   24.6567 C   0  0  0  0  0  0  0  0  0  0  0  0
   10.6547   -3.6255   24.3795 H   0  0  0  0  0  0  0  0  0  0  0  0
    9.7600   -5.0485   25.7316 C   0  0  0  0  0  0  0  0  0  0  0  0
   10.6824   -5.2098   26.2892 H   0  0  0  0  0  0  0  0  0  0  0  0
    8.5865   -5.7256   26.0852 C   0  0  0  0  0  0  0  0  0  0  0  0
    8.5893   -6.4182   26.9263 H   0  0  0  0  0  0  0  0  0  0  0  0
    7.4095   -5.5039   25.3586 C   0  0  0  0  0  0  0  0  0  0  0  0
    6.4909   -6.0194   25.6352 H   0  0  0  0  0  0  0  0  0  0  0  0
    7.3817   -4.6137   24.2747 C   0  0  0  0  0  0  0  0  0  0  0  0
    6.1048   -4.4017   23.4622 C   0  0  0  0  0  0  0  0  0  0  0  0
    5.2355   -4.3638   24.1317 H   0  0  0  0  0  0  0  0  0  0  0  0
    5.9563   -5.2692   22.8035 H   0  0  0  0  0  0  0  0  0  0  0  0
    6.1497   -3.1308   22.6026 C   0  0  0  0  0  0  0  0  0  0  0  0
    5.3364   -3.1466   21.8635 H   0  0  0  0  0  0  0  0  0  0  0  0
    5.9831   -2.2401   23.2416 H   0  0  0  0  0  0  0  0  0  0  0  0
    5.4117    0.6912   20.1330 C   0  0  0  0  0  0  0  0  0  0  0  0
    4.9806    0.6706   21.1342 H   0  0  0  0  0  0  0  0  0  0  0  0
    4.7684    1.3313   19.0656 C   0  0  0  0  0  0  0  0  0  0  0  0
    3.8310    1.8603   19.1992 H   0  0  0  0  0  0  0  0  0  0  0  0
  1  2  1  0
  2  3  2  0
  3  4  1  0
  4  5  1  0
  4  6  2  0
  6  7  1  0
  7  8  1  1
  7  9  1  0
  7 10  1  0
 10 11  1  0
 10 12  1  0
 10 13  1  0
 13 14  1  0
 14 15  1  0
 14 16  1  0
 14 17  1  0
 17 18  2  0
 18 19  1  0
 18 20  1  0
 20 21  1  0
 20 22  2  0
 22 23  1  0
 22 24  1  0
 24 25  1  0
 24 26  2  0
 26 27  1  0
 27 28  1  0
 27 29  1  0
 27 30  1  0
 30 31  1  0
 30 32  1  0
  6 33  1  0
 33 34  1  0
 33 35  2  0
 35 36  1  0
 35  2  1  0
 30 13  1  0
 26 17  1  0
M  END
>  <cnnaffinity>  (1) 
-4.82206

>  <filename>  (1) 
Cl[C@H](CN1CCc2ccccc2C1)c1cccnc1

$$$$
