
     RDKit          3D

 29 31  0  0  0  0  0  0  0  0999 V2000
    4.9105    1.8253   16.9530 H   0  0  0  0  0  0  0  0  0  0  0  0
    5.3936    1.3249   17.7895 C   0  0  0  0  0  0  0  0  0  0  0  0
    6.5530    0.7077   17.5215 N   0  0  0  0  0  0  0  0  0  0  0  0
    7.1589    0.0747   18.5361 C   0  0  0  0  0  0  0  0  0  0  0  0
    8.1115   -0.3999   18.2926 H   0  0  0  0  0  0  0  0  0  0  0  0
    6.6594    0.0049   19.8487 C   0  0  0  0  0  0  0  0  0  0  0  0
    7.3529   -0.7748   20.9471 C   0  0  0  0  0  0  0  0  0  0  0  0
    8.3721   -1.0646   20.6514 H   0  0  0  0  0  0  0  0  0  0  0  0
    7.4271   -0.1503   21.8535 H   0  0  0  0  0  0  0  0  0  0  0  0
    6.5551   -2.0064   21.4129 C   0  0  1  0  0  0  0  0  0  0  0  0
    5.6053   -1.6678   21.8282 H   0  0  0  0  0  0  0  0  0  0  0  0
    6.0578   -3.1036   20.0801 Cl  0  0  0  0  0  0  0  0  0  0  0  0
    7.2033   -2.7549   22.5433 C   0  0  0  0  0  0  0  0  0  0  0  0
    6.5749   -3.0909   23.6137 N   0  0  0  0  0  0  0  0  0  0  0  0
    7.5545   -3.6397   24.4306 C   0  0  0  0  0  0  0  0  0  0  0  0
    7.4766   -4.1287   25.7375 C   0  0  0  0  0  0  0  0  0  0  0  0
    6.5186   -4.1011   26.2479 H   0  0  0  0  0  0  0  0  0  0  0  0
    8.6435   -4.6273   26.3162 C   0  0  0  0  0  0  0  0  0  0  0  0
    8.6121   -5.0268   27.3254 H   0  0  0  0  0  0  0  0  0  0  0  0
    9.8632   -4.6160   25.6058 C   0  0  0  0  0  0  0  0  0  0  0  0
   10.7511   -5.0251   26.0793 H   0  0  0  0  0  0  0  0  0  0  0  0
    9.9582   -4.0939   24.3097 C   0  0  0  0  0  0  0  0  0  0  0  0
   10.9013   -4.0628   23.7782 H   0  0  0  0  0  0  0  0  0  0  0  0
    8.7736   -3.6176   23.7480 C   0  0  0  0  0  0  0  0  0  0  0  0
    8.5402   -3.0497   22.5181 O   0  0  0  0  0  0  0  0  0  0  0  0
    5.4465    0.6681   20.0988 C   0  0  0  0  0  0  0  0  0  0  0  0
    5.0196    0.6741   21.1043 H   0  0  0  0  0  0  0  0  0  0  0  0
    4.8017    1.3361   19.0556 C   0  0  0  0  0  0  0  0  0  0  0  0
    3.8612    1.8554   19.2083 H   0  0  0  0  0  0  0  0  0  0  0  0
  1  2  1  0
  2  3  2  0
  3  4  1  0
  4  5  1  0
  4  6  2  0
  6  7  1  0
  7  8  1  0
  7  9  1  0
  7 10  1  0
 10 11  1  1
 10 12  1  0
 10 13  1  0
 13 14  2  0
 14 15  1  0
 15 16  2  0
 16 17  1  0
 16 18  1  0
 18 19  1  0
 18 20  2  0
 20 21  1  0
 20 22  1  0
 22 23  1  0
 22 24  2  0
 24 25  1  0
  6 26  1  0
 26 27  1  0
 26 28  2  0
 28 29  1  0
 28  2  1  0
 25 13  1  0
 24 15  1  0
M  END
>  <cnnaffinity>  (1) 
-4.90921

>  <filename>  (1) 
Cl[C@H](Cc1cccnc1)c1nc2ccccc2o1

$$$$
