
     RDKit          3D

 27 29  0  0  0  0  0  0  0  0999 V2000
    5.6840   -1.6293   21.6963 H   0  0  0  0  0  0  0  0  0  0  0  0
    6.7472   -1.4929   21.8298 C   0  0  0  0  0  0  0  0  0  0  0  0
    7.3975   -0.6997   20.9740 C   0  0  0  0  0  0  0  0  0  0  0  0
    9.1041   -0.4486   21.0233 Cl  0  0  0  0  0  0  0  0  0  0  0  0
    6.6712    0.0155   19.9063 C   0  0  0  0  0  0  0  0  0  0  0  0
    7.1859    0.0654   18.5999 C   0  0  0  0  0  0  0  0  0  0  0  0
    8.1310   -0.4360   18.3786 H   0  0  0  0  0  0  0  0  0  0  0  0
    6.5695    0.6791   17.5848 N   0  0  0  0  0  0  0  0  0  0  0  0
    5.4003    1.2902   17.8473 C   0  0  0  0  0  0  0  0  0  0  0  0
    4.9067    1.7711   17.0066 H   0  0  0  0  0  0  0  0  0  0  0  0
    4.8041    1.3136   19.1126 C   0  0  0  0  0  0  0  0  0  0  0  0
    3.8703    1.8459   19.2676 H   0  0  0  0  0  0  0  0  0  0  0  0
    5.4425    0.6487   20.1554 C   0  0  0  0  0  0  0  0  0  0  0  0
    5.0128    0.6309   21.1551 H   0  0  0  0  0  0  0  0  0  0  0  0
    7.2990   -2.2392   22.9283 C   0  0  0  0  0  0  0  0  0  0  0  0
    6.6033   -3.0206   23.6850 N   0  0  0  0  0  0  0  0  0  0  0  0
    7.5270   -3.5171   24.5949 C   0  0  0  0  0  0  0  0  0  0  0  0
    7.3908   -4.4088   25.6680 C   0  0  0  0  0  0  0  0  0  0  0  0
    6.4091   -4.8207   25.8797 H   0  0  0  0  0  0  0  0  0  0  0  0
    8.5280   -4.7226   26.4128 C   0  0  0  0  0  0  0  0  0  0  0  0
    8.4378   -5.4117   27.2450 H   0  0  0  0  0  0  0  0  0  0  0  0
    9.7811   -4.1585   26.0937 C   0  0  0  0  0  0  0  0  0  0  0  0
   10.6501   -4.4210   26.6847 H   0  0  0  0  0  0  0  0  0  0  0  0
    9.9281   -3.2694   25.0246 C   0  0  0  0  0  0  0  0  0  0  0  0
   10.8767   -2.8192   24.7531 H   0  0  0  0  0  0  0  0  0  0  0  0
    8.7807   -2.9704   24.2996 C   0  0  0  0  0  0  0  0  0  0  0  0
    8.6306   -2.1511   23.2288 O   0  0  0  0  0  0  0  0  0  0  0  0
  1  2  1  0
  2  3  2  3
  3  4  1  0
  3  5  1  0
  5  6  2  0
  6  7  1  0
  6  8  1  0
  8  9  2  0
  9 10  1  0
  9 11  1  0
 11 12  1  0
 11 13  2  0
 13 14  1  0
  2 15  1  0
 15 16  2  0
 16 17  1  0
 17 18  2  0
 18 19  1  0
 18 20  1  0
 20 21  1  0
 20 22  2  0
 22 23  1  0
 22 24  1  0
 24 25  1  0
 24 26  2  0
 26 27  1  0
 13  5  1  0
 27 15  1  0
 26 17  1  0
M  END
>  <cnnaffinity>  (1) 
-4.9573

>  <filename>  (1) 
ClC(=Cc1nc2ccccc2o1)c1cccnc1

$$$$
