
     RDKit          3D

 42 46  0  0  0  0  0  0  0  0999 V2000
    7.7378    6.3407   26.9482 Cl  0  0  0  0  0  0  0  0  0  0  0  0
    7.9580    4.9762   25.8908 C   0  0  0  0  0  0  0  0  0  0  0  0
    6.9161    4.6263   25.0194 C   0  0  0  0  0  0  0  0  0  0  0  0
    7.1273    3.5713   24.1365 C   0  0  0  0  0  0  0  0  0  0  0  0
    8.3705    2.9180   24.1571 C   0  0  0  0  0  0  0  0  0  0  0  0
    8.6711    1.9355   23.1775 N   0  0  0  0  0  0  0  0  0  0  0  0
    7.6624    1.1755   22.6756 N   0  0  0  0  0  0  0  0  0  0  0  0
    8.2647    0.4059   21.7933 C   0  0  0  0  0  0  0  0  0  0  0  0
    7.5216   -0.5676   20.9152 C   0  0  0  0  0  0  0  0  0  0  0  0
    6.7339    0.0553   19.7613 C   0  0  0  0  0  0  0  0  0  0  0  0
    5.5244    0.7206   20.0037 C   0  0  0  0  0  0  0  0  0  0  0  0
    4.8519    1.3159   18.9317 C   0  0  0  0  0  0  0  0  0  0  0  0
    5.4116    1.2264   17.6542 C   0  0  0  0  0  0  0  0  0  0  0  0
    6.5457    0.5592   17.3918 N   0  0  0  0  0  0  0  0  0  0  0  0
    7.1748   -0.0088   18.4270 C   0  0  0  0  0  0  0  0  0  0  0  0
    8.0931   -0.5463   18.1895 H   0  0  0  0  0  0  0  0  0  0  0  0
    4.9363    1.7041   16.7986 H   0  0  0  0  0  0  0  0  0  0  0  0
    3.9211    1.8558   19.0689 H   0  0  0  0  0  0  0  0  0  0  0  0
    5.1252    0.7636   21.0190 H   0  0  0  0  0  0  0  0  0  0  0  0
    6.8344   -1.1288   21.5569 H   0  0  0  0  0  0  0  0  0  0  0  0
    8.2572   -1.2842   20.5389 H   0  0  0  0  0  0  0  0  0  0  0  0
    9.6013    0.5864   21.7051 N   0  0  0  0  0  0  0  0  0  0  0  0
    9.8408    1.5809   22.5465 C   0  0  0  0  0  0  0  0  0  0  0  0
   11.1703    2.1989   22.7189 C   0  0  0  0  0  0  0  0  0  0  0  0
   12.2888    1.3626   22.8100 C   0  0  0  0  0  0  0  0  0  0  0  0
   13.6002    1.8820   22.8762 C   0  0  0  0  0  0  0  0  0  0  0  0
   13.8347    3.2504   22.8455 C   0  0  0  0  0  0  0  0  0  0  0  0
   12.7115    4.1033   22.8378 C   0  0  0  0  0  0  0  0  0  0  0  0
   11.3895    3.6185   22.7455 C   0  0  0  0  0  0  0  0  0  0  0  0
   10.6143    4.8226   22.6883 C   0  0  0  0  0  0  0  0  0  0  0  0
   11.3554    5.9130   22.7933 N   0  0  0  0  0  0  0  0  0  0  0  0
   12.6223    5.4613   22.8860 N   0  0  0  0  0  0  0  0  0  0  0  0
   13.3912    6.1045   22.9919 H   0  0  0  0  0  0  0  0  0  0  0  0
    9.5462    4.9296   22.5801 H   0  0  0  0  0  0  0  0  0  0  0  0
   14.8346    3.6621   22.7713 H   0  0  0  0  0  0  0  0  0  0  0  0
   14.4349    1.1838   22.9068 H   0  0  0  0  0  0  0  0  0  0  0  0
   12.1422    0.2839   22.8156 H   0  0  0  0  0  0  0  0  0  0  0  0
    9.2820    3.2643   25.1689 C   0  0  0  0  0  0  0  0  0  0  0  0
    9.1056    4.3220   25.9748 N   0  0  0  0  0  0  0  0  0  0  0  0
   10.2083    2.7051   25.3049 H   0  0  0  0  0  0  0  0  0  0  0  0
    6.3443    3.2130   23.4618 H   0  0  0  0  0  0  0  0  0  0  0  0
    5.9919    5.1892   25.0394 H   0  0  0  0  0  0  0  0  0  0  0  0
  1  2  1  0
  2  3  2  0
  3  4  1  0
  4  5  2  0
  5  6  1  0
  6  7  1  0
  7  8  2  0
  8  9  1  0
  9 10  1  0
 10 11  2  0
 11 12  1  0
 12 13  2  0
 13 14  1  0
 14 15  2  0
 15 16  1  0
 13 17  1  0
 12 18  1  0
 11 19  1  0
  9 20  1  0
  9 21  1  0
  8 22  1  0
 22 23  2  0
 23 24  1  0
 24 25  2  0
 25 26  1  0
 26 27  2  0
 27 28  1  0
 28 29  2  0
 29 30  1  0
 30 31  2  0
 31 32  1  0
 32 33  1  0
 30 34  1  0
 27 35  1  0
 26 36  1  0
 25 37  1  0
  5 38  1  0
 38 39  2  0
 38 40  1  0
  4 41  1  0
  3 42  1  0
 39  2  1  0
 23  6  1  0
 29 24  1  0
 15 10  1  0
 32 28  1  0
M  END
>  <cnnaffinity>  (1) 
-5.96112

>  <filename>  (1) 
Clc1ccc(-n2nc(Cc3cccnc3)nc2-c2cccc3[nH]ncc23)cn1

$$$$
