
     RDKit          3D

 30 32  0  0  0  0  0  0  0  0999 V2000
    4.9969    1.8016   16.9531 H   0  0  0  0  0  0  0  0  0  0  0  0
    5.4572    1.3034   17.8046 C   0  0  0  0  0  0  0  0  0  0  0  0
    6.6418    0.7181   17.5688 N   0  0  0  0  0  0  0  0  0  0  0  0
    7.2350    0.0901   18.5891 C   0  0  0  0  0  0  0  0  0  0  0  0
    8.2072   -0.3498   18.3737 H   0  0  0  0  0  0  0  0  0  0  0  0
    6.6654   -0.0337   19.8698 C   0  0  0  0  0  0  0  0  0  0  0  0
    7.3724   -0.7873   20.9080 C   0  0  0  0  0  0  0  0  0  0  0  0
    8.7068   -0.5441   21.1450 N   0  0  0  0  0  0  0  0  0  0  0  0
    9.0295   -1.2838   22.1658 C   0  0  0  0  0  0  0  0  0  0  0  0
   10.0078   -1.2960   22.6322 H   0  0  0  0  0  0  0  0  0  0  0  0
    7.9871   -2.0538   22.5891 N   0  0  0  0  0  0  0  0  0  0  0  0
    7.9511   -2.6293   23.4144 H   0  0  0  0  0  0  0  0  0  0  0  0
    6.9064   -1.7608   21.7942 C   0  0  0  0  0  0  0  0  0  0  0  0
    5.6858   -2.4142   21.9532 N   0  0  0  0  0  0  0  0  0  0  0  0
    4.8941   -1.7918   22.0305 H   0  0  0  0  0  0  0  0  0  0  0  0
    5.4259   -3.6514   22.5733 C   0  0  0  0  0  0  0  0  0  0  0  0
    6.2026   -4.7922   22.3352 C   0  0  0  0  0  0  0  0  0  0  0  0
    7.1176   -4.6855   21.7606 H   0  0  0  0  0  0  0  0  0  0  0  0
    5.8365   -6.0314   22.8801 C   0  0  0  0  0  0  0  0  0  0  0  0
    6.4192   -6.9314   22.7103 H   0  0  0  0  0  0  0  0  0  0  0  0
    4.6891   -6.1282   23.6708 C   0  0  0  0  0  0  0  0  0  0  0  0
    4.2226   -7.6791   24.3131 Cl  0  0  0  0  0  0  0  0  0  0  0  0
    3.9396   -4.9892   23.9739 C   0  0  0  0  0  0  0  0  0  0  0  0
    3.0905   -5.0681   24.6449 H   0  0  0  0  0  0  0  0  0  0  0  0
    4.3037   -3.7650   23.4067 C   0  0  0  0  0  0  0  0  0  0  0  0
    3.7382   -2.8736   23.6541 H   0  0  0  0  0  0  0  0  0  0  0  0
    5.4396    0.6118   20.1057 C   0  0  0  0  0  0  0  0  0  0  0  0
    5.0041    0.6170   21.1072 H   0  0  0  0  0  0  0  0  0  0  0  0
    4.8257    1.2907   19.0522 C   0  0  0  0  0  0  0  0  0  0  0  0
    3.8856    1.8148   19.1828 H   0  0  0  0  0  0  0  0  0  0  0  0
  1  2  1  0
  2  3  2  0
  3  4  1  0
  4  5  1  0
  4  6  2  0
  6  7  1  0
  7  8  1  0
  8  9  2  0
  9 10  1  0
  9 11  1  0
 11 12  1  0
 11 13  1  0
 13 14  1  0
 14 15  1  0
 14 16  1  0
 16 17  2  0
 17 18  1  0
 17 19  1  0
 19 20  1  0
 19 21  2  0
 21 22  1  0
 21 23  1  0
 23 24  1  0
 23 25  2  0
 25 26  1  0
  6 27  1  0
 27 28  1  0
 27 29  2  0
 29 30  1  0
 29  2  1  0
 13  7  2  0
 25 16  1  0
M  END
>  <cnnaffinity>  (1) 
-5.31758

>  <filename>  (1) 
Clc1ccc(Nc2[nH]cnc2-c2cccnc2)cc1

$$$$
