
     RDKit          3D

 31 33  0  0  0  0  0  0  0  0999 V2000
    5.0257    2.0565   16.7423 H   0  0  0  0  0  0  0  0  0  0  0  0
    5.3042    1.4351   17.5903 C   0  0  0  0  0  0  0  0  0  0  0  0
    6.3745    0.6446   17.4138 N   0  0  0  0  0  0  0  0  0  0  0  0
    6.7558   -0.0957   18.4611 C   0  0  0  0  0  0  0  0  0  0  0  0
    7.6384   -0.7198   18.3162 H   0  0  0  0  0  0  0  0  0  0  0  0
    6.1013   -0.1163   19.7076 C   0  0  0  0  0  0  0  0  0  0  0  0
    6.7322   -0.8664   20.8267 C   0  0  0  0  0  0  0  0  0  0  0  0
    6.0585   -1.7801   21.6462 C   0  0  0  0  0  0  0  0  0  0  0  0
    5.0231   -2.0156   21.4528 H   0  0  0  0  0  0  0  0  0  0  0  0
    6.7109   -2.4041   22.7172 C   0  0  0  0  0  0  0  0  0  0  0  0
    6.1598   -3.0942   23.3514 H   0  0  0  0  0  0  0  0  0  0  0  0
    8.0602   -2.1354   22.9729 C   0  0  0  0  0  0  0  0  0  0  0  0
    8.5669   -2.6008   23.8161 H   0  0  0  0  0  0  0  0  0  0  0  0
    8.7537   -1.2331   22.1489 C   0  0  0  0  0  0  0  0  0  0  0  0
   10.1878   -0.8963   22.3149 C   0  0  0  0  0  0  0  0  0  0  0  0
   11.1744   -1.8796   22.1405 C   0  0  0  0  0  0  0  0  0  0  0  0
   10.8585   -2.8980   21.9608 H   0  0  0  0  0  0  0  0  0  0  0  0
   12.5335   -1.5709   22.1369 C   0  0  0  0  0  0  0  0  0  0  0  0
   13.2786   -2.3399   21.9764 H   0  0  0  0  0  0  0  0  0  0  0  0
   12.9155   -0.2519   22.3742 C   0  0  0  0  0  0  0  0  0  0  0  0
   14.5895    0.1667   22.4221 Cl  0  0  0  0  0  0  0  0  0  0  0  0
   11.9754    0.7563   22.5696 C   0  0  0  0  0  0  0  0  0  0  0  0
   12.2798    1.7806   22.7374 H   0  0  0  0  0  0  0  0  0  0  0  0
   10.6216    0.4286   22.5171 C   0  0  0  0  0  0  0  0  0  0  0  0
    9.4840    1.7199   22.7582 Cl  0  0  0  0  0  0  0  0  0  0  0  0
    8.0824   -0.6251   21.0846 C   0  0  0  0  0  0  0  0  0  0  0  0
    8.6287    0.0814   20.4674 H   0  0  0  0  0  0  0  0  0  0  0  0
    4.9495    0.6709   19.8467 C   0  0  0  0  0  0  0  0  0  0  0  0
    4.4002    0.6857   20.7886 H   0  0  0  0  0  0  0  0  0  0  0  0
    4.5608    1.4786   18.7729 C   0  0  0  0  0  0  0  0  0  0  0  0
    3.7177    2.1550   18.8469 H   0  0  0  0  0  0  0  0  0  0  0  0
  1  2  1  0
  2  3  2  0
  3  4  1  0
  4  5  1  0
  4  6  2  0
  6  7  1  0
  7  8  2  0
  8  9  1  0
  8 10  1  0
 10 11  1  0
 10 12  2  0
 12 13  1  0
 12 14  1  0
 14 15  1  0
 15 16  2  0
 16 17  1  0
 16 18  1  0
 18 19  1  0
 18 20  2  0
 20 21  1  0
 20 22  1  0
 22 23  1  0
 22 24  2  0
 24 25  1  0
 14 26  2  0
 26 27  1  0
  6 28  1  0
 28 29  1  0
 28 30  2  0
 30 31  1  0
 30  2  1  0
 26  7  1  0
 24 15  1  0
M  END
>  <cnnaffinity>  (1) 
-5.16412

>  <filename>  (1) 
Clc1ccc(-c2cccc(-c3cccnc3)c2)c(Cl)c1

$$$$
