
     RDKit          3D

 36 38  0  0  0  0  0  0  0  0999 V2000
   10.2208   -0.3191   22.7018 H   0  0  0  0  0  0  0  0  0  0  0  0
    9.3150   -0.8174   22.3653 C   0  0  0  0  0  0  0  0  0  0  0  0
    8.7509   -1.7603   23.1117 C   0  0  0  0  0  0  0  0  0  0  0  0
    9.3149   -2.0558   24.3455 N   0  0  0  0  0  0  0  0  0  0  0  0
    9.6593   -1.2491   24.8378 H   0  0  0  0  0  0  0  0  0  0  0  0
    9.1081   -3.1695   25.1455 C   0  0  0  0  0  0  0  0  0  0  0  0
    8.9359   -2.9566   26.5200 C   0  0  0  0  0  0  0  0  0  0  0  0
    9.0431   -1.9515   26.9157 H   0  0  0  0  0  0  0  0  0  0  0  0
    8.5918   -4.0239   27.3433 C   0  0  0  0  0  0  0  0  0  0  0  0
    8.3686   -3.9039   28.3920 H   0  0  0  0  0  0  0  0  0  0  0  0
    8.4886   -5.3058   26.8082 C   0  0  0  0  0  0  0  0  0  0  0  0
    7.9456   -6.5892   27.8480 Cl  0  0  0  0  0  0  0  0  0  0  0  0
    8.7747   -5.5528   25.4645 C   0  0  0  0  0  0  0  0  0  0  0  0
    8.7494   -6.5760   25.1061 H   0  0  0  0  0  0  0  0  0  0  0  0
    9.0728   -4.4736   24.6281 C   0  0  0  0  0  0  0  0  0  0  0  0
    9.2623   -4.6351   23.5732 H   0  0  0  0  0  0  0  0  0  0  0  0
    7.5169   -2.4697   22.6078 C   0  0  0  0  0  0  0  0  0  0  0  0
    7.8193   -3.2318   21.8782 H   0  0  0  0  0  0  0  0  0  0  0  0
    6.9769   -2.9671   23.4158 H   0  0  0  0  0  0  0  0  0  0  0  0
    6.6196   -1.4434   21.9059 C   0  0  0  0  0  0  0  0  0  0  0  0
    5.7404   -1.9420   21.4712 H   0  0  0  0  0  0  0  0  0  0  0  0
    6.2524   -0.7048   22.6432 H   0  0  0  0  0  0  0  0  0  0  0  0
    7.3713   -0.7856   20.8308 N   0  0  0  0  0  0  0  0  0  0  0  0
    6.6942   -0.0743   19.8345 C   0  0  0  0  0  0  0  0  0  0  0  0
    7.2084    0.0630   18.5138 C   0  0  0  0  0  0  0  0  0  0  0  0
    8.1636   -0.3977   18.2656 H   0  0  0  0  0  0  0  0  0  0  0  0
    6.5981    0.7207   17.5169 N   0  0  0  0  0  0  0  0  0  0  0  0
    5.4281    1.3187   17.7962 C   0  0  0  0  0  0  0  0  0  0  0  0
    4.9537    1.8579   16.9793 H   0  0  0  0  0  0  0  0  0  0  0  0
    4.8308    1.2689   19.0589 C   0  0  0  0  0  0  0  0  0  0  0  0
    3.8934    1.7875   19.2366 H   0  0  0  0  0  0  0  0  0  0  0  0
    5.4638    0.5658   20.0884 C   0  0  0  0  0  0  0  0  0  0  0  0
    5.0407    0.5155   21.0907 H   0  0  0  0  0  0  0  0  0  0  0  0
    8.8272   -0.5849   20.9668 C   0  0  0  0  0  0  0  0  0  0  0  0
    9.0918    0.4382   20.6561 H   0  0  0  0  0  0  0  0  0  0  0  0
    9.3679   -1.2757   20.2912 H   0  0  0  0  0  0  0  0  0  0  0  0
  1  2  1  0
  2  3  2  0
  3  4  1  0
  4  5  1  0
  4  6  1  0
  6  7  2  0
  7  8  1  0
  7  9  1  0
  9 10  1  0
  9 11  2  0
 11 12  1  0
 11 13  1  0
 13 14  1  0
 13 15  2  0
 15 16  1  0
  3 17  1  0
 17 18  1  0
 17 19  1  0
 17 20  1  0
 20 21  1  0
 20 22  1  0
 20 23  1  0
 23 24  1  0
 24 25  2  0
 25 26  1  0
 25 27  1  0
 27 28  2  0
 28 29  1  0
 28 30  1  0
 30 31  1  0
 30 32  2  0
 32 33  1  0
 23 34  1  0
 34 35  1  0
 34 36  1  0
 34  2  1  0
 15  6  1  0
 32 24  1  0
M  END
>  <cnnaffinity>  (1) 
-4.89809

>  <filename>  (1) 
Clc1ccc(NC2=CCN(c3cccnc3)CC2)cc1

$$$$
