
     RDKit          3D

 30 32  0  0  0  0  0  0  0  0999 V2000
    4.9161    1.8825   16.8821 H   0  0  0  0  0  0  0  0  0  0  0  0
    5.3691    1.3724   17.7340 C   0  0  0  0  0  0  0  0  0  0  0  0
    6.5300    0.7415   17.5027 N   0  0  0  0  0  0  0  0  0  0  0  0
    7.0946    0.1052   18.5317 C   0  0  0  0  0  0  0  0  0  0  0  0
    8.0320   -0.4052   18.3232 H   0  0  0  0  0  0  0  0  0  0  0  0
    6.5530    0.0459   19.8218 C   0  0  0  0  0  0  0  0  0  0  0  0
    7.2734   -0.7385   20.8231 C   0  0  0  0  0  0  0  0  0  0  0  0
    6.6922   -0.9516   22.0148 O   0  0  0  0  0  0  0  0  0  0  0  0
    7.5500   -1.6662   22.8236 N   0  0  0  0  0  0  0  0  0  0  0  0
    8.6261   -1.8785   22.1149 C   0  0  0  0  0  0  0  0  0  0  0  0
    9.8336   -2.5133   22.7441 C   0  0  0  0  0  0  0  0  0  0  0  0
    9.5231   -3.2813   23.4656 H   0  0  0  0  0  0  0  0  0  0  0  0
   10.4313   -2.9960   21.9698 H   0  0  0  0  0  0  0  0  0  0  0  0
   10.6871   -1.4497   23.4077 C   0  0  0  0  0  0  0  0  0  0  0  0
   10.3717   -1.0032   24.7023 C   0  0  0  0  0  0  0  0  0  0  0  0
    9.4777   -1.3869   25.2017 H   0  0  0  0  0  0  0  0  0  0  0  0
   11.1938   -0.0699   25.3412 C   0  0  0  0  0  0  0  0  0  0  0  0
   10.9577    0.2840   26.3386 H   0  0  0  0  0  0  0  0  0  0  0  0
   12.3211    0.4442   24.6936 C   0  0  0  0  0  0  0  0  0  0  0  0
   12.9626    1.1551   25.2034 H   0  0  0  0  0  0  0  0  0  0  0  0
   12.6092    0.0719   23.3821 C   0  0  0  0  0  0  0  0  0  0  0  0
   13.4503    0.5047   22.8477 H   0  0  0  0  0  0  0  0  0  0  0  0
   11.7703   -0.8437   22.7420 C   0  0  0  0  0  0  0  0  0  0  0  0
   12.1300   -1.2143   21.0796 Cl  0  0  0  0  0  0  0  0  0  0  0  0
    8.4997   -1.3327   20.8094 C   0  0  0  0  0  0  0  0  0  0  0  0
    9.2240   -1.3924   20.0120 H   0  0  0  0  0  0  0  0  0  0  0  0
    5.3478    0.7307   20.0640 C   0  0  0  0  0  0  0  0  0  0  0  0
    4.8949    0.7536   21.0572 H   0  0  0  0  0  0  0  0  0  0  0  0
    4.7513    1.3871   18.9904 C   0  0  0  0  0  0  0  0  0  0  0  0
    3.8121    1.9107   19.1068 H   0  0  0  0  0  0  0  0  0  0  0  0
  1  2  1  0
  2  3  2  0
  3  4  1  0
  4  5  1  0
  4  6  2  0
  6  7  1  0
  7  8  1  0
  8  9  1  0
  9 10  2  0
 10 11  1  0
 11 12  1  0
 11 13  1  0
 11 14  1  0
 14 15  2  0
 15 16  1  0
 15 17  1  0
 17 18  1  0
 17 19  2  0
 19 20  1  0
 19 21  1  0
 21 22  1  0
 21 23  2  0
 23 24  1  0
 10 25  1  0
 25 26  1  0
  6 27  1  0
 27 28  1  0
 27 29  2  0
 29 30  1  0
 29  2  1  0
 25  7  2  0
 23 14  1  0
M  END
>  <cnnaffinity>  (1) 
-5.07514

>  <filename>  (1) 
Clc1ccccc1Cc1cc(-c2cccnc2)on1

$$$$
