
     RDKit          3D

 32 33  0  0  0  0  0  0  0  0999 V2000
   13.7088   -0.9457   21.5730 Cl  0  0  0  0  0  0  0  0  0  0  0  0
   12.2564   -0.9541   22.5523 C   0  0  0  0  0  0  0  0  0  0  0  0
   11.3450   -2.0037   22.4384 C   0  0  0  0  0  0  0  0  0  0  0  0
   10.3214   -2.1996   23.3742 C   0  0  0  0  0  0  0  0  0  0  0  0
   10.1935   -1.2921   24.4431 C   0  0  0  0  0  0  0  0  0  0  0  0
    9.3287   -1.4878   25.4930 O   0  0  0  0  0  0  0  0  0  0  0  0
    8.1677   -2.2882   25.2522 C   0  0  0  0  0  0  0  0  0  0  0  0
    7.2297   -1.5293   24.3255 C   0  0  0  0  0  0  0  0  0  0  0  0
    7.7576   -1.5363   23.0011 O   0  0  0  0  0  0  0  0  0  0  0  0
    6.9155   -0.7929   22.1516 N   0  0  0  0  0  0  0  0  0  0  0  0
    7.3661   -0.6916   20.9317 C   0  0  0  0  0  0  0  0  0  0  0  0
    6.6321    0.0128   19.9011 C   0  0  0  0  0  0  0  0  0  0  0  0
    5.4192    0.6643   20.1433 C   0  0  0  0  0  0  0  0  0  0  0  0
    4.8215    1.3098   19.0665 C   0  0  0  0  0  0  0  0  0  0  0  0
    5.4367    1.2928   17.8110 C   0  0  0  0  0  0  0  0  0  0  0  0
    6.5991    0.6543   17.5868 N   0  0  0  0  0  0  0  0  0  0  0  0
    7.1816    0.0297   18.6195 C   0  0  0  0  0  0  0  0  0  0  0  0
    8.1242   -0.4823   18.4479 H   0  0  0  0  0  0  0  0  0  0  0  0
    4.9592    1.8138   16.9869 H   0  0  0  0  0  0  0  0  0  0  0  0
    3.8866    1.8402   19.1926 H   0  0  0  0  0  0  0  0  0  0  0  0
    4.9611    0.6768   21.1344 H   0  0  0  0  0  0  0  0  0  0  0  0
    8.3116   -1.1607   20.6869 H   0  0  0  0  0  0  0  0  0  0  0  0
    6.2389   -1.9915   24.3272 H   0  0  0  0  0  0  0  0  0  0  0  0
    7.1263   -0.4994   24.6822 H   0  0  0  0  0  0  0  0  0  0  0  0
    8.4321   -3.2638   24.8268 H   0  0  0  0  0  0  0  0  0  0  0  0
    7.6666   -2.4569   26.2104 H   0  0  0  0  0  0  0  0  0  0  0  0
   11.0135   -0.1499   24.4720 C   0  0  0  0  0  0  0  0  0  0  0  0
   10.7284    1.2174   25.7797 Br  0  0  0  0  0  0  0  0  0  0  0  0
   12.0476    0.0089   23.5428 C   0  0  0  0  0  0  0  0  0  0  0  0
   12.7175    0.8601   23.6244 H   0  0  0  0  0  0  0  0  0  0  0  0
    9.6545   -3.0576   23.2901 H   0  0  0  0  0  0  0  0  0  0  0  0
   11.4799   -2.6846   21.6184 H   0  0  0  0  0  0  0  0  0  0  0  0
  1  2  1  0
  2  3  2  0
  3  4  1  0
  4  5  2  0
  5  6  1  0
  6  7  1  0
  7  8  1  0
  8  9  1  0
  9 10  1  0
 10 11  2  3
 11 12  1  0
 12 13  2  0
 13 14  1  0
 14 15  2  0
 15 16  1  0
 16 17  2  0
 17 18  1  0
 15 19  1  0
 14 20  1  0
 13 21  1  0
 11 22  1  0
  8 23  1  0
  8 24  1  0
  7 25  1  0
  7 26  1  0
  5 27  1  0
 27 28  1  0
 27 29  2  0
 29 30  1  0
  4 31  1  0
  3 32  1  0
 29  2  1  0
 17 12  1  0
M  END
>  <cnnaffinity>  (1) 
-5.17184

>  <filename>  (1) 
Clc1ccc(OCCON=Cc2cccnc2)c(Br)c1

$$$$
