
     RDKit          3D

 36 38  0  0  0  0  0  0  0  0999 V2000
   10.5028    6.8714   23.5703 Cl  0  0  0  0  0  0  0  0  0  0  0  0
    9.4024    5.6836   22.9860 C   0  0  0  0  0  0  0  0  0  0  0  0
    8.0778    6.0226   22.6935 C   0  0  0  0  0  0  0  0  0  0  0  0
    7.1514    5.1097   22.3878 N   0  0  0  0  0  0  0  0  0  0  0  0
    7.5176    3.8206   22.3409 C   0  0  0  0  0  0  0  0  0  0  0  0
    8.8296    3.3917   22.6065 C   0  0  0  0  0  0  0  0  0  0  0  0
    9.2524    1.9671   22.5194 C   0  0  0  0  0  0  0  0  0  0  0  0
    9.2509    1.6634   21.0519 N   0  0  0  0  0  4  0  0  0  0  0  0
    9.7531    0.3219   20.7369 C   0  0  0  0  0  0  0  0  0  0  0  0
    8.7565   -0.6225   21.3297 C   0  0  0  0  0  0  0  0  0  0  0  0
    8.8918   -1.4603   22.4127 C   0  0  0  0  0  0  0  0  0  0  0  0
    7.6384   -1.8797   22.7173 N   0  0  0  0  0  0  0  0  0  0  0  0
    6.7020   -1.3704   21.9115 N   0  0  0  0  0  0  0  0  0  0  0  0
    7.3598   -0.5949   21.0575 C   0  0  0  0  0  0  0  0  0  0  0  0
    6.6469    0.0983   19.9699 C   0  0  0  0  0  0  0  0  0  0  0  0
    5.4066    0.7327   20.1533 C   0  0  0  0  0  0  0  0  0  0  0  0
    4.8255    1.3649   19.0533 C   0  0  0  0  0  0  0  0  0  0  0  0
    5.4751    1.3269   17.8135 C   0  0  0  0  0  0  0  0  0  0  0  0
    6.6388    0.6887   17.6167 N   0  0  0  0  0  0  0  0  0  0  0  0
    7.1852    0.0809   18.6749 C   0  0  0  0  0  0  0  0  0  0  0  0
    8.1108   -0.4564   18.4887 H   0  0  0  0  0  0  0  0  0  0  0  0
    5.0306    1.8050   16.9404 H   0  0  0  0  0  0  0  0  0  0  0  0
    3.8679    1.8666   19.1332 H   0  0  0  0  0  0  0  0  0  0  0  0
    4.8986    0.7124   21.1220 H   0  0  0  0  0  0  0  0  0  0  0  0
    7.3493   -2.5537   23.4075 H   0  0  0  0  0  0  0  0  0  0  0  0
    9.7481   -1.7031   23.0320 H   0  0  0  0  0  0  0  0  0  0  0  0
   10.7512    0.1451   21.1564 H   0  0  0  0  0  0  0  0  0  0  0  0
    9.8277    0.1942   19.6584 H   0  0  0  0  0  0  0  0  0  0  0  0
    8.2330    1.6456   20.7837 H   0  0  0  0  0  0  0  0  0  0  0  0
    9.7423    2.4800   20.6290 H   0  0  0  0  0  0  0  0  0  0  0  0
    8.5825    1.2973   23.0620 H   0  0  0  0  0  0  0  0  0  0  0  0
   10.2456    1.8277   22.9703 H   0  0  0  0  0  0  0  0  0  0  0  0
    9.8033    4.3560   22.8942 C   0  0  0  0  0  0  0  0  0  0  0  0
   10.8491    4.0796   23.0242 H   0  0  0  0  0  0  0  0  0  0  0  0
    6.7133    3.1197   22.0989 H   0  0  0  0  0  0  0  0  0  0  0  0
    7.7703    7.0682   22.7115 H   0  0  0  0  0  0  0  0  0  0  0  0
  1  2  1  0
  2  3  2  0
  3  4  1  0
  4  5  2  0
  5  6  1  0
  6  7  1  0
  7  8  1  0
  8  9  1  0
  9 10  1  0
 10 11  2  0
 11 12  1  0
 12 13  1  0
 13 14  2  0
 14 15  1  0
 15 16  2  0
 16 17  1  0
 17 18  2  0
 18 19  1  0
 19 20  2  0
 20 21  1  0
 18 22  1  0
 17 23  1  0
 16 24  1  0
 12 25  1  0
 11 26  1  0
  9 27  1  0
  9 28  1  0
  8 29  1  0
  8 30  1  0
  7 31  1  0
  7 32  1  0
  6 33  2  0
 33 34  1  0
  5 35  1  0
  3 36  1  0
 33  2  1  0
 14 10  1  0
 20 15  1  0
M  CHG  1   8   1
M  END
>  <cnnaffinity>  (1) 
-5.24596

>  <filename>  (1) 
Clc1cncc(C[NH2+]Cc2c[nH]nc2-c2cccnc2)c1

$$$$
