
     RDKit          3D

 29 31  0  0  0  0  0  0  0  0999 V2000
    4.9875    1.8220   16.8895 H   0  0  0  0  0  0  0  0  0  0  0  0
    5.4098    1.3158   17.7524 C   0  0  0  0  0  0  0  0  0  0  0  0
    6.5596    0.6668   17.5240 N   0  0  0  0  0  0  0  0  0  0  0  0
    7.1274    0.0314   18.5498 C   0  0  0  0  0  0  0  0  0  0  0  0
    8.0684   -0.4724   18.3295 H   0  0  0  0  0  0  0  0  0  0  0  0
    6.5745    0.0109   19.8383 C   0  0  0  0  0  0  0  0  0  0  0  0
    7.3412   -0.6362   20.8918 C   0  0  0  0  0  0  0  0  0  0  0  0
    8.5567   -1.2092   20.6524 N   0  0  0  0  0  0  0  0  0  0  0  0
    8.9536   -1.5683   21.8599 C   0  0  0  0  0  0  0  0  0  0  0  0
    9.8674   -2.0822   22.1338 H   0  0  0  0  0  0  0  0  0  0  0  0
    8.0047   -1.2435   22.7631 N   0  0  0  0  0  0  0  0  0  0  0  0
    7.8971   -1.3827   24.1395 N   0  0  0  0  0  0  0  0  0  0  0  0
    6.9250   -1.1437   24.3089 H   0  0  0  0  0  0  0  0  0  0  0  0
    8.3017   -2.6262   24.7193 C   0  0  0  0  0  0  0  0  0  0  0  0
    8.7988   -2.6315   26.0273 C   0  0  0  0  0  0  0  0  0  0  0  0
    8.6976   -1.7200   26.6080 H   0  0  0  0  0  0  0  0  0  0  0  0
    9.4484   -3.7669   26.5251 C   0  0  0  0  0  0  0  0  0  0  0  0
    9.8793   -3.7972   27.5186 H   0  0  0  0  0  0  0  0  0  0  0  0
    9.5667   -4.8918   25.7089 C   0  0  0  0  0  0  0  0  0  0  0  0
   10.5326   -6.2327   26.2173 Cl  0  0  0  0  0  0  0  0  0  0  0  0
    8.9358   -4.9458   24.4656 C   0  0  0  0  0  0  0  0  0  0  0  0
    9.0088   -5.8602   23.8892 H   0  0  0  0  0  0  0  0  0  0  0  0
    8.2633   -3.8211   23.9837 C   0  0  0  0  0  0  0  0  0  0  0  0
    7.7474   -3.8123   23.0254 H   0  0  0  0  0  0  0  0  0  0  0  0
    6.9657   -0.6520   22.1560 N   0  0  0  0  0  0  0  0  0  0  0  0
    5.3571    0.6800   20.0710 C   0  0  0  0  0  0  0  0  0  0  0  0
    4.9066    0.6913   21.0680 H   0  0  0  0  0  0  0  0  0  0  0  0
    4.7704    1.3463   18.9976 C   0  0  0  0  0  0  0  0  0  0  0  0
    3.8426    1.8980   19.1027 H   0  0  0  0  0  0  0  0  0  0  0  0
  1  2  1  0
  2  3  2  0
  3  4  1  0
  4  5  1  0
  4  6  2  0
  6  7  1  0
  7  8  1  0
  8  9  2  0
  9 10  1  0
  9 11  1  0
 11 12  1  0
 12 13  1  0
 12 14  1  0
 14 15  2  0
 15 16  1  0
 15 17  1  0
 17 18  1  0
 17 19  2  0
 19 20  1  0
 19 21  1  0
 21 22  1  0
 21 23  2  0
 23 24  1  0
 11 25  1  0
  6 26  1  0
 26 27  1  0
 26 28  2  0
 28 29  1  0
 28  2  1  0
 25  7  2  0
 23 14  1  0
M  END
>  <cnnaffinity>  (1) 
-4.6033

>  <filename>  (1) 
Clc1ccc(Nn2cnc(-c3cccnc3)n2)cc1

$$$$
