
     RDKit          3D

 40 43  0  0  0  0  0  0  0  0999 V2000
    4.9128    1.7813   16.9960 H   0  0  0  0  0  0  0  0  0  0  0  0
    5.4015    1.2943   17.8364 C   0  0  0  0  0  0  0  0  0  0  0  0
    6.5630    0.6744   17.5695 N   0  0  0  0  0  0  0  0  0  0  0  0
    7.1643    0.0580   18.5973 C   0  0  0  0  0  0  0  0  0  0  0  0
    8.1160   -0.4260   18.3772 H   0  0  0  0  0  0  0  0  0  0  0  0
    6.6493   -0.0006   19.9061 C   0  0  0  0  0  0  0  0  0  0  0  0
    7.3550   -0.7449   20.9691 C   0  0  0  0  0  0  0  0  0  0  0  0
    8.5254   -0.2775   21.4866 C   0  0  0  0  0  0  0  0  0  0  0  0
    9.1413    1.0640   21.1546 C   0  0  0  0  0  0  0  0  0  0  0  0
    8.6762    1.4919   20.2629 H   0  0  0  0  0  0  0  0  0  0  0  0
   10.2033    0.9182   20.9282 H   0  0  0  0  0  0  0  0  0  0  0  0
    8.9719    2.0621   22.2844 C   0  0  0  0  0  0  0  0  0  0  0  0
    7.7027    2.6284   22.5104 C   0  0  0  0  0  0  0  0  0  0  0  0
    6.8864    2.3729   21.8367 H   0  0  0  0  0  0  0  0  0  0  0  0
    7.4738    3.5166   23.5637 C   0  0  0  0  0  0  0  0  0  0  0  0
    6.4902    3.9527   23.7115 H   0  0  0  0  0  0  0  0  0  0  0  0
    8.5238    3.8500   24.4253 C   0  0  0  0  0  0  0  0  0  0  0  0
    8.3616    4.5395   25.2476 H   0  0  0  0  0  0  0  0  0  0  0  0
    9.7881    3.2982   24.2276 C   0  0  0  0  0  0  0  0  0  0  0  0
   10.6232    3.5527   24.8630 H   0  0  0  0  0  0  0  0  0  0  0  0
   10.0011    2.4133   23.1701 C   0  0  0  0  0  0  0  0  0  0  0  0
   11.6113    1.7607   22.9817 Cl  0  0  0  0  0  0  0  0  0  0  0  0
    9.1877   -1.0498   22.6047 C   0  0  2  0  0  0  0  0  0  0  0  0
   10.2097   -0.6961   22.7704 H   0  0  0  0  0  0  0  0  0  0  0  0
    9.2154   -2.8210   22.1816 S   0  0  0  0  0  0  0  0  0  0  0  0
    7.4172   -2.8213   22.4591 C   0  0  2  0  0  0  0  0  0  0  0  0
    7.0673   -3.8560   22.5088 H   0  0  0  0  0  0  0  0  0  0  0  0
    6.7353   -2.0913   21.2955 C   0  0  0  0  0  0  0  0  0  0  0  0
    6.7788   -2.7116   20.3911 H   0  0  0  0  0  0  0  0  0  0  0  0
    5.6675   -1.9522   21.5157 H   0  0  0  0  0  0  0  0  0  0  0  0
    7.2447   -2.0859   23.7974 C   0  0  0  0  0  0  0  0  0  0  0  0
    7.3301   -2.8032   24.6169 H   0  0  0  0  0  0  0  0  0  0  0  0
    6.2480   -1.6420   23.8569 H   0  0  0  0  0  0  0  0  0  0  0  0
    8.3522   -1.0092   23.9085 C   0  0  0  0  0  0  0  0  0  0  0  0
    9.0028   -1.2331   24.7569 H   0  0  0  0  0  0  0  0  0  0  0  0
    7.9386   -0.0084   24.0668 H   0  0  0  0  0  0  0  0  0  0  0  0
    5.4335    0.6475   20.1571 C   0  0  0  0  0  0  0  0  0  0  0  0
    5.0049    0.6234   21.1666 H   0  0  0  0  0  0  0  0  0  0  0  0
    4.8029    1.3143   19.1052 C   0  0  0  0  0  0  0  0  0  0  0  0
    3.8685    1.8471   19.2610 H   0  0  0  0  0  0  0  0  0  0  0  0
  1  2  1  0
  2  3  2  0
  3  4  1  0
  4  5  1  0
  4  6  2  0
  6  7  1  0
  7  8  2  0
  8  9  1  0
  9 10  1  0
  9 11  1  0
  9 12  1  0
 12 13  2  0
 13 14  1  0
 13 15  1  0
 15 16  1  0
 15 17  2  0
 17 18  1  0
 17 19  1  0
 19 20  1  0
 19 21  2  0
 21 22  1  0
  8 23  1  0
 23 24  1  1
 23 25  1  0
 25 26  1  0
 26 27  1  1
 26 28  1  0
 28 29  1  0
 28 30  1  0
 26 31  1  0
 31 32  1  0
 31 33  1  0
 31 34  1  0
 34 35  1  0
 34 36  1  0
  6 37  1  0
 37 38  1  0
 37 39  2  0
 39 40  1  0
 39  2  1  0
 28  7  1  0
 21 12  1  0
 34 23  1  0
M  END
>  <cnnaffinity>  (1) 
-6.06892

>  <filename>  (1) 
Clc1ccccc1CC1=C(c2cccnc2)C[C@@H]2CC[C@H]1S2

$$$$
