
     RDKit          3D

 28 30  0  0  0  0  0  0  0  0999 V2000
    4.9153    1.7835   16.9911 H   0  0  0  0  0  0  0  0  0  0  0  0
    5.3987    1.2962   17.8329 C   0  0  0  0  0  0  0  0  0  0  0  0
    6.5613    0.6767   17.5689 N   0  0  0  0  0  0  0  0  0  0  0  0
    7.1683    0.0721   18.5957 C   0  0  0  0  0  0  0  0  0  0  0  0
    8.1103   -0.4256   18.3690 H   0  0  0  0  0  0  0  0  0  0  0  0
    6.6569    0.0113   19.9029 C   0  0  0  0  0  0  0  0  0  0  0  0
    7.3824   -0.7110   20.9778 C   0  0  0  0  0  0  0  0  0  0  0  0
    8.7685   -0.5441   21.1264 C   0  0  0  0  0  0  0  0  0  0  0  0
    9.3004    0.1260   20.4548 H   0  0  0  0  0  0  0  0  0  0  0  0
    9.4384   -1.2098   22.1543 C   0  0  0  0  0  0  0  0  0  0  0  0
   10.5133   -1.0768   22.2688 H   0  0  0  0  0  0  0  0  0  0  0  0
    8.7317   -2.0489   23.0224 C   0  0  0  0  0  0  0  0  0  0  0  0
    9.2732   -2.5485   23.8167 H   0  0  0  0  0  0  0  0  0  0  0  0
    7.3385   -2.2448   22.8898 C   0  0  0  0  0  0  0  0  0  0  0  0
    6.6069   -3.1440   23.8151 C   0  0  0  0  0  0  0  0  0  0  0  0
    4.8736   -3.1889   23.9065 S   0  0  0  0  0  0  0  0  0  0  0  0
    4.9082   -4.3866   25.1302 C   0  0  0  0  0  0  0  0  0  0  0  0
    3.4554   -4.9882   25.8080 Cl  0  0  0  0  0  0  0  0  0  0  0  0
    6.1753   -4.7726   25.4481 C   0  0  0  0  0  0  0  0  0  0  0  0
    6.3992   -5.5336   26.1864 H   0  0  0  0  0  0  0  0  0  0  0  0
    7.1378   -4.0573   24.6889 C   0  0  0  0  0  0  0  0  0  0  0  0
    8.2032   -4.2307   24.7796 H   0  0  0  0  0  0  0  0  0  0  0  0
    6.6841   -1.5562   21.8536 C   0  0  0  0  0  0  0  0  0  0  0  0
    5.6161   -1.6782   21.6920 H   0  0  0  0  0  0  0  0  0  0  0  0
    5.4318    0.6506   20.1507 C   0  0  0  0  0  0  0  0  0  0  0  0
    5.0115    0.6325   21.1619 H   0  0  0  0  0  0  0  0  0  0  0  0
    4.8036    1.3168   19.1005 C   0  0  0  0  0  0  0  0  0  0  0  0
    3.8698    1.8466   19.2553 H   0  0  0  0  0  0  0  0  0  0  0  0
  1  2  1  0
  2  3  2  0
  3  4  1  0
  4  5  1  0
  4  6  2  0
  6  7  1  0
  7  8  2  0
  8  9  1  0
  8 10  1  0
 10 11  1  0
 10 12  2  0
 12 13  1  0
 12 14  1  0
 14 15  1  0
 15 16  1  0
 16 17  1  0
 17 18  1  0
 17 19  2  0
 19 20  1  0
 19 21  1  0
 21 22  1  0
 14 23  2  0
 23 24  1  0
  6 25  1  0
 25 26  1  0
 25 27  2  0
 27 28  1  0
 27  2  1  0
 23  7  1  0
 21 15  2  0
M  END
>  <cnnaffinity>  (1) 
-4.81482

>  <filename>  (1) 
Clc1ccc(-c2cccc(-c3cccnc3)c2)s1

$$$$
