
     RDKit          3D

 37 40  0  0  0  0  0  0  0  0999 V2000
    6.4058    3.9080   21.4383 Cl  0  0  0  0  0  0  0  0  0  0  0  0
    5.9416    2.8697   22.7577 C   0  0  0  0  0  0  0  0  0  0  0  0
    4.7733    3.2319   23.4363 C   0  0  0  0  0  0  0  0  0  0  0  0
    4.3448    2.4635   24.5159 C   0  0  0  0  0  0  0  0  0  0  0  0
    5.0834    1.3436   24.9098 C   0  0  0  0  0  0  0  0  0  0  0  0
    6.2412    0.9912   24.2149 C   0  0  0  0  0  0  0  0  0  0  0  0
    6.6892    1.7328   23.1114 C   0  0  0  0  0  0  0  0  0  0  0  0
    7.9547    1.2846   22.3949 C   0  0  0  0  0  0  0  0  0  0  0  0
    7.9419   -0.1187   22.0068 N   0  0  0  0  0  0  0  0  0  0  0  0
    8.5454   -1.0674   22.7590 N   0  0  0  0  0  0  0  0  0  0  0  0
    8.3007   -2.1727   22.0765 C   0  0  0  0  0  0  0  0  0  0  0  0
    8.7503   -3.4940   22.5517 C   0  0  0  0  0  0  0  0  0  0  0  0
    7.7741   -4.6403   22.6613 C   0  0  0  0  0  0  0  0  0  0  0  0
    8.3452   -4.0124   23.9023 C   0  0  0  0  0  0  0  0  0  0  0  0
    9.1053   -4.5610   24.4557 H   0  0  0  0  0  0  0  0  0  0  0  0
    7.7338   -3.3433   24.5038 H   0  0  0  0  0  0  0  0  0  0  0  0
    8.0842   -5.6437   22.3736 H   0  0  0  0  0  0  0  0  0  0  0  0
    6.7384   -4.4103   22.4059 H   0  0  0  0  0  0  0  0  0  0  0  0
    9.7871   -3.6311   22.2914 H   0  0  0  0  0  0  0  0  0  0  0  0
    7.6468   -1.9905   20.9029 N   0  0  0  0  0  0  0  0  0  0  0  0
    7.3934   -0.7011   20.9149 C   0  0  0  0  0  0  0  0  0  0  0  0
    6.6416    0.0234   19.8963 C   0  0  0  0  0  0  0  0  0  0  0  0
    5.4250    0.6648   20.1568 C   0  0  0  0  0  0  0  0  0  0  0  0
    4.7969    1.3181   19.0994 C   0  0  0  0  0  0  0  0  0  0  0  0
    5.4035    1.2940   17.8371 C   0  0  0  0  0  0  0  0  0  0  0  0
    6.5639    0.6724   17.5798 N   0  0  0  0  0  0  0  0  0  0  0  0
    7.1611    0.0469   18.5978 C   0  0  0  0  0  0  0  0  0  0  0  0
    8.1088   -0.4427   18.3829 H   0  0  0  0  0  0  0  0  0  0  0  0
    4.9273    1.7846   16.9911 H   0  0  0  0  0  0  0  0  0  0  0  0
    3.8633    1.8482   19.2440 H   0  0  0  0  0  0  0  0  0  0  0  0
    4.9952    0.6308   21.1587 H   0  0  0  0  0  0  0  0  0  0  0  0
    8.8201    1.4103   23.0501 H   0  0  0  0  0  0  0  0  0  0  0  0
    8.1158    1.8766   21.4948 H   0  0  0  0  0  0  0  0  0  0  0  0
    6.8206    0.1215   24.5123 H   0  0  0  0  0  0  0  0  0  0  0  0
    4.7642    0.7463   25.7572 H   0  0  0  0  0  0  0  0  0  0  0  0
    3.4461    2.7513   25.0525 H   0  0  0  0  0  0  0  0  0  0  0  0
    4.2341    4.1158   23.1037 H   0  0  0  0  0  0  0  0  0  0  0  0
  1  2  1  0
  2  3  2  0
  3  4  1  0
  4  5  2  0
  5  6  1  0
  6  7  2  0
  7  8  1  0
  8  9  1  0
  9 10  1  0
 10 11  2  0
 11 12  1  0
 12 13  1  0
 13 14  1  0
 14 15  1  0
 14 16  1  0
 13 17  1  0
 13 18  1  0
 12 19  1  0
 11 20  1  0
 20 21  2  0
 21 22  1  0
 22 23  2  0
 23 24  1  0
 24 25  2  0
 25 26  1  0
 26 27  2  0
 27 28  1  0
 25 29  1  0
 24 30  1  0
 23 31  1  0
  8 32  1  0
  8 33  1  0
  6 34  1  0
  5 35  1  0
  4 36  1  0
  3 37  1  0
  7  2  1  0
 21  9  1  0
 27 22  1  0
 14 12  1  0
M  END
>  <cnnaffinity>  (1) 
-5.36239

>  <filename>  (1) 
Clc1ccccc1Cn1nc(C2CC2)nc1-c1cccnc1

$$$$
