
     RDKit          3D

 27 29  0  0  0  0  0  0  0  0999 V2000
    9.1246   -3.0999   22.7871 H   0  0  0  0  0  0  0  0  0  0  0  0
    8.5821   -2.2491   22.4067 C   0  0  0  0  0  0  0  0  0  0  0  0
    8.2084   -1.2326   23.1128 N   0  0  0  0  0  0  0  0  0  0  0  0
    7.5543   -0.3210   22.3132 C   0  0  0  0  0  0  0  0  0  0  0  0
    7.0900    0.9527   22.8862 C   0  0  0  0  0  0  0  0  0  0  0  0
    6.1625    0.9219   23.9384 C   0  0  0  0  0  0  0  0  0  0  0  0
    5.8396   -0.0440   24.3174 H   0  0  0  0  0  0  0  0  0  0  0  0
    5.6655    2.0964   24.4887 C   0  0  0  0  0  0  0  0  0  0  0  0
    4.9608    2.0481   25.3106 H   0  0  0  0  0  0  0  0  0  0  0  0
    6.0842    3.3340   23.9974 C   0  0  0  0  0  0  0  0  0  0  0  0
    5.7081    4.2587   24.4200 H   0  0  0  0  0  0  0  0  0  0  0  0
    7.0079    3.3918   22.9523 C   0  0  0  0  0  0  0  0  0  0  0  0
    7.5015    4.9570   22.3908 Cl  0  0  0  0  0  0  0  0  0  0  0  0
    7.5203    2.2062   22.3961 C   0  0  0  0  0  0  0  0  0  0  0  0
    8.7052    2.2967   21.1390 Cl  0  0  0  0  0  0  0  0  0  0  0  0
    7.3827   -0.6927   20.9890 C   0  0  0  0  0  0  0  0  0  0  0  0
    6.6649    0.0012   19.9040 C   0  0  0  0  0  0  0  0  0  0  0  0
    7.1680    0.0569   18.5847 C   0  0  0  0  0  0  0  0  0  0  0  0
    8.1193   -0.4225   18.3657 H   0  0  0  0  0  0  0  0  0  0  0  0
    6.5652    0.6809   17.5684 N   0  0  0  0  0  0  0  0  0  0  0  0
    5.4011    1.2957   17.8367 C   0  0  0  0  0  0  0  0  0  0  0  0
    4.9159    1.7841   16.9950 H   0  0  0  0  0  0  0  0  0  0  0  0
    4.8062    1.3089   19.1037 C   0  0  0  0  0  0  0  0  0  0  0  0
    3.8736    1.8435   19.2574 H   0  0  0  0  0  0  0  0  0  0  0  0
    5.4458    0.6508   20.1577 C   0  0  0  0  0  0  0  0  0  0  0  0
    5.0177    0.6306   21.1628 H   0  0  0  0  0  0  0  0  0  0  0  0
    8.1451   -2.2094   20.7640 S   0  0  0  0  0  0  0  0  0  0  0  0
  1  2  1  0
  2  3  2  0
  3  4  1  0
  4  5  1  0
  5  6  2  0
  6  7  1  0
  6  8  1  0
  8  9  1  0
  8 10  2  0
 10 11  1  0
 10 12  1  0
 12 13  1  0
 12 14  2  0
 14 15  1  0
  4 16  2  0
 16 17  1  0
 17 18  2  0
 18 19  1  0
 18 20  1  0
 20 21  2  0
 21 22  1  0
 21 23  1  0
 23 24  1  0
 23 25  2  0
 25 26  1  0
 16 27  1  0
 27  2  1  0
 14  5  1  0
 25 17  1  0
M  END
>  <cnnaffinity>  (1) 
-4.76807

>  <filename>  (1) 
Clc1cccc(-c2ncsc2-c2cccnc2)c1Cl

$$$$
