
     RDKit          3D

 37 39  0  0  0  0  0  0  0  0999 V2000
    6.3287   -2.1118   23.7758 H   0  0  0  0  0  0  0  0  0  0  0  0
    7.0855   -1.7832   23.0661 C   0  0  0  0  0  0  0  0  0  0  0  0
    8.3245   -1.4642   23.4523 C   0  0  0  0  0  0  0  0  0  0  0  0
    8.7143   -1.4627   24.9184 C   0  0  0  0  0  0  0  0  0  0  0  0
    8.0125   -0.8280   25.4794 H   0  0  0  0  0  0  0  0  0  0  0  0
    9.6965   -0.9891   25.0304 H   0  0  0  0  0  0  0  0  0  0  0  0
    8.7057   -2.8631   25.5318 C   0  0  0  0  0  0  0  0  0  0  0  0
    7.5863   -3.3255   26.2514 C   0  0  0  0  0  0  0  0  0  0  0  0
    6.7301   -2.6581   26.3648 H   0  0  0  0  0  0  0  0  0  0  0  0
    7.5310   -4.6178   26.7885 C   0  0  0  0  0  0  0  0  0  0  0  0
    6.6373   -4.9508   27.3187 H   0  0  0  0  0  0  0  0  0  0  0  0
    8.6218   -5.4818   26.6260 C   0  0  0  0  0  0  0  0  0  0  0  0
    8.5971   -6.4919   27.0390 H   0  0  0  0  0  0  0  0  0  0  0  0
    9.7358   -5.0559   25.8943 C   0  0  0  0  0  0  0  0  0  0  0  0
   10.5993   -5.6952   25.7361 H   0  0  0  0  0  0  0  0  0  0  0  0
    9.7415   -3.7861   25.3088 C   0  0  0  0  0  0  0  0  0  0  0  0
   11.0322   -3.4396   24.1820 Cl  0  0  0  0  0  0  0  0  0  0  0  0
    9.3289   -1.1478   22.3564 C   0  0  0  0  0  0  0  0  0  0  0  0
   10.2300   -0.6797   22.7669 H   0  0  0  0  0  0  0  0  0  0  0  0
    9.6506   -2.0852   21.8753 H   0  0  0  0  0  0  0  0  0  0  0  0
    8.6972   -0.2279   21.2996 C   0  0  0  0  0  0  0  0  0  0  0  0
    9.3477   -0.1482   20.4119 H   0  0  0  0  0  0  0  0  0  0  0  0
    8.6081    0.7896   21.7207 H   0  0  0  0  0  0  0  0  0  0  0  0
    7.3785   -0.7130   20.8768 N   0  0  0  0  0  0  0  0  0  0  0  0
    6.6857   -0.0073   19.8752 C   0  0  0  0  0  0  0  0  0  0  0  0
    7.1796    0.0794   18.5488 C   0  0  0  0  0  0  0  0  0  0  0  0
    8.1248   -0.4076   18.3169 H   0  0  0  0  0  0  0  0  0  0  0  0
    6.5549    0.7006   17.5384 N   0  0  0  0  0  0  0  0  0  0  0  0
    5.3892    1.3091   17.8137 C   0  0  0  0  0  0  0  0  0  0  0  0
    4.9157    1.8164   16.9791 H   0  0  0  0  0  0  0  0  0  0  0  0
    4.8059    1.3095   19.0885 C   0  0  0  0  0  0  0  0  0  0  0  0
    3.8680    1.8352   19.2466 H   0  0  0  0  0  0  0  0  0  0  0  0
    5.4568    0.6356   20.1329 C   0  0  0  0  0  0  0  0  0  0  0  0
    5.0593    0.5998   21.1466 H   0  0  0  0  0  0  0  0  0  0  0  0
    6.7165   -1.7966   21.6070 C   0  0  0  0  0  0  0  0  0  0  0  0
    7.0090   -2.7742   21.1741 H   0  0  0  0  0  0  0  0  0  0  0  0
    5.6303   -1.7210   21.4845 H   0  0  0  0  0  0  0  0  0  0  0  0
  1  2  1  0
  2  3  2  0
  3  4  1  0
  4  5  1  0
  4  6  1  0
  4  7  1  0
  7  8  2  0
  8  9  1  0
  8 10  1  0
 10 11  1  0
 10 12  2  0
 12 13  1  0
 12 14  1  0
 14 15  1  0
 14 16  2  0
 16 17  1  0
  3 18  1  0
 18 19  1  0
 18 20  1  0
 18 21  1  0
 21 22  1  0
 21 23  1  0
 21 24  1  0
 24 25  1  0
 25 26  2  0
 26 27  1  0
 26 28  1  0
 28 29  2  0
 29 30  1  0
 29 31  1  0
 31 32  1  0
 31 33  2  0
 33 34  1  0
 24 35  1  0
 35 36  1  0
 35 37  1  0
 35  2  1  0
 16  7  1  0
 33 25  1  0
M  END
>  <cnnaffinity>  (1) 
-5.87118

>  <filename>  (1) 
Clc1ccccc1CC1=CCN(c2cccnc2)CC1

$$$$
