
     RDKit          3D

 29 31  0  0  0  0  0  0  0  0999 V2000
    5.0258    1.8104   16.8783 H   0  0  0  0  0  0  0  0  0  0  0  0
    5.4331    1.3160   17.7580 C   0  0  0  0  0  0  0  0  0  0  0  0
    6.5918    0.6625   17.5865 N   0  0  0  0  0  0  0  0  0  0  0  0
    7.1076    0.0357   18.6474 C   0  0  0  0  0  0  0  0  0  0  0  0
    8.0531   -0.4795   18.4957 H   0  0  0  0  0  0  0  0  0  0  0  0
    6.4987    0.0201   19.9095 C   0  0  0  0  0  0  0  0  0  0  0  0
    7.1865   -0.6888   20.9855 C   0  0  0  0  0  0  0  0  0  0  0  0
    6.7384   -0.7550   22.2088 N   0  0  0  0  0  0  0  0  0  0  0  0
    7.7372   -1.4383   22.8794 O   0  0  0  0  0  0  0  0  0  0  0  0
    8.6894   -1.7139   21.9905 C   0  0  0  0  0  0  0  0  0  0  0  0
    9.9408   -2.3527   22.4953 C   0  0  0  0  0  0  0  0  0  0  0  0
   10.4477   -2.7917   21.6397 H   0  0  0  0  0  0  0  0  0  0  0  0
    9.6703   -3.1616   23.1827 H   0  0  0  0  0  0  0  0  0  0  0  0
   10.8626   -1.3458   23.1726 C   0  0  0  0  0  0  0  0  0  0  0  0
   10.5324   -0.8177   24.4369 C   0  0  0  0  0  0  0  0  0  0  0  0
    9.5975   -1.1141   24.9134 H   0  0  0  0  0  0  0  0  0  0  0  0
   11.3776    0.0899   25.0785 C   0  0  0  0  0  0  0  0  0  0  0  0
   11.1502    0.4417   26.0836 H   0  0  0  0  0  0  0  0  0  0  0  0
   12.5427    0.5294   24.4438 C   0  0  0  0  0  0  0  0  0  0  0  0
   13.1927    1.2399   24.9482 H   0  0  0  0  0  0  0  0  0  0  0  0
   12.8515    0.0857   23.1564 C   0  0  0  0  0  0  0  0  0  0  0  0
   13.7064    0.4883   22.6200 H   0  0  0  0  0  0  0  0  0  0  0  0
   12.0327   -0.8726   22.5474 C   0  0  0  0  0  0  0  0  0  0  0  0
   12.4957   -1.4289   20.9564 Cl  0  0  0  0  0  0  0  0  0  0  0  0
    8.4079   -1.3055   20.7910 N   0  0  0  0  0  0  0  0  0  0  0  0
    5.2961    0.7231   20.0878 C   0  0  0  0  0  0  0  0  0  0  0  0
    4.8163    0.7708   21.0685 H   0  0  0  0  0  0  0  0  0  0  0  0
    4.7550    1.3713   18.9816 C   0  0  0  0  0  0  0  0  0  0  0  0
    3.8279    1.9286   19.0535 H   0  0  0  0  0  0  0  0  0  0  0  0
  1  2  1  0
  2  3  2  0
  3  4  1  0
  4  5  1  0
  4  6  2  0
  6  7  1  0
  7  8  2  0
  8  9  1  0
  9 10  1  0
 10 11  1  0
 11 12  1  0
 11 13  1  0
 11 14  1  0
 14 15  2  0
 15 16  1  0
 15 17  1  0
 17 18  1  0
 17 19  2  0
 19 20  1  0
 19 21  1  0
 21 22  1  0
 21 23  2  0
 23 24  1  0
 10 25  2  0
  6 26  1  0
 26 27  1  0
 26 28  2  0
 28 29  1  0
 28  2  1  0
 25  7  1  0
 23 14  1  0
M  END
>  <cnnaffinity>  (1) 
-5.36523

>  <filename>  (1) 
Clc1ccccc1Cc1nc(-c2cccnc2)no1

$$$$
