
     RDKit          3D

 27 28  0  0  0  0  0  0  0  0999 V2000
    4.9676    1.7553   16.9121 H   0  0  0  0  0  0  0  0  0  0  0  0
    5.3945    1.3048   17.8075 C   0  0  0  0  0  0  0  0  0  0  0  0
    6.5793    0.6923   17.6569 N   0  0  0  0  0  0  0  0  0  0  0  0
    7.1335    0.1465   18.7457 C   0  0  0  0  0  0  0  0  0  0  0  0
    8.0877   -0.3565   18.5885 H   0  0  0  0  0  0  0  0  0  0  0  0
    6.5609    0.1794   20.0275 C   0  0  0  0  0  0  0  0  0  0  0  0
    7.2507   -0.4806   21.2011 C   0  0  2  0  0  0  0  0  0  0  0  0
    6.7507   -0.2284   22.1412 H   0  0  0  0  0  0  0  0  0  0  0  0
    8.9186    0.1989   21.3279 Cl  0  0  0  0  0  0  0  0  0  0  0  0
    7.2975   -2.0086   21.0142 C   0  0  0  0  0  0  0  0  0  0  0  0
    8.0078   -2.1546   20.2041 H   0  0  0  0  0  0  0  0  0  0  0  0
    6.3227   -2.3162   20.6336 H   0  0  0  0  0  0  0  0  0  0  0  0
    7.7234   -2.8507   22.1963 C   0  0  0  0  0  0  0  0  0  0  0  0
    9.0997   -3.0122   22.4120 C   0  0  0  0  0  0  0  0  0  0  0  0
    9.7883   -2.5454   21.7111 H   0  0  0  0  0  0  0  0  0  0  0  0
    9.5822   -3.7166   23.5135 C   0  0  0  0  0  0  0  0  0  0  0  0
   10.6517   -3.8403   23.6589 H   0  0  0  0  0  0  0  0  0  0  0  0
    8.6894   -4.2444   24.4449 C   0  0  0  0  0  0  0  0  0  0  0  0
    9.0536   -4.7357   25.3432 H   0  0  0  0  0  0  0  0  0  0  0  0
    7.3131   -4.1238   24.2375 C   0  0  0  0  0  0  0  0  0  0  0  0
    6.2420   -4.7832   25.4291 Cl  0  0  0  0  0  0  0  0  0  0  0  0
    6.8250   -3.5042   23.0685 C   0  0  0  0  0  0  0  0  0  0  0  0
    5.1331   -3.6228   22.6748 Cl  0  0  0  0  0  0  0  0  0  0  0  0
    5.3161    0.8040   20.1585 C   0  0  0  0  0  0  0  0  0  0  0  0
    4.8208    0.8322   21.1294 H   0  0  0  0  0  0  0  0  0  0  0  0
    4.7214    1.3772   19.0304 C   0  0  0  0  0  0  0  0  0  0  0  0
    3.7638    1.8837   19.0876 H   0  0  0  0  0  0  0  0  0  0  0  0
  1  2  1  0
  2  3  2  0
  3  4  1  0
  4  5  1  0
  4  6  2  0
  6  7  1  0
  7  8  1  1
  7  9  1  0
  7 10  1  0
 10 11  1  0
 10 12  1  0
 10 13  1  0
 13 14  2  0
 14 15  1  0
 14 16  1  0
 16 17  1  0
 16 18  2  0
 18 19  1  0
 18 20  1  0
 20 21  1  0
 20 22  2  0
 22 23  1  0
  6 24  1  0
 24 25  1  0
 24 26  2  0
 26 27  1  0
 26  2  1  0
 22 13  1  0
M  END
>  <cnnaffinity>  (1) 
-5.05419

>  <filename>  (1) 
Clc1cccc(C[C@@H](Cl)c2cccnc2)c1Cl

$$$$
