
     RDKit          3D

 39 42  0  0  0  0  0  0  0  0999 V2000
    4.9358    1.8618   16.9290 H   0  0  0  0  0  0  0  0  0  0  0  0
    5.3981    1.3402   17.7669 C   0  0  0  0  0  0  0  0  0  0  0  0
    6.5615    0.7212   17.5107 N   0  0  0  0  0  0  0  0  0  0  0  0
    7.1581    0.0923   18.5360 C   0  0  0  0  0  0  0  0  0  0  0  0
    8.0861   -0.4206   18.2901 H   0  0  0  0  0  0  0  0  0  0  0  0
    6.6535    0.0223   19.8551 C   0  0  0  0  0  0  0  0  0  0  0  0
    7.3615   -0.7070   20.9430 C   0  0  0  0  0  0  0  0  0  0  0  0
    8.5677   -0.4043   21.4716 C   0  0  0  0  0  0  0  0  0  0  0  0
    9.4371    0.7715   21.0953 C   0  0  0  0  0  0  0  0  0  0  0  0
    9.7434    0.6384   20.0522 H   0  0  0  0  0  0  0  0  0  0  0  0
    8.8245    1.6817   21.1205 H   0  0  0  0  0  0  0  0  0  0  0  0
   10.6552    0.9961   21.9838 C   0  0  0  0  0  0  0  0  0  0  0  0
   10.6176    1.9879   22.9842 C   0  0  0  0  0  0  0  0  0  0  0  0
    9.6996    2.5687   23.1080 H   0  0  0  0  0  0  0  0  0  0  0  0
   11.7391    2.2705   23.7730 C   0  0  0  0  0  0  0  0  0  0  0  0
   11.6717    3.0329   24.5448 H   0  0  0  0  0  0  0  0  0  0  0  0
   12.9511    1.6088   23.5371 C   0  0  0  0  0  0  0  0  0  0  0  0
   13.8535    1.9048   24.0679 H   0  0  0  0  0  0  0  0  0  0  0  0
   13.0115    0.5916   22.5850 C   0  0  0  0  0  0  0  0  0  0  0  0
   13.9400    0.0623   22.3666 H   0  0  0  0  0  0  0  0  0  0  0  0
   11.8471    0.2493   21.8864 C   0  0  0  0  0  0  0  0  0  0  0  0
   11.9554   -1.1986   20.9244 Cl  0  0  0  0  0  0  0  0  0  0  0  0
    8.9575   -1.3501   22.5808 C   0  0  0  0  0  0  0  0  0  0  0  0
    9.1280   -0.7870   23.5067 H   0  0  0  0  0  0  0  0  0  0  0  0
    9.9029   -1.8515   22.3548 H   0  0  0  0  0  0  0  0  0  0  0  0
    7.7975   -2.3307   22.6917 C   0  0  0  0  0  0  0  0  0  0  0  0
    6.7577   -1.9159   21.6381 C   0  0  0  0  0  0  0  0  0  0  0  0
    6.5672   -2.7272   20.9212 H   0  0  0  0  0  0  0  0  0  0  0  0
    5.7934   -1.6728   22.0975 H   0  0  0  0  0  0  0  0  0  0  0  0
    8.0671   -3.7743   23.0152 C   0  0  0  0  0  0  0  0  0  0  0  0
    7.4536   -4.5332   22.5373 H   0  0  0  0  0  0  0  0  0  0  0  0
    9.1004   -4.0787   23.1735 H   0  0  0  0  0  0  0  0  0  0  0  0
    7.4198   -2.8820   24.0379 C   0  0  0  0  0  0  0  0  0  0  0  0
    8.0155   -2.5810   24.8980 H   0  0  0  0  0  0  0  0  0  0  0  0
    6.3669   -3.0294   24.2642 H   0  0  0  0  0  0  0  0  0  0  0  0
    5.4103    0.6510   20.0779 C   0  0  0  0  0  0  0  0  0  0  0  0
    4.9612    0.6282   21.0741 H   0  0  0  0  0  0  0  0  0  0  0  0
    4.7865    1.3249   19.0252 C   0  0  0  0  0  0  0  0  0  0  0  0
    3.8475    1.8492   19.1639 H   0  0  0  0  0  0  0  0  0  0  0  0
  1  2  1  0
  2  3  2  0
  3  4  1  0
  4  5  1  0
  4  6  2  0
  6  7  1  0
  7  8  2  0
  8  9  1  0
  9 10  1  0
  9 11  1  0
  9 12  1  0
 12 13  2  0
 13 14  1  0
 13 15  1  0
 15 16  1  0
 15 17  2  0
 17 18  1  0
 17 19  1  0
 19 20  1  0
 19 21  2  0
 21 22  1  0
  8 23  1  0
 23 24  1  0
 23 25  1  0
 23 26  1  0
 26 27  1  0
 27 28  1  0
 27 29  1  0
 26 30  1  0
 30 31  1  0
 30 32  1  0
 30 33  1  0
 33 34  1  0
 33 35  1  0
  6 36  1  0
 36 37  1  0
 36 38  2  0
 38 39  1  0
 38  2  1  0
 27  7  1  0
 21 12  1  0
 33 26  1  0
M  END
>  <cnnaffinity>  (1) 
-5.97397

>  <filename>  (1) 
Clc1ccccc1CC1=C(c2cccnc2)CC2(CC2)C1

$$$$
