
     RDKit          3D

 24 25  0  0  0  0  0  0  0  0999 V2000
    4.9622    1.7248   16.8739 H   0  0  0  0  0  0  0  0  0  0  0  0
    5.3927    1.3201   17.7883 C   0  0  0  0  0  0  0  0  0  0  0  0
    6.5854    0.7176   17.6623 N   0  0  0  0  0  0  0  0  0  0  0  0
    7.1283    0.2009   18.7718 C   0  0  0  0  0  0  0  0  0  0  0  0
    8.0836   -0.3079   18.6403 H   0  0  0  0  0  0  0  0  0  0  0  0
    6.5426    0.2652   20.0474 C   0  0  0  0  0  0  0  0  0  0  0  0
    7.2266   -0.3769   21.2367 C   0  0  2  0  0  0  0  0  0  0  0  0
    6.7289   -0.1130   22.1772 H   0  0  0  0  0  0  0  0  0  0  0  0
    8.9060    0.2766   21.3488 Cl  0  0  0  0  0  0  0  0  0  0  0  0
    7.2640   -1.9086   21.0659 C   0  0  0  0  0  0  0  0  0  0  0  0
    6.2491   -2.2113   20.7985 H   0  0  0  0  0  0  0  0  0  0  0  0
    7.8893   -2.0832   20.1887 H   0  0  0  0  0  0  0  0  0  0  0  0
    7.7927   -2.7265   22.2094 C   0  0  0  0  0  0  0  0  0  0  0  0
    6.7518   -3.4361   23.4070 S   0  0  0  0  0  0  0  0  0  0  0  0
    8.1130   -4.1231   24.2293 C   0  0  0  0  0  0  0  0  0  0  0  0
    7.9046   -5.0482   25.6670 Cl  0  0  0  0  0  0  0  0  0  0  0  0
    9.2913   -3.8281   23.6198 C   0  0  0  0  0  0  0  0  0  0  0  0
   10.2622   -4.1436   23.9812 H   0  0  0  0  0  0  0  0  0  0  0  0
    9.0974   -3.0301   22.4455 C   0  0  0  0  0  0  0  0  0  0  0  0
    9.8986   -2.6772   21.7997 H   0  0  0  0  0  0  0  0  0  0  0  0
    5.2865    0.8785   20.1506 C   0  0  0  0  0  0  0  0  0  0  0  0
    4.7797    0.9320   21.1129 H   0  0  0  0  0  0  0  0  0  0  0  0
    4.7018    1.4153   18.9968 C   0  0  0  0  0  0  0  0  0  0  0  0
    3.7327    1.9039   19.0269 H   0  0  0  0  0  0  0  0  0  0  0  0
  1  2  1  0
  2  3  2  0
  3  4  1  0
  4  5  1  0
  4  6  2  0
  6  7  1  0
  7  8  1  1
  7  9  1  0
  7 10  1  0
 10 11  1  0
 10 12  1  0
 10 13  1  0
 13 14  1  0
 14 15  1  0
 15 16  1  0
 15 17  2  0
 17 18  1  0
 17 19  1  0
 19 20  1  0
  6 21  1  0
 21 22  1  0
 21 23  2  0
 23 24  1  0
 23  2  1  0
 19 13  2  0
M  END
>  <cnnaffinity>  (1) 
-4.95504

>  <filename>  (1) 
Clc1ccc(C[C@@H](Cl)c2cccnc2)s1

$$$$
