
     RDKit          3D

 29 31  0  0  0  0  0  0  0  0999 V2000
    6.6614    0.8505   22.5155 H   0  0  0  0  0  0  0  0  0  0  0  0
    7.1387   -0.0959   22.2751 C   0  0  0  0  0  0  0  0  0  0  0  0
    7.6678   -0.7871   23.2995 N   0  0  0  0  0  0  0  0  0  0  0  0
    8.3489   -1.9135   22.9811 C   0  0  0  0  0  0  0  0  0  0  0  0
    9.0192   -2.7381   24.0293 C   0  0  0  0  0  0  0  0  0  0  0  0
   10.2973   -3.2691   23.7423 C   0  0  0  0  0  0  0  0  0  0  0  0
   10.8042   -3.0132   22.8164 H   0  0  0  0  0  0  0  0  0  0  0  0
   10.9567   -4.1185   24.6226 C   0  0  0  0  0  0  0  0  0  0  0  0
   11.9154   -4.5195   24.3363 H   0  0  0  0  0  0  0  0  0  0  0  0
   10.3574   -4.4992   25.8227 C   0  0  0  0  0  0  0  0  0  0  0  0
   10.8656   -5.1807   26.5000 H   0  0  0  0  0  0  0  0  0  0  0  0
    9.0908   -4.0056   26.1308 C   0  0  0  0  0  0  0  0  0  0  0  0
    8.5734   -4.3158   27.0313 H   0  0  0  0  0  0  0  0  0  0  0  0
    8.4474   -3.1088   25.2658 C   0  0  0  0  0  0  0  0  0  0  0  0
    6.8922   -2.5315   25.7753 Cl  0  0  0  0  0  0  0  0  0  0  0  0
    8.4837   -2.2914   21.6176 C   0  0  0  0  0  0  0  0  0  0  0  0
    9.0299   -3.1896   21.3668 H   0  0  0  0  0  0  0  0  0  0  0  0
    7.9584   -1.6125   20.5944 N   0  0  0  0  0  0  0  0  0  0  0  0
    7.2315   -0.5200   20.9170 C   0  0  0  0  0  0  0  0  0  0  0  0
    6.5528    0.1664   19.7971 C   0  0  0  0  0  0  0  0  0  0  0  0
    7.0884    0.1191   18.4931 C   0  0  0  0  0  0  0  0  0  0  0  0
    7.9983   -0.4372   18.2836 H   0  0  0  0  0  0  0  0  0  0  0  0
    6.5310    0.7255   17.4408 N   0  0  0  0  0  0  0  0  0  0  0  0
    5.3800    1.3876   17.6376 C   0  0  0  0  0  0  0  0  0  0  0  0
    4.9410    1.8643   16.7637 H   0  0  0  0  0  0  0  0  0  0  0  0
    4.7394    1.4591   18.8774 C   0  0  0  0  0  0  0  0  0  0  0  0
    3.7982    1.9907   18.9707 H   0  0  0  0  0  0  0  0  0  0  0  0
    5.3385    0.8460   19.9755 C   0  0  0  0  0  0  0  0  0  0  0  0
    4.8474    0.8662   20.9479 H   0  0  0  0  0  0  0  0  0  0  0  0
  1  2  1  0
  2  3  2  0
  3  4  1  0
  4  5  1  0
  5  6  2  0
  6  7  1  0
  6  8  1  0
  8  9  1  0
  8 10  2  0
 10 11  1  0
 10 12  1  0
 12 13  1  0
 12 14  2  0
 14 15  1  0
  4 16  2  0
 16 17  1  0
 16 18  1  0
 18 19  2  0
 19 20  1  0
 20 21  2  0
 21 22  1  0
 21 23  1  0
 23 24  2  0
 24 25  1  0
 24 26  1  0
 26 27  1  0
 26 28  2  0
 28 29  1  0
 19  2  1  0
 28 20  1  0
 14  5  1  0
M  END
>  <cnnaffinity>  (1) 
-5.6467

>  <filename>  (1) 
Clc1ccccc1-c1cnc(-c2cccnc2)cn1

$$$$
