
     RDKit          3D

 28 30  0  0  0  0  0  0  0  0999 V2000
    4.9501    1.7938   16.9955 H   0  0  0  0  0  0  0  0  0  0  0  0
    5.4068    1.2825   17.8422 C   0  0  0  0  0  0  0  0  0  0  0  0
    6.5642    0.6477   17.6041 N   0  0  0  0  0  0  0  0  0  0  0  0
    7.1746    0.0413   18.6263 C   0  0  0  0  0  0  0  0  0  0  0  0
    8.1216   -0.4378   18.3827 H   0  0  0  0  0  0  0  0  0  0  0  0
    6.6688    0.0365   19.9429 C   0  0  0  0  0  0  0  0  0  0  0  0
    7.3713   -0.6252   20.9935 N   0  0  0  0  0  0  0  0  0  0  0  0
    7.5896   -0.2652   22.3083 C   0  0  0  0  0  0  0  0  0  0  0  0
    7.1772    1.0353   22.8651 C   0  0  0  0  0  0  0  0  0  0  0  0
    6.2797    1.0448   23.9456 C   0  0  0  0  0  0  0  0  0  0  0  0
    5.9344    0.0882   24.3416 H   0  0  0  0  0  0  0  0  0  0  0  0
    5.8404    2.2506   24.4879 C   0  0  0  0  0  0  0  0  0  0  0  0
    5.1589    2.2393   25.3367 H   0  0  0  0  0  0  0  0  0  0  0  0
    6.2983    3.4601   23.9497 C   0  0  0  0  0  0  0  0  0  0  0  0
    5.9891    4.4170   24.3597 H   0  0  0  0  0  0  0  0  0  0  0  0
    7.1925    3.4643   22.8728 C   0  0  0  0  0  0  0  0  0  0  0  0
    7.7289    4.9947   22.2559 Cl  0  0  0  0  0  0  0  0  0  0  0  0
    7.6447    2.2540   22.3250 C   0  0  0  0  0  0  0  0  0  0  0  0
    8.7944    2.2592   21.0332 Cl  0  0  0  0  0  0  0  0  0  0  0  0
    8.1912   -1.2197   22.9746 N   0  0  0  0  0  0  0  0  0  0  0  0
    8.3904   -2.2378   22.0822 C   0  0  0  0  0  0  0  0  0  0  0  0
    8.8964   -3.1353   22.4109 H   0  0  0  0  0  0  0  0  0  0  0  0
    7.8680   -1.8965   20.8701 C   0  0  0  0  0  0  0  0  0  0  0  0
    7.5724   -2.4116   19.9834 H   0  0  0  0  0  0  0  0  0  0  0  0
    5.4454    0.6699   20.1731 C   0  0  0  0  0  0  0  0  0  0  0  0
    5.0121    0.6583   21.1705 H   0  0  0  0  0  0  0  0  0  0  0  0
    4.8068    1.3080   19.1047 C   0  0  0  0  0  0  0  0  0  0  0  0
    3.8719    1.8418   19.2404 H   0  0  0  0  0  0  0  0  0  0  0  0
  1  2  1  0
  2  3  2  0
  3  4  1  0
  4  5  1  0
  4  6  2  0
  6  7  1  0
  7  8  1  0
  8  9  1  0
  9 10  2  0
 10 11  1  0
 10 12  1  0
 12 13  1  0
 12 14  2  0
 14 15  1  0
 14 16  1  0
 16 17  1  0
 16 18  2  0
 18 19  1  0
  8 20  2  0
 20 21  1  0
 21 22  1  0
 21 23  2  0
 23 24  1  0
  6 25  1  0
 25 26  1  0
 25 27  2  0
 27 28  1  0
 27  2  1  0
 23  7  1  0
 18  9  1  0
M  END
>  <cnnaffinity>  (1) 
-5.32766

>  <filename>  (1) 
Clc1cccc(-c2nccn2-c2cccnc2)c1Cl

$$$$
