
     RDKit          3D

 35 37  0  0  0  0  0  0  0  0999 V2000
    6.3379   -2.7164   20.9906 H   0  0  0  0  0  0  0  0  0  0  0  0
    6.6923   -1.8940   21.6070 C   0  0  0  0  0  0  0  0  0  0  0  0
    6.5693   -1.7859   22.9314 C   0  0  0  0  0  0  0  0  0  0  0  0
    5.9046   -2.7043   23.9329 C   0  0  0  0  0  0  0  0  0  0  0  0
    5.1895   -2.1075   24.5152 H   0  0  0  0  0  0  0  0  0  0  0  0
    5.3164   -3.4706   23.4181 H   0  0  0  0  0  0  0  0  0  0  0  0
    6.8458   -3.3487   24.9334 C   0  0  0  0  0  0  0  0  0  0  0  0
    7.1426   -2.7029   26.1450 C   0  0  0  0  0  0  0  0  0  0  0  0
    6.6519   -1.7674   26.3904 H   0  0  0  0  0  0  0  0  0  0  0  0
    8.0527   -3.2274   27.0589 C   0  0  0  0  0  0  0  0  0  0  0  0
    8.3013   -2.6295   27.9203 H   0  0  0  0  0  0  0  0  0  0  0  0
    8.6514   -4.4667   26.8241 C   0  0  0  0  0  0  0  0  0  0  0  0
    9.3775   -4.8774   27.5241 H   0  0  0  0  0  0  0  0  0  0  0  0
    8.3220   -5.1659   25.6623 C   0  0  0  0  0  0  0  0  0  0  0  0
    8.7013   -6.1618   25.4616 H   0  0  0  0  0  0  0  0  0  0  0  0
    7.4645   -4.5912   24.7200 C   0  0  0  0  0  0  0  0  0  0  0  0
    7.1842   -5.4632   23.2345 Cl  0  0  0  0  0  0  0  0  0  0  0  0
    7.1181   -0.4601   23.4085 C   0  0  0  0  0  0  0  0  0  0  0  0
    7.7890   -0.5908   24.2642 H   0  0  0  0  0  0  0  0  0  0  0  0
    6.2916    0.1677   23.7742 H   0  0  0  0  0  0  0  0  0  0  0  0
    7.8243    0.1489   22.1716 C   0  0  0  0  0  0  0  0  0  0  0  0
    8.9115    0.1032   22.3061 H   0  0  0  0  0  0  0  0  0  0  0  0
    7.5727    1.2072   22.0205 H   0  0  0  0  0  0  0  0  0  0  0  0
    7.4280   -0.7385   20.9499 C   0  0  2  0  0  0  0  0  0  0  0  0
    8.3432   -1.1350   20.4806 H   0  0  0  0  0  0  0  0  0  0  0  0
    6.6714   -0.0157   19.8289 C   0  0  0  0  0  0  0  0  0  0  0  0
    7.1746    0.0290   18.5125 C   0  0  0  0  0  0  0  0  0  0  0  0
    8.1036   -0.4920   18.2736 H   0  0  0  0  0  0  0  0  0  0  0  0
    6.6022    0.6753   17.4907 N   0  0  0  0  0  0  0  0  0  0  0  0
    5.4558    1.3268   17.7460 C   0  0  0  0  0  0  0  0  0  0  0  0
    5.0032    1.8398   16.9013 H   0  0  0  0  0  0  0  0  0  0  0  0
    4.8446    1.3413   19.0056 C   0  0  0  0  0  0  0  0  0  0  0  0
    3.9101    1.8780   19.1438 H   0  0  0  0  0  0  0  0  0  0  0  0
    5.4652    0.6698   20.0593 C   0  0  0  0  0  0  0  0  0  0  0  0
    5.0193    0.6755   21.0555 H   0  0  0  0  0  0  0  0  0  0  0  0
  1  2  1  0
  2  3  2  0
  3  4  1  0
  4  5  1  0
  4  6  1  0
  4  7  1  0
  7  8  2  0
  8  9  1  0
  8 10  1  0
 10 11  1  0
 10 12  2  0
 12 13  1  0
 12 14  1  0
 14 15  1  0
 14 16  2  0
 16 17  1  0
  3 18  1  0
 18 19  1  0
 18 20  1  0
 18 21  1  0
 21 22  1  0
 21 23  1  0
 21 24  1  0
 24 25  1  6
 24 26  1  0
 26 27  2  0
 27 28  1  0
 27 29  1  0
 29 30  2  0
 30 31  1  0
 30 32  1  0
 32 33  1  0
 32 34  2  0
 34 35  1  0
 24  2  1  0
 34 26  1  0
 16  7  1  0
M  END
>  <cnnaffinity>  (1) 
-5.29389

>  <filename>  (1) 
Clc1ccccc1CC1=C[C@@H](c2cccnc2)CC1

$$$$
