
     RDKit          3D

 29 31  0  0  0  0  0  0  0  0999 V2000
    5.1919    2.2069   16.6785 H   0  0  0  0  0  0  0  0  0  0  0  0
    5.5475    1.4816   17.4085 C   0  0  0  0  0  0  0  0  0  0  0  0
    6.5905    0.7255   17.0333 N   0  0  0  0  0  0  0  0  0  0  0  0
    7.0899   -0.1469   17.9197 C   0  0  0  0  0  0  0  0  0  0  0  0
    7.9427   -0.7493   17.6114 H   0  0  0  0  0  0  0  0  0  0  0  0
    6.5741   -0.3033   19.2140 C   0  0  0  0  0  0  0  0  0  0  0  0
    7.2324   -1.1670   20.0740 O   0  0  0  0  0  0  0  0  0  0  0  0
    6.4876   -2.0615   20.7981 C   0  0  0  0  0  0  0  0  0  0  0  0
    5.4750   -2.9538   20.3741 C   0  0  0  0  0  0  0  0  0  0  0  0
    5.0917   -3.1260   19.3764 H   0  0  0  0  0  0  0  0  0  0  0  0
    4.9516   -3.5990   21.4179 N   0  0  0  0  0  0  0  0  0  0  0  0
    5.6482   -3.1636   22.4720 N   0  0  0  0  0  0  0  0  0  0  0  0
    5.4709   -3.5471   23.3939 H   0  0  0  0  0  0  0  0  0  0  0  0
    6.6333   -2.2841   22.1575 C   0  0  0  0  0  0  0  0  0  0  0  0
    7.6937   -1.9437   23.1324 C   0  0  0  0  0  0  0  0  0  0  0  0
    7.6876   -0.7019   23.7810 C   0  0  0  0  0  0  0  0  0  0  0  0
    6.8654   -0.0177   23.5882 H   0  0  0  0  0  0  0  0  0  0  0  0
    8.7337   -0.3424   24.6364 C   0  0  0  0  0  0  0  0  0  0  0  0
    8.7327    0.6344   25.1094 H   0  0  0  0  0  0  0  0  0  0  0  0
    9.7894   -1.2241   24.8741 C   0  0  0  0  0  0  0  0  0  0  0  0
   10.6157   -0.9333   25.5214 H   0  0  0  0  0  0  0  0  0  0  0  0
    9.7724   -2.4952   24.2908 C   0  0  0  0  0  0  0  0  0  0  0  0
   11.0628   -3.6031   24.6196 Cl  0  0  0  0  0  0  0  0  0  0  0  0
    8.7233   -2.8682   23.4355 C   0  0  0  0  0  0  0  0  0  0  0  0
    8.7012   -4.4659   22.7592 Cl  0  0  0  0  0  0  0  0  0  0  0  0
    5.4623    0.4568   19.5931 C   0  0  0  0  0  0  0  0  0  0  0  0
    5.0363    0.3337   20.5896 H   0  0  0  0  0  0  0  0  0  0  0  0
    4.9424    1.3695   18.6649 C   0  0  0  0  0  0  0  0  0  0  0  0
    4.0856    1.9911   18.9027 H   0  0  0  0  0  0  0  0  0  0  0  0
  1  2  1  0
  2  3  2  0
  3  4  1  0
  4  5  1  0
  4  6  2  0
  6  7  1  0
  7  8  1  0
  8  9  1  0
  9 10  1  0
  9 11  2  0
 11 12  1  0
 12 13  1  0
 12 14  1  0
 14 15  1  0
 15 16  2  0
 16 17  1  0
 16 18  1  0
 18 19  1  0
 18 20  2  0
 20 21  1  0
 20 22  1  0
 22 23  1  0
 22 24  2  0
 24 25  1  0
  6 26  1  0
 26 27  1  0
 26 28  2  0
 28 29  1  0
 28  2  1  0
 14  8  2  0
 24 15  1  0
M  END
>  <cnnaffinity>  (1) 
-5.88175

>  <filename>  (1) 
Clc1cccc(-c2[nH]ncc2Oc2cccnc2)c1Cl

$$$$
