
     RDKit          3D

 25 26  0  0  0  0  0  0  0  0999 V2000
    6.0955   -0.6902   22.0172 H   0  0  0  0  0  0  0  0  0  0  0  0
    6.8717   -0.2942   21.3646 C   0  0  0  0  0  0  0  0  0  0  0  0
    8.1802   -0.4283   21.7737 C   0  0  0  0  0  0  0  0  0  0  0  0
    9.6242    0.3229   20.7647 Br  0  0  0  0  0  0  0  0  0  0  0  0
    8.4454   -1.1505   23.0113 C   0  0  0  0  0  0  0  0  0  0  0  0
    7.5217   -1.0290   24.0540 C   0  0  0  0  0  0  0  0  0  0  0  0
    6.6670   -0.3778   23.8931 H   0  0  0  0  0  0  0  0  0  0  0  0
    7.7096   -1.7184   25.2509 C   0  0  0  0  0  0  0  0  0  0  0  0
    7.0071   -1.5663   26.0652 H   0  0  0  0  0  0  0  0  0  0  0  0
    8.7998   -2.5879   25.3842 C   0  0  0  0  0  0  0  0  0  0  0  0
    8.9654   -3.1452   26.3014 H   0  0  0  0  0  0  0  0  0  0  0  0
    9.7193   -2.7297   24.3369 C   0  0  0  0  0  0  0  0  0  0  0  0
   11.0536   -3.8370   24.5167 Cl  0  0  0  0  0  0  0  0  0  0  0  0
    9.5633   -1.9882   23.1570 C   0  0  0  0  0  0  0  0  0  0  0  0
   10.7249   -2.1298   21.8513 Cl  0  0  0  0  0  0  0  0  0  0  0  0
    6.4507    0.3002   20.1044 C   0  0  0  0  0  0  0  0  0  0  0  0
    7.2962    0.3368   18.9840 C   0  0  0  0  0  0  0  0  0  0  0  0
    8.2999   -0.0672   19.0791 H   0  0  0  0  0  0  0  0  0  0  0  0
    6.8883    0.8212   17.7934 N   0  0  0  0  0  0  0  0  0  0  0  0
    5.6324    1.2980   17.6953 C   0  0  0  0  0  0  0  0  0  0  0  0
    5.2939    1.6768   16.7362 H   0  0  0  0  0  0  0  0  0  0  0  0
    4.7340    1.2874   18.7654 C   0  0  0  0  0  0  0  0  0  0  0  0
    3.7293    1.6758   18.6387 H   0  0  0  0  0  0  0  0  0  0  0  0
    5.1490    0.7782   19.9920 C   0  0  0  0  0  0  0  0  0  0  0  0
    4.4838    0.7545   20.8500 H   0  0  0  0  0  0  0  0  0  0  0  0
  1  2  1  0
  2  3  2  3
  3  4  1  0
  3  5  1  0
  5  6  2  0
  6  7  1  0
  6  8  1  0
  8  9  1  0
  8 10  2  0
 10 11  1  0
 10 12  1  0
 12 13  1  0
 12 14  2  0
 14 15  1  0
  2 16  1  0
 16 17  2  0
 17 18  1  0
 17 19  1  0
 19 20  2  0
 20 21  1  0
 20 22  1  0
 22 23  1  0
 22 24  2  0
 24 25  1  0
 14  5  1  0
 24 16  1  0
M  END
>  <cnnaffinity>  (1) 
-4.76701

>  <filename>  (1) 
Clc1cccc(C(Br)=Cc2cccnc2)c1Cl

$$$$
