
     RDKit          3D

 30 32  0  0  0  0  0  0  0  0999 V2000
    4.9670    1.8051   16.9556 H   0  0  0  0  0  0  0  0  0  0  0  0
    5.4139    1.2988   17.8087 C   0  0  0  0  0  0  0  0  0  0  0  0
    6.5688    0.6561   17.5849 N   0  0  0  0  0  0  0  0  0  0  0  0
    7.1328    0.0348   18.6288 C   0  0  0  0  0  0  0  0  0  0  0  0
    8.0801   -0.4665   18.4101 H   0  0  0  0  0  0  0  0  0  0  0  0
    6.5982    0.0180   19.9204 C   0  0  0  0  0  0  0  0  0  0  0  0
    7.3831   -0.7395   20.9855 C   0  0  0  0  0  0  0  0  0  0  0  0
    8.8283   -0.2081   21.1759 C   0  0  0  0  0  0  0  0  0  0  0  0
    9.9565   -1.0049   20.8807 C   0  0  0  0  0  0  0  0  0  0  0  0
    9.8271   -2.0170   20.5169 H   0  0  0  0  0  0  0  0  0  0  0  0
   11.2568   -0.5321   21.0346 C   0  0  0  0  0  0  0  0  0  0  0  0
   12.0952   -1.1814   20.7966 H   0  0  0  0  0  0  0  0  0  0  0  0
   11.4737    0.7757   21.4663 C   0  0  0  0  0  0  0  0  0  0  0  0
   12.4885    1.1438   21.5879 H   0  0  0  0  0  0  0  0  0  0  0  0
   10.3876    1.5997   21.7500 C   0  0  0  0  0  0  0  0  0  0  0  0
   10.5501    2.6301   22.0573 H   0  0  0  0  0  0  0  0  0  0  0  0
    9.0831    1.1014   21.6283 C   0  0  0  0  0  0  0  0  0  0  0  0
    7.7983    2.2105   22.0176 Cl  0  0  0  0  0  0  0  0  0  0  0  0
    6.6820   -0.7185   22.2121 O   0  0  0  0  0  0  0  0  0  0  0  0
    6.7905   -2.0202   22.7782 C   0  0  0  0  0  0  0  0  0  0  0  0
    7.7545   -2.1511   23.3006 H   0  0  0  0  0  0  0  0  0  0  0  0
    5.9654   -2.1523   23.4814 H   0  0  0  0  0  0  0  0  0  0  0  0
    6.7009   -2.8822   21.5350 C   0  0  0  0  0  0  0  0  0  0  0  0
    5.6547   -3.0005   21.2090 H   0  0  0  0  0  0  0  0  0  0  0  0
    7.1765   -3.8653   21.6271 H   0  0  0  0  0  0  0  0  0  0  0  0
    7.4529   -2.1132   20.6046 O   0  0  0  0  0  0  0  0  0  0  0  0
    5.3784    0.6780   20.1295 C   0  0  0  0  0  0  0  0  0  0  0  0
    4.9297    0.7104   21.1224 H   0  0  0  0  0  0  0  0  0  0  0  0
    4.7785    1.3285   19.0529 C   0  0  0  0  0  0  0  0  0  0  0  0
    3.8442    1.8668   19.1660 H   0  0  0  0  0  0  0  0  0  0  0  0
  1  2  1  0
  2  3  2  0
  3  4  1  0
  4  5  1  0
  4  6  2  0
  6  7  1  0
  7  8  1  0
  8  9  2  0
  9 10  1  0
  9 11  1  0
 11 12  1  0
 11 13  2  0
 13 14  1  0
 13 15  1  0
 15 16  1  0
 15 17  2  0
 17 18  1  0
  7 19  1  0
 19 20  1  0
 20 21  1  0
 20 22  1  0
 20 23  1  0
 23 24  1  0
 23 25  1  0
 23 26  1  0
  6 27  1  0
 27 28  1  0
 27 29  2  0
 29 30  1  0
 29  2  1  0
 26  7  1  0
 17  8  1  0
M  END
>  <cnnaffinity>  (1) 
-4.37751

>  <filename>  (1) 
Clc1ccccc1C1(c2cccnc2)OCCO1

$$$$
