
     RDKit          3D

 29 31  0  0  0  0  0  0  0  0999 V2000
    4.8995    1.7888   16.9456 H   0  0  0  0  0  0  0  0  0  0  0  0
    5.3900    1.3410   17.8121 C   0  0  0  0  0  0  0  0  0  0  0  0
    6.5706    0.7369   17.5901 N   0  0  0  0  0  0  0  0  0  0  0  0
    7.1666    0.1502   18.6355 C   0  0  0  0  0  0  0  0  0  0  0  0
    8.1242   -0.3293   18.4334 H   0  0  0  0  0  0  0  0  0  0  0  0
    6.6590    0.1316   19.9547 C   0  0  0  0  0  0  0  0  0  0  0  0
    7.3752   -0.5574   21.0595 C   0  0  0  0  0  0  0  0  0  0  0  0
    7.8111   -1.9222   21.0296 C   0  0  0  0  0  0  0  0  0  0  0  0
    7.5762   -2.5953   20.2176 H   0  0  0  0  0  0  0  0  0  0  0  0
    8.4372   -2.4208   22.0519 N   0  0  0  0  0  0  0  0  0  0  0  0
    8.5119   -1.2442   23.2403 S   0  0  0  0  0  0  0  0  0  0  0  0
    7.6421   -0.0707   22.3159 C   0  0  0  0  0  0  0  0  0  0  0  0
    7.2299    1.1155   22.8346 N   0  0  0  0  0  0  0  0  0  0  0  0
    6.9777    1.8284   22.1664 H   0  0  0  0  0  0  0  0  0  0  0  0
    7.0573    1.4324   24.1870 C   0  0  0  0  0  0  0  0  0  0  0  0
    6.5199    0.5235   25.1091 C   0  0  0  0  0  0  0  0  0  0  0  0
    6.2259   -0.4652   24.7690 H   0  0  0  0  0  0  0  0  0  0  0  0
    6.3979    0.8847   26.4507 C   0  0  0  0  0  0  0  0  0  0  0  0
    6.0150    0.1786   27.1782 H   0  0  0  0  0  0  0  0  0  0  0  0
    6.7909    2.1585   26.8631 C   0  0  0  0  0  0  0  0  0  0  0  0
    6.6545    2.6013   28.5400 Cl  0  0  0  0  0  0  0  0  0  0  0  0
    7.2931    3.0832   25.9457 C   0  0  0  0  0  0  0  0  0  0  0  0
    7.5813    4.0706   26.2823 H   0  0  0  0  0  0  0  0  0  0  0  0
    7.4170    2.7162   24.6032 C   0  0  0  0  0  0  0  0  0  0  0  0
    7.8166    3.4058   23.8694 H   0  0  0  0  0  0  0  0  0  0  0  0
    5.4271    0.7740   20.1569 C   0  0  0  0  0  0  0  0  0  0  0  0
    4.9800    0.7744   21.1533 H   0  0  0  0  0  0  0  0  0  0  0  0
    4.7822    1.3724   19.0710 C   0  0  0  0  0  0  0  0  0  0  0  0
    3.8161    1.8478   19.1832 H   0  0  0  0  0  0  0  0  0  0  0  0
  1  2  1  0
  2  3  2  0
  3  4  1  0
  4  5  1  0
  4  6  2  0
  6  7  1  0
  7  8  1  0
  8  9  1  0
  8 10  2  0
 10 11  1  0
 11 12  1  0
 12 13  1  0
 13 14  1  0
 13 15  1  0
 15 16  2  0
 16 17  1  0
 16 18  1  0
 18 19  1  0
 18 20  2  0
 20 21  1  0
 20 22  1  0
 22 23  1  0
 22 24  2  0
 24 25  1  0
  6 26  1  0
 26 27  1  0
 26 28  2  0
 28 29  1  0
 28  2  1  0
 12  7  2  0
 24 15  1  0
M  END
>  <cnnaffinity>  (1) 
-5.12936

>  <filename>  (1) 
Clc1ccc(Nc2sncc2-c2cccnc2)cc1

$$$$
