
     RDKit          3D

 32 34  0  0  0  0  0  0  0  0999 V2000
    4.9249    1.8112   16.9781 H   0  0  0  0  0  0  0  0  0  0  0  0
    5.3900    1.3027   17.8206 C   0  0  0  0  0  0  0  0  0  0  0  0
    6.5475    0.6792   17.5557 N   0  0  0  0  0  0  0  0  0  0  0  0
    7.1606    0.0627   18.5747 C   0  0  0  0  0  0  0  0  0  0  0  0
    8.1027   -0.4259   18.3307 H   0  0  0  0  0  0  0  0  0  0  0  0
    6.6605    0.0111   19.8917 C   0  0  0  0  0  0  0  0  0  0  0  0
    7.3844   -0.7090   20.9840 C   0  0  0  0  0  0  0  0  0  0  0  0
    8.7728   -0.5868   21.1731 C   0  0  0  0  0  0  0  0  0  0  0  0
    9.3755    0.0544   20.5256 H   0  0  0  0  0  0  0  0  0  0  0  0
    9.4423   -1.2098   22.1544 N   0  0  0  0  0  0  0  0  0  0  0  0
    8.7579   -1.9983   22.9963 C   0  0  0  0  0  0  0  0  0  0  0  0
    9.3475   -2.4906   23.7757 H   0  0  0  0  0  0  0  0  0  0  0  0
    7.3599   -2.2192   22.9011 C   0  0  0  0  0  0  0  0  0  0  0  0
    6.6670   -3.0600   23.7927 N   0  0  0  0  0  0  0  0  0  0  0  0
    6.9616   -3.1101   24.7556 H   0  0  0  0  0  0  0  0  0  0  0  0
    5.5142   -3.7974   23.5208 C   0  0  0  0  0  0  0  0  0  0  0  0
    4.5898   -4.0455   24.5497 C   0  0  0  0  0  0  0  0  0  0  0  0
    4.7918   -3.6390   25.5401 H   0  0  0  0  0  0  0  0  0  0  0  0
    3.4379   -4.8054   24.2972 C   0  0  0  0  0  0  0  0  0  0  0  0
    2.6994   -4.9954   25.0757 H   0  0  0  0  0  0  0  0  0  0  0  0
    3.2630   -5.3701   23.0262 C   0  0  0  0  0  0  0  0  0  0  0  0
    1.8293   -6.2827   22.6535 Cl  0  0  0  0  0  0  0  0  0  0  0  0
    4.2369   -5.2201   22.0370 C   0  0  0  0  0  0  0  0  0  0  0  0
    4.1887   -5.7815   21.1176 H   0  0  0  0  0  0  0  0  0  0  0  0
    5.3219   -4.3787   22.2612 C   0  0  0  0  0  0  0  0  0  0  0  0
    6.0490   -4.1731   21.4823 H   0  0  0  0  0  0  0  0  0  0  0  0
    6.6862   -1.5462   21.8688 C   0  0  0  0  0  0  0  0  0  0  0  0
    5.6165   -1.7054   21.7499 H   0  0  0  0  0  0  0  0  0  0  0  0
    5.4395    0.6547   20.1368 C   0  0  0  0  0  0  0  0  0  0  0  0
    5.0216    0.6444   21.1443 H   0  0  0  0  0  0  0  0  0  0  0  0
    4.7974    1.3188   19.0875 C   0  0  0  0  0  0  0  0  0  0  0  0
    3.8657    1.8501   19.2356 H   0  0  0  0  0  0  0  0  0  0  0  0
  1  2  1  0
  2  3  2  0
  3  4  1  0
  4  5  1  0
  4  6  2  0
  6  7  1  0
  7  8  2  0
  8  9  1  0
  8 10  1  0
 10 11  2  0
 11 12  1  0
 11 13  1  0
 13 14  1  0
 14 15  1  0
 14 16  1  0
 16 17  2  0
 17 18  1  0
 17 19  1  0
 19 20  1  0
 19 21  2  0
 21 22  1  0
 21 23  1  0
 23 24  1  0
 23 25  2  0
 25 26  1  0
 13 27  2  0
 27 28  1  0
  6 29  1  0
 29 30  1  0
 29 31  2  0
 31 32  1  0
 31  2  1  0
 27  7  1  0
 25 16  1  0
M  END
>  <cnnaffinity>  (1) 
-5.48773

>  <filename>  (1) 
Clc1ccc(Nc2cncc(-c3cccnc3)c2)cc1

$$$$
