
     RDKit          3D

 43 46  0  0  0  0  0  0  0  0999 V2000
    3.6502   -6.1353   25.8046 Cl  0  0  0  0  0  0  0  0  0  0  0  0
    3.9690   -4.4527   26.1783 C   0  0  0  0  0  0  0  0  0  0  0  0
    2.8711   -3.6696   26.5498 C   0  0  0  0  0  0  0  0  0  0  0  0
    3.0577   -2.3290   26.8982 C   0  0  0  0  0  0  0  0  0  0  0  0
    4.3461   -1.7856   26.8765 C   0  0  0  0  0  0  0  0  0  0  0  0
    5.4340   -2.5824   26.4994 C   0  0  0  0  0  0  0  0  0  0  0  0
    5.2788   -3.9319   26.1315 C   0  0  0  0  0  0  0  0  0  0  0  0
    6.4670   -4.7675   25.6951 C   0  0  0  0  0  0  0  0  0  0  0  0
    6.5025   -5.1566   24.2114 C   0  0  0  0  0  0  0  0  0  0  0  0
    6.6778   -4.0293   23.2331 N   0  0  0  0  0  4  0  0  0  0  0  0
    5.4315   -3.1696   22.9286 C   0  0  0  0  0  0  0  0  0  0  0  0
    5.6985   -2.4008   21.6286 C   0  0  0  0  0  0  0  0  0  0  0  0
    6.9503   -1.6535   21.7089 N   0  0  0  0  0  0  0  0  0  0  0  0
    8.0095   -2.0248   22.4851 C   0  0  0  0  0  0  0  0  0  0  0  0
    9.0780   -1.3533   22.1589 N   0  0  0  0  0  0  0  0  0  0  0  0
    8.7246   -0.5136   21.1248 N   0  0  0  0  0  0  0  0  0  0  0  0
    7.4539   -0.6851   20.8832 C   0  0  0  0  0  0  0  0  0  0  0  0
    6.6501    0.0276   19.8846 C   0  0  0  0  0  0  0  0  0  0  0  0
    5.4292    0.6775   20.1399 C   0  0  0  0  0  0  0  0  0  0  0  0
    4.7901    1.3294   19.0853 C   0  0  0  0  0  0  0  0  0  0  0  0
    5.3845    1.3017   17.8208 C   0  0  0  0  0  0  0  0  0  0  0  0
    6.5453    0.6767   17.5693 N   0  0  0  0  0  0  0  0  0  0  0  0
    7.1631    0.0779   18.5849 C   0  0  0  0  0  0  0  0  0  0  0  0
    8.1200   -0.3941   18.3661 H   0  0  0  0  0  0  0  0  0  0  0  0
    4.9253    1.8078   16.9732 H   0  0  0  0  0  0  0  0  0  0  0  0
    3.8567    1.8666   19.2229 H   0  0  0  0  0  0  0  0  0  0  0  0
    4.9951    0.6903   21.1413 H   0  0  0  0  0  0  0  0  0  0  0  0
    7.8633   -3.0759   23.5482 C   0  0  0  0  0  0  0  0  0  0  0  0
    8.8058   -3.6180   23.6291 H   0  0  0  0  0  0  0  0  0  0  0  0
    7.6649   -2.5936   24.5107 H   0  0  0  0  0  0  0  0  0  0  0  0
    4.9238   -1.6711   21.4298 H   0  0  0  0  0  0  0  0  0  0  0  0
    5.7496   -3.1146   20.8002 H   0  0  0  0  0  0  0  0  0  0  0  0
    4.5456   -3.8062   22.8404 H   0  0  0  0  0  0  0  0  0  0  0  0
    5.2607   -2.4717   23.7486 H   0  0  0  0  0  0  0  0  0  0  0  0
    6.9069   -4.4687   22.3103 H   0  0  0  0  0  0  0  0  0  0  0  0
    5.5935   -5.7094   23.9617 H   0  0  0  0  0  0  0  0  0  0  0  0
    7.3324   -5.8588   24.0826 H   0  0  0  0  0  0  0  0  0  0  0  0
    7.4053   -4.2610   25.9453 H   0  0  0  0  0  0  0  0  0  0  0  0
    6.4808   -5.7065   26.2552 H   0  0  0  0  0  0  0  0  0  0  0  0
    6.4315   -2.1446   26.4872 H   0  0  0  0  0  0  0  0  0  0  0  0
    4.5079   -0.7477   27.1571 H   0  0  0  0  0  0  0  0  0  0  0  0
    2.2062   -1.7174   27.1969 H   0  0  0  0  0  0  0  0  0  0  0  0
    1.8880   -4.1306   26.5646 H   0  0  0  0  0  0  0  0  0  0  0  0
  1  2  1  0
  2  3  2  0
  3  4  1  0
  4  5  2  0
  5  6  1  0
  6  7  2  0
  7  8  1  0
  8  9  1  0
  9 10  1  0
 10 11  1  0
 11 12  1  0
 12 13  1  0
 13 14  1  0
 14 15  2  0
 15 16  1  0
 16 17  2  0
 17 18  1  0
 18 19  2  0
 19 20  1  0
 20 21  2  0
 21 22  1  0
 22 23  2  0
 23 24  1  0
 21 25  1  0
 20 26  1  0
 19 27  1  0
 14 28  1  0
 28 29  1  0
 28 30  1  0
 12 31  1  0
 12 32  1  0
 11 33  1  0
 11 34  1  0
 10 35  1  0
  9 36  1  0
  9 37  1  0
  8 38  1  0
  8 39  1  0
  6 40  1  0
  5 41  1  0
  4 42  1  0
  3 43  1  0
  7  2  1  0
 28 10  1  0
 17 13  1  0
 23 18  1  0
M  CHG  1  10   1
M  END
>  <cnnaffinity>  (1) 
-5.22086

>  <filename>  (1) 
Clc1ccccc1CC[NH+]1CCn2c(nnc2-c2cccnc2)C1

$$$$
