
     RDKit          3D

 31 33  0  0  0  0  0  0  0  0999 V2000
    4.9209    1.7881   16.9905 H   0  0  0  0  0  0  0  0  0  0  0  0
    5.3993    1.2944   17.8312 C   0  0  0  0  0  0  0  0  0  0  0  0
    6.5622    0.6729   17.5737 N   0  0  0  0  0  0  0  0  0  0  0  0
    7.1731    0.0548   18.5961 C   0  0  0  0  0  0  0  0  0  0  0  0
    8.1186   -0.4260   18.3588 H   0  0  0  0  0  0  0  0  0  0  0  0
    6.6756    0.0010   19.9307 C   0  0  0  0  0  0  0  0  0  0  0  0
    7.3482   -0.6755   20.9513 N   0  0  0  0  0  0  0  0  0  0  0  0
    8.1715   -1.8429   20.7280 C   0  0  0  0  0  0  0  0  0  0  0  0
    9.0736   -1.6168   20.1416 H   0  0  0  0  0  0  0  0  0  0  0  0
    7.5472   -2.5754   20.2251 H   0  0  0  0  0  0  0  0  0  0  0  0
    8.4844   -2.3322   22.1468 C   0  0  0  0  0  0  0  0  0  0  0  0
    7.8836   -3.2205   22.3995 H   0  0  0  0  0  0  0  0  0  0  0  0
    9.5387   -2.5689   22.2981 H   0  0  0  0  0  0  0  0  0  0  0  0
    8.1617   -1.2464   22.9941 O   0  0  0  0  0  0  0  0  0  0  0  0
    7.2270   -0.4053   22.3682 C   0  0  1  0  0  0  0  0  0  0  0  0
    6.2042   -0.6341   22.7245 H   0  0  0  0  0  0  0  0  0  0  0  0
    7.5175    1.0393   22.7342 C   0  0  0  0  0  0  0  0  0  0  0  0
    6.5104    1.7878   23.3475 C   0  0  0  0  0  0  0  0  0  0  0  0
    5.5596    1.3103   23.5752 H   0  0  0  0  0  0  0  0  0  0  0  0
    6.7079    3.1284   23.6714 C   0  0  0  0  0  0  0  0  0  0  0  0
    5.9183    3.6947   24.1506 H   0  0  0  0  0  0  0  0  0  0  0  0
    7.9261    3.7391   23.3824 C   0  0  0  0  0  0  0  0  0  0  0  0
    8.1143    4.7792   23.6230 H   0  0  0  0  0  0  0  0  0  0  0  0
    8.9493    3.0012   22.7811 C   0  0  0  0  0  0  0  0  0  0  0  0
   10.4805    3.7755   22.5558 Cl  0  0  0  0  0  0  0  0  0  0  0  0
    8.7431    1.6550   22.4389 C   0  0  0  0  0  0  0  0  0  0  0  0
   10.0250    0.7727   21.6784 Cl  0  0  0  0  0  0  0  0  0  0  0  0
    5.4499    0.6537   20.1668 C   0  0  0  0  0  0  0  0  0  0  0  0
    5.0155    0.6283   21.1636 H   0  0  0  0  0  0  0  0  0  0  0  0
    4.8187    1.3055   19.1039 C   0  0  0  0  0  0  0  0  0  0  0  0
    3.8864    1.8312   19.2576 H   0  0  0  0  0  0  0  0  0  0  0  0
  1  2  1  0
  2  3  2  0
  3  4  1  0
  4  5  1  0
  4  6  2  0
  6  7  1  0
  7  8  1  0
  8  9  1  0
  8 10  1  0
  8 11  1  0
 11 12  1  0
 11 13  1  0
 11 14  1  0
 14 15  1  0
 15 16  1  1
 15 17  1  0
 17 18  2  0
 18 19  1  0
 18 20  1  0
 20 21  1  0
 20 22  2  0
 22 23  1  0
 22 24  1  0
 24 25  1  0
 24 26  2  0
 26 27  1  0
  6 28  1  0
 28 29  1  0
 28 30  2  0
 30 31  1  0
 30  2  1  0
 15  7  1  0
 26 17  1  0
M  END
>  <cnnaffinity>  (1) 
-4.87602

>  <filename>  (1) 
Clc1cccc([C@@H]2OCCN2c2cccnc2)c1Cl

$$$$
