
     RDKit          3D

 42 46  0  0  0  0  0  0  0  0999 V2000
    8.0386    6.2618   26.7999 Cl  0  0  0  0  0  0  0  0  0  0  0  0
    8.1767    4.9152   25.7070 C   0  0  0  0  0  0  0  0  0  0  0  0
    7.1147    4.6050   24.8463 C   0  0  0  0  0  0  0  0  0  0  0  0
    7.2932    3.5575   23.9472 C   0  0  0  0  0  0  0  0  0  0  0  0
    8.5233    2.8798   23.9153 C   0  0  0  0  0  0  0  0  0  0  0  0
    8.7300    1.8791   22.9284 N   0  0  0  0  0  0  0  0  0  0  0  0
    7.6658    1.1270   22.5356 N   0  0  0  0  0  0  0  0  0  0  0  0
    8.1772    0.3165   21.6358 C   0  0  0  0  0  0  0  0  0  0  0  0
    7.3634   -0.6966   20.8867 C   0  0  0  0  0  0  0  0  0  0  0  0
    6.5800   -0.0873   19.7296 C   0  0  0  0  0  0  0  0  0  0  0  0
    5.3825    0.5944   19.9810 C   0  0  0  0  0  0  0  0  0  0  0  0
    4.7781    1.3049   18.9421 C   0  0  0  0  0  0  0  0  0  0  0  0
    5.3884    1.3013   17.6855 C   0  0  0  0  0  0  0  0  0  0  0  0
    6.5091    0.6172   17.4067 N   0  0  0  0  0  0  0  0  0  0  0  0
    7.0769   -0.0585   18.4139 C   0  0  0  0  0  0  0  0  0  0  0  0
    7.9885   -0.6042   18.1656 H   0  0  0  0  0  0  0  0  0  0  0  0
    4.9524    1.8634   16.8624 H   0  0  0  0  0  0  0  0  0  0  0  0
    3.8676    1.8729   19.0987 H   0  0  0  0  0  0  0  0  0  0  0  0
    4.9506    0.5831   20.9835 H   0  0  0  0  0  0  0  0  0  0  0  0
    6.6862   -1.1627   21.6099 H   0  0  0  0  0  0  0  0  0  0  0  0
    8.0582   -1.4668   20.5400 H   0  0  0  0  0  0  0  0  0  0  0  0
    9.4983    0.4771   21.4072 N   0  0  0  0  0  0  0  0  0  0  0  0
    9.8342    1.4642   22.2139 C   0  0  0  0  0  0  0  0  0  0  0  0
   11.1643    2.0205   22.3178 C   0  0  0  0  0  0  0  0  0  0  0  0
   11.3516    3.3995   22.3669 C   0  0  0  0  0  0  0  0  0  0  0  0
   12.5301    3.9911   22.6260 N   0  0  0  0  0  0  0  0  0  0  0  0
   13.6037    3.2196   22.7927 C   0  0  0  0  0  0  0  0  0  0  0  0
   13.5351    1.8116   22.6845 C   0  0  0  0  0  0  0  0  0  0  0  0
   12.3018    1.1917   22.3938 C   0  0  0  0  0  0  0  0  0  0  0  0
   12.5621   -0.2131   22.2565 C   0  0  0  0  0  0  0  0  0  0  0  0
   13.8987   -0.3979   22.4689 C   0  0  0  0  0  0  0  0  0  0  0  0
   14.4939    0.8216   22.7333 N   0  0  0  0  0  0  0  0  0  0  0  0
   15.4900    0.9806   22.7882 H   0  0  0  0  0  0  0  0  0  0  0  0
   14.4747   -1.3148   22.4790 H   0  0  0  0  0  0  0  0  0  0  0  0
   11.8080   -0.9489   22.0012 H   0  0  0  0  0  0  0  0  0  0  0  0
   14.5388    3.7310   22.9927 H   0  0  0  0  0  0  0  0  0  0  0  0
   10.5057    4.0709   22.2558 H   0  0  0  0  0  0  0  0  0  0  0  0
    9.4827    3.2441   24.8699 C   0  0  0  0  0  0  0  0  0  0  0  0
    9.3142    4.2448   25.7444 N   0  0  0  0  0  0  0  0  0  0  0  0
   10.4484    2.7478   24.9106 H   0  0  0  0  0  0  0  0  0  0  0  0
    6.5055    3.2427   23.2651 H   0  0  0  0  0  0  0  0  0  0  0  0
    6.1834    5.1561   24.8919 H   0  0  0  0  0  0  0  0  0  0  0  0
  1  2  1  0
  2  3  2  0
  3  4  1  0
  4  5  2  0
  5  6  1  0
  6  7  1  0
  7  8  2  0
  8  9  1  0
  9 10  1  0
 10 11  2  0
 11 12  1  0
 12 13  2  0
 13 14  1  0
 14 15  2  0
 15 16  1  0
 13 17  1  0
 12 18  1  0
 11 19  1  0
  9 20  1  0
  9 21  1  0
  8 22  1  0
 22 23  2  0
 23 24  1  0
 24 25  2  0
 25 26  1  0
 26 27  2  0
 27 28  1  0
 28 29  2  0
 29 30  1  0
 30 31  2  0
 31 32  1  0
 32 33  1  0
 31 34  1  0
 30 35  1  0
 27 36  1  0
 25 37  1  0
  5 38  1  0
 38 39  2  0
 38 40  1  0
  4 41  1  0
  3 42  1  0
 39  2  1  0
 23  6  1  0
 29 24  1  0
 15 10  1  0
 32 28  1  0
M  END
>  <cnnaffinity>  (1) 
-6.72034

>  <filename>  (1) 
Clc1ccc(-n2nc(Cc3cccnc3)nc2-c2cncc3[nH]ccc23)cn1

$$$$
