
     RDKit          3D

 40 43  0  0  0  0  0  0  0  0999 V2000
    4.9538    1.8104   17.0897 H   0  0  0  0  0  0  0  0  0  0  0  0
    5.4055    1.3306   17.9566 C   0  0  0  0  0  0  0  0  0  0  0  0
    6.6225    0.8038   17.7638 N   0  0  0  0  0  0  0  0  0  0  0  0
    7.2106    0.2372   18.8177 C   0  0  0  0  0  0  0  0  0  0  0  0
    8.2004   -0.1721   18.6179 H   0  0  0  0  0  0  0  0  0  0  0  0
    6.6362    0.0923   20.1001 C   0  0  0  0  0  0  0  0  0  0  0  0
    7.5186   -0.5845   21.1385 C   0  0  2  0  0  0  0  0  0  0  0  0
    8.6038    0.3564   21.4575 N   0  0  0  0  0  0  0  0  0  0  0  0
    9.4882   -0.1236   21.5028 H   0  0  0  0  0  0  0  0  0  0  0  0
    8.5848    1.3044   22.4725 C   0  0  0  0  0  0  0  0  0  0  0  0
    9.7324    1.3790   23.2787 C   0  0  0  0  0  0  0  0  0  0  0  0
   10.5505    0.6912   23.0750 H   0  0  0  0  0  0  0  0  0  0  0  0
    9.8278    2.3073   24.3126 C   0  0  0  0  0  0  0  0  0  0  0  0
   10.7101    2.3568   24.9460 H   0  0  0  0  0  0  0  0  0  0  0  0
    8.7584    3.1853   24.5300 C   0  0  0  0  0  0  0  0  0  0  0  0
    8.8600    4.3339   25.8344 Cl  0  0  0  0  0  0  0  0  0  0  0  0
    7.6179    3.1458   23.7225 C   0  0  0  0  0  0  0  0  0  0  0  0
    6.8094    3.8512   23.9036 H   0  0  0  0  0  0  0  0  0  0  0  0
    7.5329    2.2044   22.6889 C   0  0  0  0  0  0  0  0  0  0  0  0
    6.6746    2.1606   22.0279 H   0  0  0  0  0  0  0  0  0  0  0  0
    8.2272   -1.8359   20.5377 C   0  0  0  0  0  0  0  0  0  0  0  0
    9.2458   -1.6201   20.2001 H   0  0  0  0  0  0  0  0  0  0  0  0
    7.5900   -2.0567   19.6857 H   0  0  0  0  0  0  0  0  0  0  0  0
    8.1576   -2.9507   21.5951 C   0  0  2  0  0  0  0  0  0  0  0  0
    8.9777   -3.6661   21.5364 H   0  0  0  0  0  0  0  0  0  0  0  0
    6.7612   -3.5813   21.4734 C   0  0  0  0  0  0  0  0  0  0  0  0
    6.6689   -4.4465   22.1364 H   0  0  0  0  0  0  0  0  0  0  0  0
    6.5283   -3.9352   20.4638 H   0  0  0  0  0  0  0  0  0  0  0  0
    5.8461   -2.4101   21.9386 C   0  0  0  0  0  0  0  0  0  0  0  0
    5.2316   -2.7362   22.7838 H   0  0  0  0  0  0  0  0  0  0  0  0
    5.1791   -2.0520   21.1535 H   0  0  0  0  0  0  0  0  0  0  0  0
    6.8425   -1.2911   22.3766 C   0  0  1  0  0  0  0  0  0  0  0  0
    6.4154   -0.5705   23.0761 H   0  0  0  0  0  0  0  0  0  0  0  0
    8.0070   -2.1594   22.9108 C   0  0  0  0  0  0  0  0  0  0  0  0
    8.9044   -1.5939   23.1897 H   0  0  0  0  0  0  0  0  0  0  0  0
    7.7242   -2.7872   23.7650 H   0  0  0  0  0  0  0  0  0  0  0  0
    5.3631    0.6370   20.2754 C   0  0  0  0  0  0  0  0  0  0  0  0
    4.8551    0.5815   21.2401 H   0  0  0  0  0  0  0  0  0  0  0  0
    4.7433    1.2764   19.1862 C   0  0  0  0  0  0  0  0  0  0  0  0
    3.7789    1.7556   19.2810 H   0  0  0  0  0  0  0  0  0  0  0  0
  1  2  1  0
  2  3  2  0
  3  4  1  0
  4  5  1  0
  4  6  2  0
  6  7  1  0
  7  8  1  1
  8  9  1  0
  8 10  1  0
 10 11  2  0
 11 12  1  0
 11 13  1  0
 13 14  1  0
 13 15  2  0
 15 16  1  0
 15 17  1  0
 17 18  1  0
 17 19  2  0
 19 20  1  0
  7 21  1  0
 21 22  1  0
 21 23  1  0
 21 24  1  0
 24 25  1  1
 24 26  1  0
 26 27  1  0
 26 28  1  0
 26 29  1  0
 29 30  1  0
 29 31  1  0
 29 32  1  0
 32 33  1  1
 32 34  1  0
 34 35  1  0
 34 36  1  0
  6 37  1  0
 37 38  1  0
 37 39  2  0
 39 40  1  0
 39  2  1  0
 32  7  1  0
 19 10  1  0
 34 24  1  0
M  END
>  <cnnaffinity>  (1) 
-5.21615

>  <filename>  (1) 
Clc1ccc(N[C@@]2(c3cccnc3)C[C@@H]3CC[C@H]2C3)cc1

$$$$
