
     RDKit          3D

 31 33  0  0  0  0  0  0  0  0999 V2000
    5.0466    1.7835   16.9683 H   0  0  0  0  0  0  0  0  0  0  0  0
    5.4782    1.2918   17.8389 C   0  0  0  0  0  0  0  0  0  0  0  0
    6.6335    0.6342   17.6391 N   0  0  0  0  0  0  0  0  0  0  0  0
    7.1798    0.0118   18.6837 C   0  0  0  0  0  0  0  0  0  0  0  0
    8.0902   -0.5541   18.5029 H   0  0  0  0  0  0  0  0  0  0  0  0
    6.6352    0.0415   19.9800 C   0  0  0  0  0  0  0  0  0  0  0  0
    7.3156   -0.6540   21.0106 N   0  0  0  0  0  0  0  0  0  0  0  0
    7.7707   -1.8918   20.7294 N   0  0  0  0  0  0  0  0  0  0  0  0
    8.3410   -2.3113   21.8424 C   0  0  0  0  0  0  0  0  0  0  0  0
    8.7753   -3.3002   21.8820 H   0  0  0  0  0  0  0  0  0  0  0  0
    8.2893   -1.3413   22.8541 C   0  0  0  0  0  0  0  0  0  0  0  0
    8.7125   -1.4199   23.8428 H   0  0  0  0  0  0  0  0  0  0  0  0
    7.6224   -0.2707   22.2959 C   0  0  0  0  0  0  0  0  0  0  0  0
    7.3160    1.0613   22.9468 C   0  0  0  0  0  0  0  0  0  0  0  0
    6.6274    0.8732   23.7744 H   0  0  0  0  0  0  0  0  0  0  0  0
    6.8016    1.7381   22.2561 H   0  0  0  0  0  0  0  0  0  0  0  0
    8.5863    1.7187   23.4819 C   0  0  0  0  0  0  0  0  0  0  0  0
    8.9865    1.5723   24.8181 C   0  0  0  0  0  0  0  0  0  0  0  0
    8.2826    1.1459   25.5237 H   0  0  0  0  0  0  0  0  0  0  0  0
   10.2670    1.9419   25.2409 C   0  0  0  0  0  0  0  0  0  0  0  0
   10.5779    1.7564   26.2658 H   0  0  0  0  0  0  0  0  0  0  0  0
   11.1521    2.5281   24.3297 C   0  0  0  0  0  0  0  0  0  0  0  0
   12.1477    2.8027   24.6473 H   0  0  0  0  0  0  0  0  0  0  0  0
   10.7529    2.7647   23.0103 C   0  0  0  0  0  0  0  0  0  0  0  0
   11.4077    3.2387   22.2787 H   0  0  0  0  0  0  0  0  0  0  0  0
    9.4786    2.3569   22.6108 C   0  0  0  0  0  0  0  0  0  0  0  0
    8.9877    2.6181   20.9623 Cl  0  0  0  0  0  0  0  0  0  0  0  0
    5.4139    0.6972   20.1756 C   0  0  0  0  0  0  0  0  0  0  0  0
    4.9328    0.6854   21.1545 H   0  0  0  0  0  0  0  0  0  0  0  0
    4.8268    1.3316   19.0753 C   0  0  0  0  0  0  0  0  0  0  0  0
    3.8772    1.8473   19.1681 H   0  0  0  0  0  0  0  0  0  0  0  0
  1  2  1  0
  2  3  2  0
  3  4  1  0
  4  5  1  0
  4  6  2  0
  6  7  1  0
  7  8  1  0
  8  9  2  0
  9 10  1  0
  9 11  1  0
 11 12  1  0
 11 13  2  0
 13 14  1  0
 14 15  1  0
 14 16  1  0
 14 17  1  0
 17 18  2  0
 18 19  1  0
 18 20  1  0
 20 21  1  0
 20 22  2  0
 22 23  1  0
 22 24  1  0
 24 25  1  0
 24 26  2  0
 26 27  1  0
  6 28  1  0
 28 29  1  0
 28 30  2  0
 30 31  1  0
 30  2  1  0
 13  7  1  0
 26 17  1  0
M  END
>  <cnnaffinity>  (1) 
-5.17304

>  <filename>  (1) 
Clc1ccccc1Cc1ccnn1-c1cccnc1

$$$$
