
     RDKit          3D

 34 36  0  0  0  0  0  0  0  0999 V2000
    8.1315   -5.4472   27.9788 Cl  0  0  0  0  0  0  0  0  0  0  0  0
    8.0861   -4.4107   26.5698 C   0  0  0  0  0  0  0  0  0  0  0  0
    7.3006   -4.7456   25.4658 C   0  0  0  0  0  0  0  0  0  0  0  0
    7.1923   -3.9652   24.3810 N   0  0  0  0  0  0  0  0  0  0  0  0
    7.8736   -2.8130   24.3375 C   0  0  0  0  0  0  0  0  0  0  0  0
    7.7180   -2.0609   23.1609 N   0  0  0  0  0  0  0  0  0  0  0  0
    8.0329   -0.6149   23.1301 C   0  0  0  0  0  0  0  0  0  0  0  0
    7.1124    0.1688   22.1716 C   0  0  0  0  0  0  0  0  0  0  0  0
    7.2052   -0.3617   20.7895 N   0  0  0  0  0  0  0  0  0  0  0  0
    6.6139    0.3247   19.7011 C   0  0  0  0  0  0  0  0  0  0  0  0
    5.5139    1.1527   19.9309 C   0  0  0  0  0  0  0  0  0  0  0  0
    4.8711    1.7410   18.8366 C   0  0  0  0  0  0  0  0  0  0  0  0
    5.3385    1.5059   17.5387 C   0  0  0  0  0  0  0  0  0  0  0  0
    6.4228    0.7470   17.2919 N   0  0  0  0  0  0  0  0  0  0  0  0
    7.0460    0.1848   18.3550 C   0  0  0  0  0  0  0  0  0  0  0  0
    7.9362   -0.4033   18.1519 H   0  0  0  0  0  0  0  0  0  0  0  0
    4.8188    1.9636   16.7042 H   0  0  0  0  0  0  0  0  0  0  0  0
    4.0094    2.3832   18.9805 H   0  0  0  0  0  0  0  0  0  0  0  0
    5.1680    1.3022   20.9500 H   0  0  0  0  0  0  0  0  0  0  0  0
    7.5051   -1.8098   20.6511 C   0  0  0  0  0  0  0  0  0  0  0  0
    7.1528   -2.6495   21.9114 C   0  0  0  0  0  0  0  0  0  0  0  0
    7.5364   -3.6684   21.7564 H   0  0  0  0  0  0  0  0  0  0  0  0
    6.0611   -2.7147   22.0017 H   0  0  0  0  0  0  0  0  0  0  0  0
    8.5766   -1.9250   20.4503 H   0  0  0  0  0  0  0  0  0  0  0  0
    6.9335   -2.2059   19.8029 H   0  0  0  0  0  0  0  0  0  0  0  0
    7.4302    1.2187   22.1755 H   0  0  0  0  0  0  0  0  0  0  0  0
    6.0759    0.1077   22.5275 H   0  0  0  0  0  0  0  0  0  0  0  0
    9.0679   -0.4905   22.7961 H   0  0  0  0  0  0  0  0  0  0  0  0
    7.9285   -0.1883   24.1319 H   0  0  0  0  0  0  0  0  0  0  0  0
    8.7053   -2.3988   25.4106 C   0  0  0  0  0  0  0  0  0  0  0  0
    9.7504   -0.7872   25.3712 Br  0  0  0  0  0  0  0  0  0  0  0  0
    8.8054   -3.2232   26.5326 C   0  0  0  0  0  0  0  0  0  0  0  0
    9.4588   -2.9654   27.3534 H   0  0  0  0  0  0  0  0  0  0  0  0
    6.7490   -5.6813   25.5041 H   0  0  0  0  0  0  0  0  0  0  0  0
  1  2  1  0
  2  3  2  0
  3  4  1  0
  4  5  2  0
  5  6  1  0
  6  7  1  0
  7  8  1  0
  8  9  1  0
  9 10  1  0
 10 11  2  0
 11 12  1  0
 12 13  2  0
 13 14  1  0
 14 15  2  0
 15 16  1  0
 13 17  1  0
 12 18  1  0
 11 19  1  0
  9 20  1  0
 20 21  1  0
 21 22  1  0
 21 23  1  0
 20 24  1  0
 20 25  1  0
  8 26  1  0
  8 27  1  0
  7 28  1  0
  7 29  1  0
  5 30  1  0
 30 31  1  0
 30 32  2  0
 32 33  1  0
  3 34  1  0
 32  2  1  0
 21  6  1  0
 15 10  1  0
M  END
>  <cnnaffinity>  (1) 
-5.2965

>  <filename>  (1) 
Clc1cnc(N2CCN(c3cccnc3)CC2)c(Br)c1

$$$$
