
     RDKit          3D

 28 29  0  0  0  0  0  0  0  0999 V2000
    6.8309   -0.5152   22.0340 H   0  0  0  0  0  0  0  0  0  0  0  0
    7.3182   -0.6203   21.0646 C   0  0  0  0  0  0  0  0  0  0  0  0
    8.4318   -1.3553   20.9570 C   0  0  0  0  0  0  0  0  0  0  0  0
    8.9035   -1.4393   19.9825 H   0  0  0  0  0  0  0  0  0  0  0  0
    9.1384   -2.0518   22.0999 C   0  0  0  0  0  0  0  0  0  0  0  0
    9.7161   -2.8958   21.7151 H   0  0  0  0  0  0  0  0  0  0  0  0
    8.3896   -2.4683   22.7837 H   0  0  0  0  0  0  0  0  0  0  0  0
   10.0608   -1.1446   22.8932 C   0  0  0  0  0  0  0  0  0  0  0  0
    9.5921   -0.5342   24.0672 C   0  0  0  0  0  0  0  0  0  0  0  0
    8.6242   -0.8409   24.4638 H   0  0  0  0  0  0  0  0  0  0  0  0
   10.3608    0.4002   24.7699 C   0  0  0  0  0  0  0  0  0  0  0  0
    9.9584    0.8782   25.6584 H   0  0  0  0  0  0  0  0  0  0  0  0
   11.6474    0.7089   24.3185 C   0  0  0  0  0  0  0  0  0  0  0  0
   12.2452    1.4555   24.8380 H   0  0  0  0  0  0  0  0  0  0  0  0
   12.1705    0.0514   23.2030 C   0  0  0  0  0  0  0  0  0  0  0  0
   13.1901    0.2091   22.8714 H   0  0  0  0  0  0  0  0  0  0  0  0
   11.3856   -0.8700   22.5041 C   0  0  0  0  0  0  0  0  0  0  0  0
   12.1210   -1.6894   21.1485 Cl  0  0  0  0  0  0  0  0  0  0  0  0
    6.6309    0.0598   19.9472 C   0  0  0  0  0  0  0  0  0  0  0  0
    7.1511    0.0459   18.6340 C   0  0  0  0  0  0  0  0  0  0  0  0
    8.0865   -0.4731   18.4287 H   0  0  0  0  0  0  0  0  0  0  0  0
    6.5834    0.6484   17.5860 N   0  0  0  0  0  0  0  0  0  0  0  0
    5.4335    1.3031   17.8068 C   0  0  0  0  0  0  0  0  0  0  0  0
    4.9881    1.7670   16.9330 H   0  0  0  0  0  0  0  0  0  0  0  0
    4.8070    1.3755   19.0580 C   0  0  0  0  0  0  0  0  0  0  0  0
    3.8733    1.9222   19.1534 H   0  0  0  0  0  0  0  0  0  0  0  0
    5.4156    0.7455   20.1459 C   0  0  0  0  0  0  0  0  0  0  0  0
    4.9570    0.7890   21.1367 H   0  0  0  0  0  0  0  0  0  0  0  0
  1  2  1  0
  2  3  2  3
  3  4  1  0
  3  5  1  0
  5  6  1  0
  5  7  1  0
  5  8  1  0
  8  9  2  0
  9 10  1  0
  9 11  1  0
 11 12  1  0
 11 13  2  0
 13 14  1  0
 13 15  1  0
 15 16  1  0
 15 17  2  0
 17 18  1  0
  2 19  1  0
 19 20  2  0
 20 21  1  0
 20 22  1  0
 22 23  2  0
 23 24  1  0
 23 25  1  0
 25 26  1  0
 25 27  2  0
 27 28  1  0
 17  8  1  0
 27 19  1  0
M  END
>  <cnnaffinity>  (1) 
-5.1057

>  <filename>  (1) 
Clc1ccccc1CC=Cc1cccnc1

$$$$
