
     RDKit          3D

 30 32  0  0  0  0  0  0  0  0999 V2000
    4.9590    1.8127   16.9697 H   0  0  0  0  0  0  0  0  0  0  0  0
    5.4242    1.3031   17.8132 C   0  0  0  0  0  0  0  0  0  0  0  0
    6.5793    0.6685   17.5665 N   0  0  0  0  0  0  0  0  0  0  0  0
    7.1772    0.0326   18.5843 C   0  0  0  0  0  0  0  0  0  0  0  0
    8.1120   -0.4759   18.3625 H   0  0  0  0  0  0  0  0  0  0  0  0
    6.6612    0.0001   19.8928 C   0  0  0  0  0  0  0  0  0  0  0  0
    7.2290   -0.6956   20.9346 O   0  0  0  0  0  0  0  0  0  0  0  0
    8.5883   -0.7764   21.1237 C   0  0  0  0  0  0  0  0  0  0  0  0
    9.6376    0.0551   20.6739 C   0  0  0  0  0  0  0  0  0  0  0  0
    9.5414    0.9136   20.0231 H   0  0  0  0  0  0  0  0  0  0  0  0
   10.8164   -0.3407   21.1407 N   0  0  0  0  0  0  0  0  0  0  0  0
   10.5263   -1.4192   21.8945 N   0  0  0  0  0  0  0  0  0  0  0  0
   11.2420   -1.9354   22.3903 H   0  0  0  0  0  0  0  0  0  0  0  0
    9.2139   -1.7027   21.9385 C   0  0  0  0  0  0  0  0  0  0  0  0
    8.8501   -2.7659   22.7024 O   0  0  0  0  0  0  0  0  0  0  0  0
    7.6095   -2.7297   23.3119 C   0  0  0  0  0  0  0  0  0  0  0  0
    6.8863   -3.9233   23.3177 C   0  0  0  0  0  0  0  0  0  0  0  0
    7.3346   -4.8062   22.8648 H   0  0  0  0  0  0  0  0  0  0  0  0
    5.6442   -3.9525   23.9516 C   0  0  0  0  0  0  0  0  0  0  0  0
    5.0498   -4.8614   23.9145 H   0  0  0  0  0  0  0  0  0  0  0  0
    5.1568   -2.8233   24.6161 C   0  0  0  0  0  0  0  0  0  0  0  0
    4.1940   -2.8321   25.1237 H   0  0  0  0  0  0  0  0  0  0  0  0
    5.9211   -1.6552   24.6219 C   0  0  0  0  0  0  0  0  0  0  0  0
    5.3140   -0.2867   25.5024 Cl  0  0  0  0  0  0  0  0  0  0  0  0
    7.1376   -1.5706   23.9424 C   0  0  0  0  0  0  0  0  0  0  0  0
    7.7094   -0.6430   23.8921 H   0  0  0  0  0  0  0  0  0  0  0  0
    5.4449    0.6445   20.1402 C   0  0  0  0  0  0  0  0  0  0  0  0
    5.0231    0.6432   21.1462 H   0  0  0  0  0  0  0  0  0  0  0  0
    4.8247    1.3104   19.0789 C   0  0  0  0  0  0  0  0  0  0  0  0
    3.8938    1.8443   19.2185 H   0  0  0  0  0  0  0  0  0  0  0  0
  1  2  1  0
  2  3  2  0
  3  4  1  0
  4  5  1  0
  4  6  2  0
  6  7  1  0
  7  8  1  0
  8  9  1  0
  9 10  1  0
  9 11  2  0
 11 12  1  0
 12 13  1  0
 12 14  1  0
 14 15  1  0
 15 16  1  0
 16 17  2  0
 17 18  1  0
 17 19  1  0
 19 20  1  0
 19 21  2  0
 21 22  1  0
 21 23  1  0
 23 24  1  0
 23 25  2  0
 25 26  1  0
  6 27  1  0
 27 28  1  0
 27 29  2  0
 29 30  1  0
 29  2  1  0
 14  8  2  0
 25 16  1  0
M  END
>  <cnnaffinity>  (1) 
-4.79382

>  <filename>  (1) 
Clc1cccc(Oc2[nH]ncc2Oc2cccnc2)c1

$$$$
