
     RDKit          3D

 29 31  0  0  0  0  0  0  0  0999 V2000
    4.9181    1.7908   16.9824 H   0  0  0  0  0  0  0  0  0  0  0  0
    5.3958    1.2995   17.8231 C   0  0  0  0  0  0  0  0  0  0  0  0
    6.5586    0.6829   17.5567 N   0  0  0  0  0  0  0  0  0  0  0  0
    7.1591    0.0739   18.5832 C   0  0  0  0  0  0  0  0  0  0  0  0
    8.1007   -0.4196   18.3618 H   0  0  0  0  0  0  0  0  0  0  0  0
    6.6523    0.0109   19.8957 C   0  0  0  0  0  0  0  0  0  0  0  0
    7.3822   -0.7014   20.9554 C   0  0  0  0  0  0  0  0  0  0  0  0
    8.7823   -1.0012   21.0157 C   0  0  0  0  0  0  0  0  0  0  0  0
    9.5103   -0.7139   20.2665 H   0  0  0  0  0  0  0  0  0  0  0  0
    9.0271   -1.6449   22.1962 C   0  0  0  0  0  0  0  0  0  0  0  0
    9.9405   -2.0259   22.6331 H   0  0  0  0  0  0  0  0  0  0  0  0
    7.8286   -1.7760   22.8851 N   0  0  0  0  0  0  0  0  0  0  0  0
    7.6287   -2.3585   24.1670 C   0  0  0  0  0  0  0  0  0  0  0  0
    6.9394   -1.6375   25.1601 C   0  0  0  0  0  0  0  0  0  0  0  0
    6.5524   -0.6563   24.9084 H   0  0  0  0  0  0  0  0  0  0  0  0
    6.7732   -2.1618   26.4403 C   0  0  0  0  0  0  0  0  0  0  0  0
    6.2430   -1.5892   27.1940 H   0  0  0  0  0  0  0  0  0  0  0  0
    7.2774   -3.4229   26.7545 C   0  0  0  0  0  0  0  0  0  0  0  0
    7.1598   -3.8607   27.7404 H   0  0  0  0  0  0  0  0  0  0  0  0
    7.9421   -4.1625   25.7754 C   0  0  0  0  0  0  0  0  0  0  0  0
    8.5434   -5.7272   26.2141 Cl  0  0  0  0  0  0  0  0  0  0  0  0
    8.1114   -3.6515   24.4767 C   0  0  0  0  0  0  0  0  0  0  0  0
    8.8752   -4.6210   23.2673 Cl  0  0  0  0  0  0  0  0  0  0  0  0
    6.8517   -1.1965   22.1128 C   0  0  0  0  0  0  0  0  0  0  0  0
    5.8325   -1.1961   22.4431 H   0  0  0  0  0  0  0  0  0  0  0  0
    5.4271    0.6563   20.1469 C   0  0  0  0  0  0  0  0  0  0  0  0
    5.0011    0.6534   21.1538 H   0  0  0  0  0  0  0  0  0  0  0  0
    4.7992    1.3164   19.0908 C   0  0  0  0  0  0  0  0  0  0  0  0
    3.8681    1.8473   19.2485 H   0  0  0  0  0  0  0  0  0  0  0  0
  1  2  1  0
  2  3  2  0
  3  4  1  0
  4  5  1  0
  4  6  2  0
  6  7  1  0
  7  8  1  0
  8  9  1  0
  8 10  2  0
 10 11  1  0
 10 12  1  0
 12 13  1  0
 13 14  2  0
 14 15  1  0
 14 16  1  0
 16 17  1  0
 16 18  2  0
 18 19  1  0
 18 20  1  0
 20 21  1  0
 20 22  2  0
 22 23  1  0
 12 24  1  0
 24 25  1  0
  6 26  1  0
 26 27  1  0
 26 28  2  0
 28 29  1  0
 28  2  1  0
 24  7  2  0
 22 13  1  0
M  END
>  <cnnaffinity>  (1) 
-5.63383

>  <filename>  (1) 
Clc1cccc(-n2ccc(-c3cccnc3)c2)c1Cl

$$$$
