
     RDKit          3D

 32 35  0  0  0  0  0  0  0  0999 V2000
    5.0396    1.8940   17.1077 H   0  0  0  0  0  0  0  0  0  0  0  0
    5.5125    1.2720   17.8641 C   0  0  0  0  0  0  0  0  0  0  0  0
    6.6309    0.6320   17.4900 N   0  0  0  0  0  0  0  0  0  0  0  0
    7.2509   -0.1127   18.4148 C   0  0  0  0  0  0  0  0  0  0  0  0
    8.1402   -0.6335   18.0659 H   0  0  0  0  0  0  0  0  0  0  0  0
    6.7981   -0.2640   19.7404 C   0  0  0  0  0  0  0  0  0  0  0  0
    7.6269   -0.9309   20.7650 C   0  0  0  0  0  0  0  0  0  0  0  0
    8.9338   -0.7036   21.0142 C   0  0  0  0  0  0  0  0  0  0  0  0
    9.5680    0.0110   20.5058 H   0  0  0  0  0  0  0  0  0  0  0  0
    9.5377   -1.6221   22.3718 S   0  0  0  0  0  0  0  0  0  0  0  0
    7.9497   -2.2948   22.6236 C   0  0  0  0  0  0  0  0  0  0  0  0
    7.3455   -3.0907   23.4909 N   0  0  0  0  0  0  0  0  0  0  0  0
    6.0682   -3.0102   23.0499 C   0  0  0  0  0  0  0  0  0  0  0  0
    4.9756   -3.5726   23.6310 N   0  0  0  0  0  0  0  0  0  0  0  0
    4.2538   -2.8948   23.4705 H   0  0  0  0  0  0  0  0  0  0  0  0
    4.9365   -4.2977   24.8327 C   0  0  0  0  0  0  0  0  0  0  0  0
    3.9304   -4.0186   25.7676 C   0  0  0  0  0  0  0  0  0  0  0  0
    3.2642   -3.1824   25.5817 H   0  0  0  0  0  0  0  0  0  0  0  0
    3.7820   -4.8022   26.9182 C   0  0  0  0  0  0  0  0  0  0  0  0
    2.9996   -4.5912   27.6471 H   0  0  0  0  0  0  0  0  0  0  0  0
    4.6416   -5.8889   27.1167 C   0  0  0  0  0  0  0  0  0  0  0  0
    4.4218   -6.9116   28.5138 Cl  0  0  0  0  0  0  0  0  0  0  0  0
    5.6687   -6.1675   26.2073 C   0  0  0  0  0  0  0  0  0  0  0  0
    6.3198   -7.0219   26.3916 H   0  0  0  0  0  0  0  0  0  0  0  0
    5.8234   -5.3552   25.0728 C   0  0  0  0  0  0  0  0  0  0  0  0
    6.6207   -5.5262   24.3597 H   0  0  0  0  0  0  0  0  0  0  0  0
    5.8357   -2.2791   21.9657 N   0  0  0  0  0  0  0  0  0  0  0  0
    7.0926   -1.8110   21.7030 N   0  0  0  0  0  0  0  0  0  0  0  0
    5.5672    0.3244   20.0707 C   0  0  0  0  0  0  0  0  0  0  0  0
    5.1348    0.1236   21.0493 H   0  0  0  0  0  0  0  0  0  0  0  0
    4.9373    1.1347   19.1318 C   0  0  0  0  0  0  0  0  0  0  0  0
    4.0211    1.6641   19.3696 H   0  0  0  0  0  0  0  0  0  0  0  0
  1  2  1  0
  2  3  2  0
  3  4  1  0
  4  5  1  0
  4  6  2  0
  6  7  1  0
  7  8  2  0
  8  9  1  0
  8 10  1  0
 10 11  1  0
 11 12  2  0
 12 13  1  0
 13 14  1  0
 14 15  1  0
 14 16  1  0
 16 17  2  0
 17 18  1  0
 17 19  1  0
 19 20  1  0
 19 21  2  0
 21 22  1  0
 21 23  1  0
 23 24  1  0
 23 25  2  0
 25 26  1  0
 13 27  2  0
 27 28  1  0
  6 29  1  0
 29 30  1  0
 29 31  2  0
 31 32  1  0
 31  2  1  0
 28  7  1  0
 28 11  1  0
 25 16  1  0
M  END
>  <cnnaffinity>  (1) 
-5.57482

>  <filename>  (1) 
Clc1ccc(Nc2nc3scc(-c4cccnc4)n3n2)cc1

$$$$
