
     RDKit          3D

 30 32  0  0  0  0  0  0  0  0999 V2000
    4.9403    1.8885   16.8691 H   0  0  0  0  0  0  0  0  0  0  0  0
    5.3690    1.3769   17.7268 C   0  0  0  0  0  0  0  0  0  0  0  0
    6.5228    0.7341   17.5013 N   0  0  0  0  0  0  0  0  0  0  0  0
    7.0731    0.0956   18.5375 C   0  0  0  0  0  0  0  0  0  0  0  0
    8.0115   -0.4093   18.3198 H   0  0  0  0  0  0  0  0  0  0  0  0
    6.5170    0.0506   19.8228 C   0  0  0  0  0  0  0  0  0  0  0  0
    7.2278   -0.7106   20.8527 C   0  0  0  0  0  0  0  0  0  0  0  0
    6.6696   -0.7988   22.0727 O   0  0  0  0  0  0  0  0  0  0  0  0
    7.4947   -1.5237   22.9099 N   0  0  0  0  0  0  0  0  0  0  0  0
    8.5280   -1.8663   22.1896 C   0  0  0  0  0  0  0  0  0  0  0  0
    9.6818   -2.5961   22.8247 C   0  0  0  0  0  0  0  0  0  0  0  0
    9.3146   -3.2479   23.6268 H   0  0  0  0  0  0  0  0  0  0  0  0
   10.1222   -3.2252   22.0599 H   0  0  0  0  0  0  0  0  0  0  0  0
   10.7512   -1.6229   23.2839 C   0  0  0  0  0  0  0  0  0  0  0  0
   10.5631   -0.8168   24.4163 C   0  0  0  0  0  0  0  0  0  0  0  0
    9.7756   -1.0350   25.1343 H   0  0  0  0  0  0  0  0  0  0  0  0
   11.3946    0.2792   24.6528 C   0  0  0  0  0  0  0  0  0  0  0  0
   11.2259    0.9632   25.4798 H   0  0  0  0  0  0  0  0  0  0  0  0
   12.4655    0.5396   23.7918 C   0  0  0  0  0  0  0  0  0  0  0  0
   13.3497    2.0133   23.9514 Cl  0  0  0  0  0  0  0  0  0  0  0  0
   12.7661   -0.3675   22.7661 C   0  0  0  0  0  0  0  0  0  0  0  0
   14.2125   -0.2430   21.8369 Cl  0  0  0  0  0  0  0  0  0  0  0  0
   11.8903   -1.4201   22.4943 C   0  0  0  0  0  0  0  0  0  0  0  0
   12.1157   -2.0834   21.6647 H   0  0  0  0  0  0  0  0  0  0  0  0
    8.4114   -1.3870   20.8516 C   0  0  0  0  0  0  0  0  0  0  0  0
    9.0923   -1.5364   20.0268 H   0  0  0  0  0  0  0  0  0  0  0  0
    5.3078    0.7404   20.0485 C   0  0  0  0  0  0  0  0  0  0  0  0
    4.8461    0.7618   21.0377 H   0  0  0  0  0  0  0  0  0  0  0  0
    4.7249    1.4044   18.9701 C   0  0  0  0  0  0  0  0  0  0  0  0
    3.7910    1.9463   19.0779 H   0  0  0  0  0  0  0  0  0  0  0  0
  1  2  1  0
  2  3  2  0
  3  4  1  0
  4  5  1  0
  4  6  2  0
  6  7  1  0
  7  8  1  0
  8  9  1  0
  9 10  2  0
 10 11  1  0
 11 12  1  0
 11 13  1  0
 11 14  1  0
 14 15  2  0
 15 16  1  0
 15 17  1  0
 17 18  1  0
 17 19  2  0
 19 20  1  0
 19 21  1  0
 21 22  1  0
 21 23  2  0
 23 24  1  0
 10 25  1  0
 25 26  1  0
  6 27  1  0
 27 28  1  0
 27 29  2  0
 29 30  1  0
 29  2  1  0
 25  7  2  0
 23 14  1  0
M  END
>  <cnnaffinity>  (1) 
-5.25204

>  <filename>  (1) 
Clc1ccc(Cc2cc(-c3cccnc3)on2)cc1Cl

$$$$
