
     RDKit          3D

 36 39  0  0  0  0  0  0  0  0999 V2000
    4.9235    1.7769   17.0018 H   0  0  0  0  0  0  0  0  0  0  0  0
    5.4064    1.2873   17.8455 C   0  0  0  0  0  0  0  0  0  0  0  0
    6.5698    0.6717   17.5850 N   0  0  0  0  0  0  0  0  0  0  0  0
    7.1807    0.0557   18.6008 C   0  0  0  0  0  0  0  0  0  0  0  0
    8.1272   -0.4306   18.3767 H   0  0  0  0  0  0  0  0  0  0  0  0
    6.6638    0.0045   19.9097 C   0  0  0  0  0  0  0  0  0  0  0  0
    7.4146   -0.7090   20.9588 C   0  0  0  0  0  0  0  0  0  0  0  0
    8.5556   -1.3104   20.7681 N   0  0  0  0  0  0  0  0  0  0  0  0
    9.0542   -1.8861   21.9024 N   0  0  0  0  0  0  0  0  0  0  0  0
    8.2902   -1.7197   22.9403 C   0  0  0  0  0  0  0  0  0  0  0  0
    8.6174   -2.2506   24.3110 C   0  0  0  0  0  0  0  0  0  0  0  0
    9.5044   -1.3371   25.1672 C   0  0  0  0  0  0  0  0  0  0  0  0
    9.6612   -1.8165   26.1402 H   0  0  0  0  0  0  0  0  0  0  0  0
   10.4907   -1.2474   24.6955 H   0  0  0  0  0  0  0  0  0  0  0  0
    8.9030    0.0293   25.3930 C   0  0  0  0  0  0  0  0  0  0  0  0
    9.2263    1.0999   24.5482 C   0  0  0  0  0  0  0  0  0  0  0  0
    9.9429    0.9434   23.7435 H   0  0  0  0  0  0  0  0  0  0  0  0
    8.6181    2.3465   24.6989 C   0  0  0  0  0  0  0  0  0  0  0  0
    8.8594    3.1679   24.0304 H   0  0  0  0  0  0  0  0  0  0  0  0
    7.6814    2.5222   25.7204 C   0  0  0  0  0  0  0  0  0  0  0  0
    6.9195    4.0717   25.9171 Cl  0  0  0  0  0  0  0  0  0  0  0  0
    7.3421    1.4758   26.5830 C   0  0  0  0  0  0  0  0  0  0  0  0
    6.6098    1.6355   27.3689 H   0  0  0  0  0  0  0  0  0  0  0  0
    7.9590    0.2351   26.4101 C   0  0  0  0  0  0  0  0  0  0  0  0
    7.6937   -0.5850   27.0768 H   0  0  0  0  0  0  0  0  0  0  0  0
    8.8000   -3.7417   24.4531 C   0  0  0  0  0  0  0  0  0  0  0  0
    9.5694   -4.0903   25.1389 H   0  0  0  0  0  0  0  0  0  0  0  0
    8.6893   -4.3433   23.5562 H   0  0  0  0  0  0  0  0  0  0  0  0
    7.5820   -3.0921   25.0228 C   0  0  0  0  0  0  0  0  0  0  0  0
    7.5130   -3.0012   26.1054 H   0  0  0  0  0  0  0  0  0  0  0  0
    6.6342   -3.2701   24.5257 H   0  0  0  0  0  0  0  0  0  0  0  0
    6.8453   -0.8255   22.5931 S   0  0  0  0  0  0  0  0  0  0  0  0
    5.4409    0.6480   20.1678 C   0  0  0  0  0  0  0  0  0  0  0  0
    5.0012    0.6351   21.1679 H   0  0  0  0  0  0  0  0  0  0  0  0
    4.8109    1.3049   19.1118 C   0  0  0  0  0  0  0  0  0  0  0  0
    3.8794    1.8387   19.2617 H   0  0  0  0  0  0  0  0  0  0  0  0
  1  2  1  0
  2  3  2  0
  3  4  1  0
  4  5  1  0
  4  6  2  0
  6  7  1  0
  7  8  2  0
  8  9  1  0
  9 10  2  0
 10 11  1  0
 11 12  1  0
 12 13  1  0
 12 14  1  0
 12 15  1  0
 15 16  2  0
 16 17  1  0
 16 18  1  0
 18 19  1  0
 18 20  2  0
 20 21  1  0
 20 22  1  0
 22 23  1  0
 22 24  2  0
 24 25  1  0
 11 26  1  0
 26 27  1  0
 26 28  1  0
 26 29  1  0
 29 30  1  0
 29 31  1  0
 10 32  1  0
  6 33  1  0
 33 34  1  0
 33 35  2  0
 35 36  1  0
 35  2  1  0
 32  7  1  0
 29 11  1  0
 24 15  1  0
M  END
>  <cnnaffinity>  (1) 
-5.7908

>  <filename>  (1) 
Clc1ccc(CC2(c3nnc(-c4cccnc4)s3)CC2)cc1

$$$$
