
     RDKit          3D

 30 32  0  0  0  0  0  0  0  0999 V2000
    5.3329    1.3337   17.0448 H   0  0  0  0  0  0  0  0  0  0  0  0
    5.7441    0.8210   17.9144 C   0  0  0  0  0  0  0  0  0  0  0  0
    6.8655    0.1155   17.7067 N   0  0  0  0  0  0  0  0  0  0  0  0
    7.4140   -0.4858   18.7710 C   0  0  0  0  0  0  0  0  0  0  0  0
    8.3204   -1.0537   18.5665 H   0  0  0  0  0  0  0  0  0  0  0  0
    6.9192   -0.3906   20.0812 C   0  0  0  0  0  0  0  0  0  0  0  0
    7.7704   -0.8944   21.2043 C   0  0  0  0  0  0  0  0  0  0  0  0
    8.2413   -2.2531   21.0290 N   0  0  0  0  0  0  0  0  0  0  0  0
    7.8781   -2.5891   20.1480 H   0  0  0  0  0  0  0  0  0  0  0  0
    7.9774   -3.2289   22.0302 C   0  0  0  0  0  0  0  0  0  0  0  0
    9.0460   -3.7672   22.7532 C   0  0  0  0  0  0  0  0  0  0  0  0
   10.0348   -3.3856   22.5155 H   0  0  0  0  0  0  0  0  0  0  0  0
    8.8438   -4.7548   23.7172 C   0  0  0  0  0  0  0  0  0  0  0  0
    9.6900   -5.1696   24.2616 H   0  0  0  0  0  0  0  0  0  0  0  0
    7.5514   -5.2140   23.9742 C   0  0  0  0  0  0  0  0  0  0  0  0
    7.3556   -5.9734   24.7244 H   0  0  0  0  0  0  0  0  0  0  0  0
    6.4675   -4.6930   23.2607 C   0  0  0  0  0  0  0  0  0  0  0  0
    4.8919   -5.3601   23.5416 Cl  0  0  0  0  0  0  0  0  0  0  0  0
    6.6699   -3.6860   22.3046 C   0  0  0  0  0  0  0  0  0  0  0  0
    5.3240   -2.9786   21.4844 Cl  0  0  0  0  0  0  0  0  0  0  0  0
    7.5906   -0.3575   22.5883 C   0  0  0  0  0  0  0  0  0  0  0  0
    6.8014    0.3682   22.7780 H   0  0  0  0  0  0  0  0  0  0  0  0
    7.7649   -1.0643   23.3928 H   0  0  0  0  0  0  0  0  0  0  0  0
    8.7834    0.0662   21.7816 C   0  0  0  0  0  0  0  0  0  0  0  0
    9.7437   -0.3684   22.0389 H   0  0  0  0  0  0  0  0  0  0  0  0
    8.8030    1.0713   21.3698 H   0  0  0  0  0  0  0  0  0  0  0  0
    5.6995    0.2814   20.2625 C   0  0  0  0  0  0  0  0  0  0  0  0
    5.2298    0.2869   21.2494 H   0  0  0  0  0  0  0  0  0  0  0  0
    5.1151    0.9114   19.1612 C   0  0  0  0  0  0  0  0  0  0  0  0
    4.2084    1.4965   19.2649 H   0  0  0  0  0  0  0  0  0  0  0  0
  1  2  1  0
  2  3  2  0
  3  4  1  0
  4  5  1  0
  4  6  2  0
  6  7  1  0
  7  8  1  0
  8  9  1  0
  8 10  1  0
 10 11  2  0
 11 12  1  0
 11 13  1  0
 13 14  1  0
 13 15  2  0
 15 16  1  0
 15 17  1  0
 17 18  1  0
 17 19  2  0
 19 20  1  0
  7 21  1  0
 21 22  1  0
 21 23  1  0
 21 24  1  0
 24 25  1  0
 24 26  1  0
  6 27  1  0
 27 28  1  0
 27 29  2  0
 29 30  1  0
 29  2  1  0
 24  7  1  0
 19 10  1  0
M  END
>  <cnnaffinity>  (1) 
-4.81203

>  <filename>  (1) 
Clc1cccc(NC2(c3cccnc3)CC2)c1Cl

$$$$
