
     RDKit          3D

 26 27  0  0  0  0  0  0  0  0999 V2000
    5.0549    1.8658   17.1201 H   0  0  0  0  0  0  0  0  0  0  0  0
    5.5100    1.2871   17.9175 C   0  0  0  0  0  0  0  0  0  0  0  0
    6.6493    0.6191   17.6610 N   0  0  0  0  0  0  0  0  0  0  0  0
    7.1711   -0.1268   18.6503 C   0  0  0  0  0  0  0  0  0  0  0  0
    8.0905   -0.6738   18.4621 H   0  0  0  0  0  0  0  0  0  0  0  0
    6.5792   -0.2569   19.9151 C   0  0  0  0  0  0  0  0  0  0  0  0
    7.1702   -1.2392   20.8996 C   0  0  2  0  0  0  0  0  0  0  0  0
    8.0355   -1.7290   20.4469 H   0  0  0  0  0  0  0  0  0  0  0  0
    5.7976   -2.6303   21.2642 Br  0  0  0  0  0  0  0  0  0  0  0  0
    7.6361   -0.5904   22.2045 C   0  0  0  0  0  0  0  0  0  0  0  0
    6.7848   -0.0837   22.6666 H   0  0  0  0  0  0  0  0  0  0  0  0
    7.9620   -1.3763   22.8958 H   0  0  0  0  0  0  0  0  0  0  0  0
    8.7687    0.3950   21.9817 C   0  0  0  0  0  0  0  0  0  0  0  0
   10.1098   -0.0198   21.8566 C   0  0  0  0  0  0  0  0  0  0  0  0
   10.3569   -1.0766   21.9049 H   0  0  0  0  0  0  0  0  0  0  0  0
   11.1305    0.8363   21.6887 N   0  0  0  0  0  0  0  0  0  0  0  0
   10.8597    2.1534   21.6762 C   0  0  0  0  0  0  0  0  0  0  0  0
   12.1555    3.3039   21.5191 Cl  0  0  0  0  0  0  0  0  0  0  0  0
    9.5598    2.6424   21.8118 C   0  0  0  0  0  0  0  0  0  0  0  0
    9.3693    3.7086   21.7962 H   0  0  0  0  0  0  0  0  0  0  0  0
    8.4965    1.7642   21.9461 C   0  0  0  0  0  0  0  0  0  0  0  0
    7.4851    2.1516   22.0509 H   0  0  0  0  0  0  0  0  0  0  0  0
    5.4229    0.4802   20.1964 C   0  0  0  0  0  0  0  0  0  0  0  0
    4.9457    0.4335   21.1753 H   0  0  0  0  0  0  0  0  0  0  0  0
    4.8855    1.2603   19.1708 C   0  0  0  0  0  0  0  0  0  0  0  0
    3.9815    1.8413   19.3232 H   0  0  0  0  0  0  0  0  0  0  0  0
  1  2  1  0
  2  3  2  0
  3  4  1  0
  4  5  1  0
  4  6  2  0
  6  7  1  0
  7  8  1  6
  7  9  1  0
  7 10  1  0
 10 11  1  0
 10 12  1  0
 10 13  1  0
 13 14  2  0
 14 15  1  0
 14 16  1  0
 16 17  2  0
 17 18  1  0
 17 19  1  0
 19 20  1  0
 19 21  2  0
 21 22  1  0
  6 23  1  0
 23 24  1  0
 23 25  2  0
 25 26  1  0
 25  2  1  0
 21 13  1  0
M  END
>  <cnnaffinity>  (1) 
-5.17043

>  <filename>  (1) 
Clc1ccc(C[C@@H](Br)c2cccnc2)cn1

$$$$
