
     RDKit          3D

 29 31  0  0  0  0  0  0  0  0999 V2000
    4.9815    1.7912   16.9746 H   0  0  0  0  0  0  0  0  0  0  0  0
    5.4397    1.2868   17.8239 C   0  0  0  0  0  0  0  0  0  0  0  0
    6.6006    0.6584   17.5909 N   0  0  0  0  0  0  0  0  0  0  0  0
    7.1791    0.0315   18.6194 C   0  0  0  0  0  0  0  0  0  0  0  0
    8.1226   -0.4711   18.4223 H   0  0  0  0  0  0  0  0  0  0  0  0
    6.6351   -0.0085   19.9066 C   0  0  0  0  0  0  0  0  0  0  0  0
    7.3741   -0.7415   20.9385 C   0  0  0  0  0  0  0  0  0  0  0  0
    8.5430   -1.2843   20.6905 N   0  0  0  0  0  0  0  0  0  0  0  0
    9.0660   -2.0076   22.0897 S   0  0  0  0  0  0  0  0  0  0  0  0
    7.6297   -1.5464   22.9480 C   0  0  0  0  0  0  0  0  0  0  0  0
    7.3496   -1.7594   24.4088 C   0  0  0  0  0  0  0  0  0  0  0  0
    7.7920   -2.6996   24.7509 H   0  0  0  0  0  0  0  0  0  0  0  0
    6.2632   -1.8408   24.5097 H   0  0  0  0  0  0  0  0  0  0  0  0
    7.8933   -0.5894   25.2158 C   0  0  0  0  0  0  0  0  0  0  0  0
    9.2082   -0.6484   25.7159 C   0  0  0  0  0  0  0  0  0  0  0  0
    9.7466   -1.5957   25.7392 H   0  0  0  0  0  0  0  0  0  0  0  0
    9.8429    0.5084   26.1690 C   0  0  0  0  0  0  0  0  0  0  0  0
   10.8791    0.4841   26.4897 H   0  0  0  0  0  0  0  0  0  0  0  0
    9.1570    1.7216   26.1900 C   0  0  0  0  0  0  0  0  0  0  0  0
    9.6722    2.6283   26.4762 H   0  0  0  0  0  0  0  0  0  0  0  0
    7.8108    1.7742   25.8368 C   0  0  0  0  0  0  0  0  0  0  0  0
    7.2457    2.6949   25.9318 H   0  0  0  0  0  0  0  0  0  0  0  0
    7.1824    0.6203   25.3588 C   0  0  0  0  0  0  0  0  0  0  0  0
    5.4829    0.7234   24.9554 Cl  0  0  0  0  0  0  0  0  0  0  0  0
    6.8281   -0.8640   22.1860 N   0  0  0  0  0  0  0  0  0  0  0  0
    5.4223    0.6522   20.1444 C   0  0  0  0  0  0  0  0  0  0  0  0
    4.9787    0.6513   21.1437 H   0  0  0  0  0  0  0  0  0  0  0  0
    4.8171    1.3083   19.0779 C   0  0  0  0  0  0  0  0  0  0  0  0
    3.8833    1.8439   19.2025 H   0  0  0  0  0  0  0  0  0  0  0  0
  1  2  1  0
  2  3  2  0
  3  4  1  0
  4  5  1  0
  4  6  2  0
  6  7  1  0
  7  8  2  0
  8  9  1  0
  9 10  1  0
 10 11  1  0
 11 12  1  0
 11 13  1  0
 11 14  1  0
 14 15  2  0
 15 16  1  0
 15 17  1  0
 17 18  1  0
 17 19  2  0
 19 20  1  0
 19 21  1  0
 21 22  1  0
 21 23  2  0
 23 24  1  0
 10 25  2  0
  6 26  1  0
 26 27  1  0
 26 28  2  0
 28 29  1  0
 28  2  1  0
 25  7  1  0
 23 14  1  0
M  END
>  <cnnaffinity>  (1) 
-5.25349

>  <filename>  (1) 
Clc1ccccc1Cc1nc(-c2cccnc2)ns1

$$$$
