
     RDKit          3D

 36 38  0  0  0  0  0  0  0  0999 V2000
    5.1360    1.5678   16.8327 H   0  0  0  0  0  0  0  0  0  0  0  0
    5.6315    1.1844   17.7215 C   0  0  0  0  0  0  0  0  0  0  0  0
    6.7668    0.5014   17.5125 N   0  0  0  0  0  0  0  0  0  0  0  0
    7.4017    0.0212   18.5899 C   0  0  0  0  0  0  0  0  0  0  0  0
    8.3296   -0.5205   18.3859 H   0  0  0  0  0  0  0  0  0  0  0  0
    6.9558    0.2037   19.9119 C   0  0  0  0  0  0  0  0  0  0  0  0
    7.7460   -0.4265   21.0412 C   0  0  0  0  0  0  0  0  0  0  0  0
    7.4695   -1.8586   21.1200 N   0  0  0  0  0  0  0  0  0  0  0  0
    7.5329   -2.2385   20.1792 H   0  0  0  0  0  0  0  0  0  0  0  0
    6.1553   -2.2043   21.6728 C   0  0  0  0  0  0  0  0  0  0  0  0
    5.3162   -1.7777   21.1032 H   0  0  0  0  0  0  0  0  0  0  0  0
    6.0987   -1.7651   22.6708 H   0  0  0  0  0  0  0  0  0  0  0  0
    5.9764   -3.6962   21.8269 C   0  0  0  0  0  0  0  0  0  0  0  0
    5.8535   -4.2559   23.1112 C   0  0  0  0  0  0  0  0  0  0  0  0
    5.7900   -3.5857   23.9746 H   0  0  0  0  0  0  0  0  0  0  0  0
    5.8448   -5.6412   23.3003 C   0  0  0  0  0  0  0  0  0  0  0  0
    5.7733   -6.0414   24.3091 H   0  0  0  0  0  0  0  0  0  0  0  0
    5.9332   -6.4982   22.1928 C   0  0  0  0  0  0  0  0  0  0  0  0
    5.9598   -7.5791   22.3317 H   0  0  0  0  0  0  0  0  0  0  0  0
    5.9419   -5.9636   20.9005 C   0  0  0  0  0  0  0  0  0  0  0  0
    5.9082   -6.5884   20.0125 H   0  0  0  0  0  0  0  0  0  0  0  0
    5.9307   -4.5767   20.7314 C   0  0  0  0  0  0  0  0  0  0  0  0
    5.7971   -3.9370   19.1102 Cl  0  0  0  0  0  0  0  0  0  0  0  0
    7.7111    0.2642   22.4399 C   0  0  0  0  0  0  0  0  0  0  0  0
    7.2938    1.2714   22.3956 H   0  0  0  0  0  0  0  0  0  0  0  0
    7.2007   -0.2919   23.2309 H   0  0  0  0  0  0  0  0  0  0  0  0
    9.2561    0.2493   22.4949 C   0  0  0  0  0  0  0  0  0  0  0  0
    9.6559   -0.5184   23.1640 H   0  0  0  0  0  0  0  0  0  0  0  0
    9.7336    1.2026   22.7455 H   0  0  0  0  0  0  0  0  0  0  0  0
    9.2753   -0.1517   21.0023 C   0  0  0  0  0  0  0  0  0  0  0  0
    9.5036    0.7038   20.3611 H   0  0  0  0  0  0  0  0  0  0  0  0
    9.8967   -1.0032   20.7085 H   0  0  0  0  0  0  0  0  0  0  0  0
    5.7580    0.9071   20.1032 C   0  0  0  0  0  0  0  0  0  0  0  0
    5.3668    1.0512   21.1128 H   0  0  0  0  0  0  0  0  0  0  0  0
    5.0831    1.4097   18.9894 C   0  0  0  0  0  0  0  0  0  0  0  0
    4.1600    1.9718   19.0949 H   0  0  0  0  0  0  0  0  0  0  0  0
  1  2  1  0
  2  3  2  0
  3  4  1  0
  4  5  1  0
  4  6  2  0
  6  7  1  0
  7  8  1  0
  8  9  1  0
  8 10  1  0
 10 11  1  0
 10 12  1  0
 10 13  1  0
 13 14  2  0
 14 15  1  0
 14 16  1  0
 16 17  1  0
 16 18  2  0
 18 19  1  0
 18 20  1  0
 20 21  1  0
 20 22  2  0
 22 23  1  0
  7 24  1  0
 24 25  1  0
 24 26  1  0
 24 27  1  0
 27 28  1  0
 27 29  1  0
 27 30  1  0
 30 31  1  0
 30 32  1  0
  6 33  1  0
 33 34  1  0
 33 35  2  0
 35 36  1  0
 35  2  1  0
 30  7  1  0
 22 13  1  0
M  END
>  <cnnaffinity>  (1) 
-4.30439

>  <filename>  (1) 
Clc1ccccc1CNC1(c2cccnc2)CCC1

$$$$
