
     RDKit          3D

 34 35  0  0  0  0  0  0  0  0999 V2000
    7.9884   -1.9025   25.7324 Cl  0  0  0  0  0  0  0  0  0  0  0  0
    8.8267   -3.4160   25.9736 C   0  0  0  0  0  0  0  0  0  0  0  0
    8.8655   -3.9112   27.2813 C   0  0  0  0  0  0  0  0  0  0  0  0
    9.5699   -5.0870   27.5622 C   0  0  0  0  0  0  0  0  0  0  0  0
   10.2225   -5.7465   26.5158 C   0  0  0  0  0  0  0  0  0  0  0  0
   10.1163   -5.2741   25.2168 C   0  0  0  0  0  0  0  0  0  0  0  0
    9.4333   -4.0930   24.8973 C   0  0  0  0  0  0  0  0  0  0  0  0
    9.3511   -3.6353   23.4636 C   0  0  0  0  0  0  0  0  0  0  0  0
   10.4812   -2.6836   23.0398 C   0  0  0  0  0  0  0  0  0  0  0  0
   10.1848   -1.9897   21.7208 C   0  0  0  0  0  0  0  0  0  0  0  0
    9.0203   -1.1804   21.9239 O   0  0  0  0  0  0  0  0  0  0  0  0
    8.4636   -0.8065   20.7169 N   0  0  0  0  0  0  0  0  0  0  0  0
    7.2866   -0.3342   20.8750 C   0  0  0  0  0  0  0  0  0  0  0  0
    6.5243    0.2017   19.7383 C   0  0  0  0  0  0  0  0  0  0  0  0
    5.2814    0.8228   19.9385 C   0  0  0  0  0  0  0  0  0  0  0  0
    4.6525    1.4276   18.8503 C   0  0  0  0  0  0  0  0  0  0  0  0
    5.2792    1.3758   17.6010 C   0  0  0  0  0  0  0  0  0  0  0  0
    6.4357    0.7332   17.3786 N   0  0  0  0  0  0  0  0  0  0  0  0
    7.0356    0.1625   18.4266 C   0  0  0  0  0  0  0  0  0  0  0  0
    7.9721   -0.3490   18.2209 H   0  0  0  0  0  0  0  0  0  0  0  0
    4.8364    1.8694   16.7398 H   0  0  0  0  0  0  0  0  0  0  0  0
    3.7108    1.9543   18.9600 H   0  0  0  0  0  0  0  0  0  0  0  0
    4.8189    0.8449   20.9280 H   0  0  0  0  0  0  0  0  0  0  0  0
    6.8136   -0.2984   21.8633 H   0  0  0  0  0  0  0  0  0  0  0  0
    9.9723   -2.7163   20.9316 H   0  0  0  0  0  0  0  0  0  0  0  0
   11.0165   -1.3527   21.3969 H   0  0  0  0  0  0  0  0  0  0  0  0
   10.6466   -1.9158   23.8007 H   0  0  0  0  0  0  0  0  0  0  0  0
   11.4237   -3.2325   22.9496 H   0  0  0  0  0  0  0  0  0  0  0  0
    9.3641   -4.5145   22.8075 H   0  0  0  0  0  0  0  0  0  0  0  0
    8.3829   -3.1567   23.2942 H   0  0  0  0  0  0  0  0  0  0  0  0
   10.5464   -5.8861   24.4413 H   0  0  0  0  0  0  0  0  0  0  0  0
   10.8187   -6.6424   26.6486 H   0  0  0  0  0  0  0  0  0  0  0  0
    9.6015   -5.5123   28.5623 H   0  0  0  0  0  0  0  0  0  0  0  0
    8.3086   -3.3757   28.0396 H   0  0  0  0  0  0  0  0  0  0  0  0
  1  2  1  0
  2  3  2  0
  3  4  1  0
  4  5  2  0
  5  6  1  0
  6  7  2  0
  7  8  1  0
  8  9  1  0
  9 10  1  0
 10 11  1  0
 11 12  1  0
 12 13  2  3
 13 14  1  0
 14 15  2  0
 15 16  1  0
 16 17  2  0
 17 18  1  0
 18 19  2  0
 19 20  1  0
 17 21  1  0
 16 22  1  0
 15 23  1  0
 13 24  1  0
 10 25  1  0
 10 26  1  0
  9 27  1  0
  9 28  1  0
  8 29  1  0
  8 30  1  0
  6 31  1  0
  5 32  1  0
  4 33  1  0
  3 34  1  0
  7  2  1  0
 19 14  1  0
M  END
>  <cnnaffinity>  (1) 
-5.05353

>  <filename>  (1) 
Clc1ccccc1CCCON=Cc1cccnc1

$$$$
