
     RDKit          3D

 34 35  0  0  0  0  0  0  0  0999 V2000
    2.5423   -5.4662   27.5136 Cl  0  0  0  0  0  0  0  0  0  0  0  0
    4.0150   -4.5652   27.3119 C   0  0  0  0  0  0  0  0  0  0  0  0
    5.2239   -5.2523   27.1705 C   0  0  0  0  0  0  0  0  0  0  0  0
    6.3998   -4.5171   27.0150 C   0  0  0  0  0  0  0  0  0  0  0  0
    6.3897   -3.1132   27.0014 C   0  0  0  0  0  0  0  0  0  0  0  0
    7.6725   -2.3406   26.7737 C   0  0  0  0  0  0  0  0  0  0  0  0
    8.0934   -2.2836   25.2911 C   0  0  0  0  0  0  0  0  0  0  0  0
    7.1452   -1.4953   24.3968 C   0  0  0  0  0  0  0  0  0  0  0  0
    7.7221   -1.4796   23.0790 O   0  0  0  0  0  0  0  0  0  0  0  0
    6.9158   -0.7711   22.2143 N   0  0  0  0  0  0  0  0  0  0  0  0
    7.3778   -0.7139   21.0190 C   0  0  0  0  0  0  0  0  0  0  0  0
    6.6508    0.0019   19.9468 C   0  0  0  0  0  0  0  0  0  0  0  0
    5.4263    0.6557   20.1722 C   0  0  0  0  0  0  0  0  0  0  0  0
    4.8092    1.3066   19.1053 C   0  0  0  0  0  0  0  0  0  0  0  0
    5.4129    1.2835   17.8451 C   0  0  0  0  0  0  0  0  0  0  0  0
    6.5774    0.6582   17.6066 N   0  0  0  0  0  0  0  0  0  0  0  0
    7.1712    0.0491   18.6393 C   0  0  0  0  0  0  0  0  0  0  0  0
    8.1164   -0.4236   18.3745 H   0  0  0  0  0  0  0  0  0  0  0  0
    4.9374    1.7760   16.9965 H   0  0  0  0  0  0  0  0  0  0  0  0
    3.8780    1.8409   19.2491 H   0  0  0  0  0  0  0  0  0  0  0  0
    4.9927    0.6416   21.1709 H   0  0  0  0  0  0  0  0  0  0  0  0
    8.3221   -1.1948   20.7515 H   0  0  0  0  0  0  0  0  0  0  0  0
    7.0211   -0.4722   24.7717 H   0  0  0  0  0  0  0  0  0  0  0  0
    6.1491   -1.9523   24.3656 H   0  0  0  0  0  0  0  0  0  0  0  0
    9.0939   -1.8445   25.2110 H   0  0  0  0  0  0  0  0  0  0  0  0
    8.1756   -3.3063   24.9074 H   0  0  0  0  0  0  0  0  0  0  0  0
    8.4776   -2.7948   27.3665 H   0  0  0  0  0  0  0  0  0  0  0  0
    7.5706   -1.3219   27.1700 H   0  0  0  0  0  0  0  0  0  0  0  0
    5.1578   -2.4571   27.1371 C   0  0  0  0  0  0  0  0  0  0  0  0
    3.9663   -3.1692   27.2946 C   0  0  0  0  0  0  0  0  0  0  0  0
    3.0129   -2.6601   27.4061 H   0  0  0  0  0  0  0  0  0  0  0  0
    5.1315   -1.3694   27.1090 H   0  0  0  0  0  0  0  0  0  0  0  0
    7.3459   -5.0409   26.8939 H   0  0  0  0  0  0  0  0  0  0  0  0
    5.2344   -6.3391   27.1863 H   0  0  0  0  0  0  0  0  0  0  0  0
  1  2  1  0
  2  3  2  0
  3  4  1  0
  4  5  2  0
  5  6  1  0
  6  7  1  0
  7  8  1  0
  8  9  1  0
  9 10  1  0
 10 11  2  3
 11 12  1  0
 12 13  2  0
 13 14  1  0
 14 15  2  0
 15 16  1  0
 16 17  2  0
 17 18  1  0
 15 19  1  0
 14 20  1  0
 13 21  1  0
 11 22  1  0
  8 23  1  0
  8 24  1  0
  7 25  1  0
  7 26  1  0
  6 27  1  0
  6 28  1  0
  5 29  1  0
 29 30  2  0
 30 31  1  0
 29 32  1  0
  4 33  1  0
  3 34  1  0
 30  2  1  0
 17 12  1  0
M  END
>  <cnnaffinity>  (1) 
-5.06535

>  <filename>  (1) 
Clc1ccc(CCCON=Cc2cccnc2)cc1

$$$$
