
     RDKit          3D

 30 33  0  0  0  0  0  0  0  0999 V2000
    4.9092    1.7705   17.0069 H   0  0  0  0  0  0  0  0  0  0  0  0
    5.4043    1.2884   17.8487 C   0  0  0  0  0  0  0  0  0  0  0  0
    6.5734    0.6758   17.5935 N   0  0  0  0  0  0  0  0  0  0  0  0
    7.1825    0.0566   18.6115 C   0  0  0  0  0  0  0  0  0  0  0  0
    8.1314   -0.4353   18.3778 H   0  0  0  0  0  0  0  0  0  0  0  0
    6.6579    0.0069   19.9160 C   0  0  0  0  0  0  0  0  0  0  0  0
    7.3484   -0.6922   21.0027 C   0  0  0  0  0  0  0  0  0  0  0  0
    6.8610   -0.7428   22.2063 N   0  0  0  0  0  0  0  0  0  0  0  0
    7.7175   -1.4477   22.9844 N   0  0  0  0  0  0  0  0  0  0  0  0
    7.7296   -1.8491   24.3103 C   0  0  0  0  0  0  0  0  0  0  0  0
    6.7211   -1.4902   25.3040 C   0  0  0  0  0  0  0  0  0  0  0  0
    6.2235   -0.1713   25.3366 C   0  0  0  0  0  0  0  0  0  0  0  0
    6.5720    0.5513   24.6028 H   0  0  0  0  0  0  0  0  0  0  0  0
    5.2934    0.2098   26.2958 C   0  0  0  0  0  0  0  0  0  0  0  0
    4.9177    1.2291   26.3068 H   0  0  0  0  0  0  0  0  0  0  0  0
    4.8452   -0.7115   27.2432 C   0  0  0  0  0  0  0  0  0  0  0  0
    4.1210   -0.4078   27.9923 H   0  0  0  0  0  0  0  0  0  0  0  0
    5.3211   -2.0267   27.2295 C   0  0  0  0  0  0  0  0  0  0  0  0
    4.7177   -3.1303   28.4213 Cl  0  0  0  0  0  0  0  0  0  0  0  0
    6.2548   -2.4277   26.2600 C   0  0  0  0  0  0  0  0  0  0  0  0
    6.7699   -4.0859   26.2134 Cl  0  0  0  0  0  0  0  0  0  0  0  0
    8.9055   -2.5531   24.4265 C   0  0  0  0  0  0  0  0  0  0  0  0
    9.2875   -3.0037   25.3304 H   0  0  0  0  0  0  0  0  0  0  0  0
    9.5986   -2.6246   23.2512 N   0  0  0  0  0  0  0  0  0  0  0  0
    8.8472   -1.9498   22.4181 C   0  0  0  0  0  0  0  0  0  0  0  0
    8.8977   -1.5140   20.7471 S   0  0  0  0  0  0  0  0  0  0  0  0
    5.4377    0.6541   20.1628 C   0  0  0  0  0  0  0  0  0  0  0  0
    5.0083    0.6284   21.1617 H   0  0  0  0  0  0  0  0  0  0  0  0
    4.8049    1.3112   19.1128 C   0  0  0  0  0  0  0  0  0  0  0  0
    3.8710    1.8459   19.2672 H   0  0  0  0  0  0  0  0  0  0  0  0
  1  2  1  0
  2  3  2  0
  3  4  1  0
  4  5  1  0
  4  6  2  0
  6  7  1  0
  7  8  2  0
  8  9  1  0
  9 10  1  0
 10 11  1  0
 11 12  2  0
 12 13  1  0
 12 14  1  0
 14 15  1  0
 14 16  2  0
 16 17  1  0
 16 18  1  0
 18 19  1  0
 18 20  2  0
 20 21  1  0
 10 22  2  0
 22 23  1  0
 22 24  1  0
 24 25  2  0
 25 26  1  0
  6 27  1  0
 27 28  1  0
 27 29  2  0
 29 30  1  0
 29  2  1  0
 26  7  1  0
 25  9  1  0
 20 11  1  0
M  END
>  <cnnaffinity>  (1) 
-5.7136

>  <filename>  (1) 
Clc1cccc(-c2cnc3sc(-c4cccnc4)nn23)c1Cl

$$$$
