
     RDKit          3D

 35 37  0  0  0  0  0  0  0  0999 V2000
    7.1855    3.0753   22.2891 Cl  0  0  0  0  0  0  0  0  0  0  0  0
    8.8748    3.2802   22.6722 C   0  0  0  0  0  0  0  0  0  0  0  0
    9.3266    4.4816   23.2173 C   0  0  0  0  0  0  0  0  0  0  0  0
   10.6892    4.6240   23.5110 C   0  0  0  0  0  0  0  0  0  0  0  0
   11.5736    3.5816   23.2619 C   0  0  0  0  0  0  0  0  0  0  0  0
   11.0962    2.3878   22.7048 C   0  0  0  0  0  0  0  0  0  0  0  0
   12.0572    1.4631   22.4542 O   0  0  0  0  0  0  0  0  0  0  0  0
   11.6834    0.1850   21.9786 C   0  0  0  0  0  0  0  0  0  0  0  0
   11.0743   -0.6122   23.1218 C   0  0  0  0  0  0  0  0  0  0  0  0
   10.5034   -2.2554   22.5911 S   0  0  0  0  0  0  0  0  0  0  0  0
    8.9018   -1.6833   22.0472 C   0  0  0  0  0  0  0  0  0  0  0  0
    7.8821   -1.6615   22.8819 N   0  0  0  0  0  0  0  0  0  0  0  0
    6.9328   -1.0159   22.1567 N   0  0  0  0  0  0  0  0  0  0  0  0
    7.4091   -0.6870   20.9415 C   0  0  0  0  0  0  0  0  0  0  0  0
    6.6469    0.0255   19.9174 C   0  0  0  0  0  0  0  0  0  0  0  0
    5.4247    0.6789   20.1588 C   0  0  0  0  0  0  0  0  0  0  0  0
    4.7992    1.3211   19.0950 C   0  0  0  0  0  0  0  0  0  0  0  0
    5.4037    1.2925   17.8329 C   0  0  0  0  0  0  0  0  0  0  0  0
    6.5658    0.6666   17.5912 N   0  0  0  0  0  0  0  0  0  0  0  0
    7.1707    0.0609   18.6169 C   0  0  0  0  0  0  0  0  0  0  0  0
    8.1167   -0.4233   18.3859 H   0  0  0  0  0  0  0  0  0  0  0  0
    4.9444    1.7910   16.9807 H   0  0  0  0  0  0  0  0  0  0  0  0
    3.8641    1.8530   19.2316 H   0  0  0  0  0  0  0  0  0  0  0  0
    4.9667    0.7004   21.1493 H   0  0  0  0  0  0  0  0  0  0  0  0
    8.6659   -1.1023   20.8382 N   0  0  0  0  0  0  0  0  0  0  0  0
    6.0223   -0.8156   22.5472 H   0  0  0  0  0  0  0  0  0  0  0  0
   10.2202   -0.1079   23.5870 H   0  0  0  0  0  0  0  0  0  0  0  0
   11.8388   -0.6347   23.8974 H   0  0  0  0  0  0  0  0  0  0  0  0
   11.0286    0.2495   21.1007 H   0  0  0  0  0  0  0  0  0  0  0  0
   12.6247   -0.2755   21.6799 H   0  0  0  0  0  0  0  0  0  0  0  0
    9.7376    2.2164   22.4121 C   0  0  0  0  0  0  0  0  0  0  0  0
    9.3553    1.2951   21.9801 H   0  0  0  0  0  0  0  0  0  0  0  0
   12.6390    3.6394   23.4580 H   0  0  0  0  0  0  0  0  0  0  0  0
   11.0650    5.5579   23.9247 H   0  0  0  0  0  0  0  0  0  0  0  0
    8.6233    5.2843   23.3934 H   0  0  0  0  0  0  0  0  0  0  0  0
  1  2  1  0
  2  3  2  0
  3  4  1  0
  4  5  2  0
  5  6  1  0
  6  7  1  0
  7  8  1  0
  8  9  1  0
  9 10  1  0
 10 11  1  0
 11 12  2  0
 12 13  1  0
 13 14  1  0
 14 15  1  0
 15 16  2  0
 16 17  1  0
 17 18  2  0
 18 19  1  0
 19 20  2  0
 20 21  1  0
 18 22  1  0
 17 23  1  0
 16 24  1  0
 14 25  2  0
 13 26  1  0
  9 27  1  0
  9 28  1  0
  8 29  1  0
  8 30  1  0
  6 31  2  0
 31 32  1  0
  5 33  1  0
  4 34  1  0
  3 35  1  0
 31  2  1  0
 25 11  1  0
 20 15  1  0
M  END
>  <cnnaffinity>  (1) 
-5.67038

>  <filename>  (1) 
Clc1cccc(OCCSc2n[nH]c(-c3cccnc3)n2)c1

$$$$
