
     RDKit          3D

 30 32  0  0  0  0  0  0  0  0999 V2000
    4.9277    1.7862   16.9926 H   0  0  0  0  0  0  0  0  0  0  0  0
    5.4067    1.2921   17.8354 C   0  0  0  0  0  0  0  0  0  0  0  0
    6.5716    0.6735   17.5790 N   0  0  0  0  0  0  0  0  0  0  0  0
    7.1773    0.0468   18.5903 C   0  0  0  0  0  0  0  0  0  0  0  0
    8.1251   -0.4374   18.3741 H   0  0  0  0  0  0  0  0  0  0  0  0
    6.6510    0.0006   19.8971 C   0  0  0  0  0  0  0  0  0  0  0  0
    7.3652   -0.6673   20.9384 N   0  0  0  0  0  0  0  0  0  0  0  0
    7.9990   -1.8381   20.7315 N   0  0  0  0  0  0  0  0  0  0  0  0
    8.5243   -2.1809   21.8447 N   0  0  0  0  0  0  0  0  0  0  0  0
    8.2675   -1.2733   22.8136 N   0  0  0  0  0  0  0  0  0  0  0  0
    7.5608   -0.3253   22.2390 C   0  0  0  0  0  0  0  0  0  0  0  0
    7.1220    1.2393   22.9338 S   0  0  0  0  0  0  0  0  0  0  0  0
    8.5098    2.2341   22.2128 C   0  0  0  0  0  0  0  0  0  0  0  0
    8.4825    2.1087   21.1270 H   0  0  0  0  0  0  0  0  0  0  0  0
    8.2662    3.2784   22.4397 H   0  0  0  0  0  0  0  0  0  0  0  0
    9.8528    1.8236   22.7636 C   0  0  0  0  0  0  0  0  0  0  0  0
   10.7170    0.9977   22.0227 C   0  0  0  0  0  0  0  0  0  0  0  0
   10.3910    0.6624   21.0432 H   0  0  0  0  0  0  0  0  0  0  0  0
   11.9281    0.5406   22.5483 C   0  0  0  0  0  0  0  0  0  0  0  0
   12.5725   -0.1014   21.9545 H   0  0  0  0  0  0  0  0  0  0  0  0
   12.3033    0.9145   23.8403 C   0  0  0  0  0  0  0  0  0  0  0  0
   13.2495    0.5868   24.2602 H   0  0  0  0  0  0  0  0  0  0  0  0
   11.4571    1.7210   24.5989 C   0  0  0  0  0  0  0  0  0  0  0  0
   11.7085    2.0393   25.5957 H   0  0  0  0  0  0  0  0  0  0  0  0
   10.2464    2.1603   24.0681 C   0  0  0  0  0  0  0  0  0  0  0  0
    9.2420    3.1565   25.0780 Cl  0  0  0  0  0  0  0  0  0  0  0  0
    5.4343    0.6349   20.1651 C   0  0  0  0  0  0  0  0  0  0  0  0
    4.9987    0.6286   21.1677 H   0  0  0  0  0  0  0  0  0  0  0  0
    4.8121    1.2990   19.1036 C   0  0  0  0  0  0  0  0  0  0  0  0
    3.8828    1.8349   19.2581 H   0  0  0  0  0  0  0  0  0  0  0  0
  1  2  1  0
  2  3  2  0
  3  4  1  0
  4  5  1  0
  4  6  2  0
  6  7  1  0
  7  8  1  0
  8  9  2  0
  9 10  1  0
 10 11  2  0
 11 12  1  0
 12 13  1  0
 13 14  1  0
 13 15  1  0
 13 16  1  0
 16 17  2  0
 17 18  1  0
 17 19  1  0
 19 20  1  0
 19 21  2  0
 21 22  1  0
 21 23  1  0
 23 24  1  0
 23 25  2  0
 25 26  1  0
  6 27  1  0
 27 28  1  0
 27 29  2  0
 29 30  1  0
 29  2  1  0
 11  7  1  0
 25 16  1  0
M  END
>  <cnnaffinity>  (1) 
-5.58422

>  <filename>  (1) 
Clc1ccccc1CSc1nnnn1-c1cccnc1

$$$$
