
     RDKit          3D

 31 33  0  0  0  0  0  0  0  0999 V2000
    5.0503    1.7748   16.9443 H   0  0  0  0  0  0  0  0  0  0  0  0
    5.4560    1.3010   17.8347 C   0  0  0  0  0  0  0  0  0  0  0  0
    6.6230    0.6569   17.6675 N   0  0  0  0  0  0  0  0  0  0  0  0
    7.1540    0.0542   18.7363 C   0  0  0  0  0  0  0  0  0  0  0  0
    8.1067   -0.4617   18.5945 H   0  0  0  0  0  0  0  0  0  0  0  0
    6.5616    0.0651   20.0185 C   0  0  0  0  0  0  0  0  0  0  0  0
    7.1688   -0.6670   21.0844 N   0  0  0  0  0  0  0  0  0  0  0  0
    7.6080   -0.2348   22.3274 C   0  0  0  0  0  0  0  0  0  0  0  0
    7.3289    1.0805   22.9944 C   0  0  0  0  0  0  0  0  0  0  0  0
    6.6501    0.8658   23.8306 H   0  0  0  0  0  0  0  0  0  0  0  0
    6.8254    1.7693   22.3171 H   0  0  0  0  0  0  0  0  0  0  0  0
    8.6034    1.6973   23.5369 C   0  0  0  0  0  0  0  0  0  0  0  0
    8.9495    1.5185   24.8818 C   0  0  0  0  0  0  0  0  0  0  0  0
    8.2131    1.0637   25.5409 H   0  0  0  0  0  0  0  0  0  0  0  0
   10.2136    1.8615   25.3620 C   0  0  0  0  0  0  0  0  0  0  0  0
   10.4664    1.6542   26.3953 H   0  0  0  0  0  0  0  0  0  0  0  0
   11.1457    2.4490   24.5017 C   0  0  0  0  0  0  0  0  0  0  0  0
   12.1391    2.6861   24.8708 H   0  0  0  0  0  0  0  0  0  0  0  0
   10.8024    2.7102   23.1725 C   0  0  0  0  0  0  0  0  0  0  0  0
   11.4990    3.1975   22.4994 H   0  0  0  0  0  0  0  0  0  0  0  0
    9.5433    2.3185   22.7015 C   0  0  0  0  0  0  0  0  0  0  0  0
    9.1575    2.5300   21.0253 Cl  0  0  0  0  0  0  0  0  0  0  0  0
    8.2420   -1.1898   22.9652 N   0  0  0  0  0  0  0  0  0  0  0  0
    8.2007   -2.2903   22.1545 C   0  0  0  0  0  0  0  0  0  0  0  0
    8.6530   -3.2250   22.4655 H   0  0  0  0  0  0  0  0  0  0  0  0
    7.5350   -1.9997   21.0014 C   0  0  0  0  0  0  0  0  0  0  0  0
    7.1959   -2.6056   20.1769 H   0  0  0  0  0  0  0  0  0  0  0  0
    5.3552    0.7638   20.1862 C   0  0  0  0  0  0  0  0  0  0  0  0
    4.8790    0.8098   21.1690 H   0  0  0  0  0  0  0  0  0  0  0  0
    4.7876    1.3785   19.0623 C   0  0  0  0  0  0  0  0  0  0  0  0
    3.8578    1.9343   19.1349 H   0  0  0  0  0  0  0  0  0  0  0  0
  1  2  1  0
  2  3  2  0
  3  4  1  0
  4  5  1  0
  4  6  2  0
  6  7  1  0
  7  8  1  0
  8  9  1  0
  9 10  1  0
  9 11  1  0
  9 12  1  0
 12 13  2  0
 13 14  1  0
 13 15  1  0
 15 16  1  0
 15 17  2  0
 17 18  1  0
 17 19  1  0
 19 20  1  0
 19 21  2  0
 21 22  1  0
  8 23  2  0
 23 24  1  0
 24 25  1  0
 24 26  2  0
 26 27  1  0
  6 28  1  0
 28 29  1  0
 28 30  2  0
 30 31  1  0
 30  2  1  0
 26  7  1  0
 21 12  1  0
M  END
>  <cnnaffinity>  (1) 
-5.48589

>  <filename>  (1) 
Clc1ccccc1Cc1nccn1-c1cccnc1

$$$$
