
     RDKit          3D

 31 33  0  0  0  0  0  0  0  0999 V2000
    4.9467    1.8068   16.9761 H   0  0  0  0  0  0  0  0  0  0  0  0
    5.3979    1.3002   17.8316 C   0  0  0  0  0  0  0  0  0  0  0  0
    6.5561    0.6675   17.5918 N   0  0  0  0  0  0  0  0  0  0  0  0
    7.1514    0.0462   18.6175 C   0  0  0  0  0  0  0  0  0  0  0  0
    8.0895   -0.4527   18.3832 H   0  0  0  0  0  0  0  0  0  0  0  0
    6.6323    0.0289   19.9200 C   0  0  0  0  0  0  0  0  0  0  0  0
    7.3591   -0.7064   20.9589 C   0  0  0  0  0  0  0  0  0  0  0  0
    7.9969   -1.8486   20.8061 N   0  0  0  0  0  0  0  0  0  0  0  0
    8.5310   -2.1493   22.0095 N   0  0  0  0  0  0  0  0  0  0  0  0
    8.2735   -1.2329   22.8726 N   0  0  0  0  0  0  0  0  0  0  0  0
    7.5284   -0.3065   22.2350 N   0  0  0  0  0  0  0  0  0  0  0  0
    7.1975    0.9556   22.8569 C   0  0  0  0  0  0  0  0  0  0  0  0
    8.0254    1.2085   23.5394 H   0  0  0  0  0  0  0  0  0  0  0  0
    7.1522    1.7309   22.0764 H   0  0  0  0  0  0  0  0  0  0  0  0
    5.9201    0.8456   23.5062 N   0  0  0  0  0  0  0  0  0  0  0  0
    5.5712   -0.0851   23.6910 H   0  0  0  0  0  0  0  0  0  0  0  0
    5.3477    1.8562   24.2549 C   0  0  0  0  0  0  0  0  0  0  0  0
    4.1412    1.5970   24.9275 C   0  0  0  0  0  0  0  0  0  0  0  0
    3.7446    0.5864   24.8890 H   0  0  0  0  0  0  0  0  0  0  0  0
    3.4774    2.6148   25.6179 C   0  0  0  0  0  0  0  0  0  0  0  0
    2.5338    2.4347   26.1272 H   0  0  0  0  0  0  0  0  0  0  0  0
    4.0330    3.8984   25.6529 C   0  0  0  0  0  0  0  0  0  0  0  0
    3.2053    5.1738   26.5020 Cl  0  0  0  0  0  0  0  0  0  0  0  0
    5.2463    4.1695   25.0159 C   0  0  0  0  0  0  0  0  0  0  0  0
    5.6546    5.1774   25.0570 H   0  0  0  0  0  0  0  0  0  0  0  0
    5.9048    3.1466   24.3250 C   0  0  0  0  0  0  0  0  0  0  0  0
    6.8518    3.3287   23.8271 H   0  0  0  0  0  0  0  0  0  0  0  0
    5.4169    0.6861   20.1569 C   0  0  0  0  0  0  0  0  0  0  0  0
    4.9767    0.6913   21.1517 H   0  0  0  0  0  0  0  0  0  0  0  0
    4.7856    1.3282   19.0871 C   0  0  0  0  0  0  0  0  0  0  0  0
    3.8499    1.8566   19.2185 H   0  0  0  0  0  0  0  0  0  0  0  0
  1  2  1  0
  2  3  2  0
  3  4  1  0
  4  5  1  0
  4  6  2  0
  6  7  1  0
  7  8  2  0
  8  9  1  0
  9 10  2  0
 10 11  1  0
 11 12  1  0
 12 13  1  0
 12 14  1  0
 12 15  1  0
 15 16  1  0
 15 17  1  0
 17 18  2  0
 18 19  1  0
 18 20  1  0
 20 21  1  0
 20 22  2  0
 22 23  1  0
 22 24  1  0
 24 25  1  0
 24 26  2  0
 26 27  1  0
  6 28  1  0
 28 29  1  0
 28 30  2  0
 30 31  1  0
 30  2  1  0
 11  7  1  0
 26 17  1  0
M  END
>  <cnnaffinity>  (1) 
-4.79298

>  <filename>  (1) 
Clc1ccc(NCn2nnnc2-c2cccnc2)cc1

$$$$
