
     RDKit          3D

 30 32  0  0  0  0  0  0  0  0999 V2000
    8.7330   -2.0083   19.9415 H   0  0  0  0  0  0  0  0  0  0  0  0
    8.3431   -1.6700   20.8845 C   0  0  0  0  0  0  0  0  0  0  0  0
    8.8448   -2.1940   22.0428 N   0  0  0  0  0  0  0  0  0  0  0  0
    8.2843   -1.6092   23.0607 C   0  0  0  0  0  0  0  0  0  0  0  0
    8.5694   -1.9876   24.4731 C   0  0  0  0  0  0  0  0  0  0  0  0
    9.6072   -2.3262   24.5162 H   0  0  0  0  0  0  0  0  0  0  0  0
    8.4782   -1.1105   25.1116 H   0  0  0  0  0  0  0  0  0  0  0  0
    7.6277   -3.0723   24.9227 C   0  0  0  0  0  0  0  0  0  0  0  0
    7.9496   -4.4056   24.6859 C   0  0  0  0  0  0  0  0  0  0  0  0
    8.8924   -4.6722   24.2157 H   0  0  0  0  0  0  0  0  0  0  0  0
    7.0667   -5.4101   25.0551 C   0  0  0  0  0  0  0  0  0  0  0  0
    7.3714   -6.4241   24.9121 H   0  0  0  0  0  0  0  0  0  0  0  0
    5.8330   -5.1175   25.6403 C   0  0  0  0  0  0  0  0  0  0  0  0
    4.7768   -6.4220   26.0713 Cl  0  0  0  0  0  0  0  0  0  0  0  0
    5.4947   -3.7734   25.8620 C   0  0  0  0  0  0  0  0  0  0  0  0
    3.9868   -3.3260   26.5812 Cl  0  0  0  0  0  0  0  0  0  0  0  0
    6.3946   -2.7666   25.5008 C   0  0  0  0  0  0  0  0  0  0  0  0
    6.1070   -1.7348   25.6676 H   0  0  0  0  0  0  0  0  0  0  0  0
    7.1070   -0.4067   22.6658 S   0  0  0  0  0  0  0  0  0  0  0  0
    7.3855   -0.7069   20.9804 C   0  0  0  0  0  0  0  0  0  0  0  0
    6.6609    0.0049   19.9114 C   0  0  0  0  0  0  0  0  0  0  0  0
    7.1629    0.0668   18.5912 C   0  0  0  0  0  0  0  0  0  0  0  0
    8.1144   -0.4075   18.3593 H   0  0  0  0  0  0  0  0  0  0  0  0
    6.5598    0.6818   17.5691 N   0  0  0  0  0  0  0  0  0  0  0  0
    5.3957    1.2967   17.8322 C   0  0  0  0  0  0  0  0  0  0  0  0
    4.9179    1.7875   16.9882 H   0  0  0  0  0  0  0  0  0  0  0  0
    4.8048    1.3119   19.0999 C   0  0  0  0  0  0  0  0  0  0  0  0
    3.8741    1.8423   19.2541 H   0  0  0  0  0  0  0  0  0  0  0  0
    5.4359    0.6554   20.1566 C   0  0  0  0  0  0  0  0  0  0  0  0
    5.0083    0.6332   21.1605 H   0  0  0  0  0  0  0  0  0  0  0  0
  1  2  1  0
  2  3  1  0
  3  4  2  0
  4  5  1  0
  5  6  1  0
  5  7  1  0
  5  8  1  0
  8  9  2  0
  9 10  1  0
  9 11  1  0
 11 12  1  0
 11 13  2  0
 13 14  1  0
 13 15  1  0
 15 16  1  0
 15 17  2  0
 17 18  1  0
  4 19  1  0
 19 20  1  0
 20 21  1  0
 21 22  2  0
 22 23  1  0
 22 24  1  0
 24 25  2  0
 25 26  1  0
 25 27  1  0
 27 28  1  0
 27 29  2  0
 29 30  1  0
 20  2  2  0
 29 21  1  0
 17  8  1  0
M  END
>  <cnnaffinity>  (1) 
-5.49574

>  <filename>  (1) 
Clc1ccc(Cc2ncc(-c3cccnc3)s2)cc1Cl

$$$$
