
     RDKit          3D

 35 38  0  0  0  0  0  0  0  0999 V2000
    4.9792    1.8386   16.9329 H   0  0  0  0  0  0  0  0  0  0  0  0
    5.3892    1.3053   17.7896 C   0  0  0  0  0  0  0  0  0  0  0  0
    6.5456    0.6552   17.5862 N   0  0  0  0  0  0  0  0  0  0  0  0
    7.0878    0.0325   18.6446 C   0  0  0  0  0  0  0  0  0  0  0  0
    8.0321   -0.4776   18.4446 H   0  0  0  0  0  0  0  0  0  0  0  0
    6.5140   -0.0075   19.9339 C   0  0  0  0  0  0  0  0  0  0  0  0
    7.2657   -0.6305   21.0454 C   0  0  0  0  0  0  0  0  0  0  0  0
    8.6223   -0.5938   21.2779 C   0  0  0  0  0  0  0  0  0  0  0  0
    8.8265   -1.1946   22.5095 C   0  0  0  0  0  0  0  0  0  0  0  0
    7.7099   -1.6318   23.0574 N   0  0  0  0  0  0  0  0  0  0  0  0
    6.7613   -1.2659   22.1507 N   0  0  0  0  0  0  0  0  0  0  0  0
    5.7967   -1.4771   22.3728 H   0  0  0  0  0  0  0  0  0  0  0  0
   10.2574   -1.1283   22.9578 C   0  0  0  0  0  0  0  0  0  0  0  0
   10.6937   -2.1255   23.0451 H   0  0  0  0  0  0  0  0  0  0  0  0
   10.3619   -0.6507   23.9372 H   0  0  0  0  0  0  0  0  0  0  0  0
   10.9520   -0.2811   21.8323 C   0  0  2  0  0  0  0  0  0  0  0  0
   11.7737   -0.8648   21.4180 H   0  0  0  0  0  0  0  0  0  0  0  0
   11.4910    1.0216   22.3862 C   0  0  0  0  0  0  0  0  0  0  0  0
   10.5728    1.9841   22.8531 C   0  0  0  0  0  0  0  0  0  0  0  0
    9.5090    1.7516   22.8398 H   0  0  0  0  0  0  0  0  0  0  0  0
   10.9889    3.2332   23.3094 C   0  0  0  0  0  0  0  0  0  0  0  0
   10.2567    3.9524   23.6633 H   0  0  0  0  0  0  0  0  0  0  0  0
   12.3477    3.5608   23.2775 C   0  0  0  0  0  0  0  0  0  0  0  0
   12.6701    4.5577   23.5603 H   0  0  0  0  0  0  0  0  0  0  0  0
   13.2859    2.6096   22.8713 C   0  0  0  0  0  0  0  0  0  0  0  0
   14.3399    2.8596   22.8239 H   0  0  0  0  0  0  0  0  0  0  0  0
   12.8590    1.3337   22.4872 C   0  0  0  0  0  0  0  0  0  0  0  0
   14.0869    0.1384   22.1382 Cl  0  0  0  0  0  0  0  0  0  0  0  0
    9.8859   -0.0573   20.7022 C   0  0  0  0  0  0  0  0  0  0  0  0
    9.7927    0.9923   20.4005 H   0  0  0  0  0  0  0  0  0  0  0  0
   10.1642   -0.6072   19.8040 H   0  0  0  0  0  0  0  0  0  0  0  0
    5.2884    0.6614   20.1103 C   0  0  0  0  0  0  0  0  0  0  0  0
    4.8064    0.7020   21.0897 H   0  0  0  0  0  0  0  0  0  0  0  0
    4.7289    1.3324   19.0223 C   0  0  0  0  0  0  0  0  0  0  0  0
    3.8115    1.9025   19.1227 H   0  0  0  0  0  0  0  0  0  0  0  0
  1  2  1  0
  2  3  2  0
  3  4  1  0
  4  5  1  0
  4  6  2  0
  6  7  1  0
  7  8  2  0
  8  9  1  0
  9 10  2  0
 10 11  1  0
 11 12  1  0
  9 13  1  0
 13 14  1  0
 13 15  1  0
 13 16  1  0
 16 17  1  6
 16 18  1  0
 18 19  2  0
 19 20  1  0
 19 21  1  0
 21 22  1  0
 21 23  2  0
 23 24  1  0
 23 25  1  0
 25 26  1  0
 25 27  2  0
 27 28  1  0
 16 29  1  0
 29 30  1  0
 29 31  1  0
  6 32  1  0
 32 33  1  0
 32 34  2  0
 34 35  1  0
 34  2  1  0
 11  7  1  0
 27 18  1  0
 29  8  1  0
M  END
>  <cnnaffinity>  (1) 
-5.86738

>  <filename>  (1) 
Clc1ccccc1[C@H]1Cc2n[nH]c(-c3cccnc3)c2C1

$$$$
