
     RDKit          3D

 28 30  0  0  0  0  0  0  0  0999 V2000
    4.9142    1.7849   16.9947 H   0  0  0  0  0  0  0  0  0  0  0  0
    5.3973    1.2964   17.8379 C   0  0  0  0  0  0  0  0  0  0  0  0
    6.5622    0.6835   17.5696 N   0  0  0  0  0  0  0  0  0  0  0  0
    7.1699    0.0632   18.5832 C   0  0  0  0  0  0  0  0  0  0  0  0
    8.1226   -0.4145   18.3573 H   0  0  0  0  0  0  0  0  0  0  0  0
    6.6640    0.0162   19.9034 C   0  0  0  0  0  0  0  0  0  0  0  0
    7.3727   -0.6782   20.9926 C   0  0  0  0  0  0  0  0  0  0  0  0
    8.1822   -2.1548   20.8054 S   0  0  0  0  0  0  0  0  0  0  0  0
    8.6163   -2.2758   22.4079 N   0  0  0  0  0  0  0  0  0  0  0  0
    8.2005   -1.2713   23.0754 N   0  0  0  0  0  0  0  0  0  0  0  0
    7.5104   -0.3547   22.3417 C   0  0  0  0  0  0  0  0  0  0  0  0
    7.0533    0.8003   22.9198 N   0  0  0  0  0  0  0  0  0  0  0  0
    6.9871    1.5741   22.2860 H   0  0  0  0  0  0  0  0  0  0  0  0
    6.8018    1.0322   24.2782 C   0  0  0  0  0  0  0  0  0  0  0  0
    6.9656    2.3159   24.8148 C   0  0  0  0  0  0  0  0  0  0  0  0
    7.2903    3.1330   24.1781 H   0  0  0  0  0  0  0  0  0  0  0  0
    6.7321    2.5455   26.1746 C   0  0  0  0  0  0  0  0  0  0  0  0
    6.8627    3.5313   26.6076 H   0  0  0  0  0  0  0  0  0  0  0  0
    6.3148    1.4900   26.9884 C   0  0  0  0  0  0  0  0  0  0  0  0
    6.0169    1.7597   28.6805 Cl  0  0  0  0  0  0  0  0  0  0  0  0
    6.1201    0.2148   26.4561 C   0  0  0  0  0  0  0  0  0  0  0  0
    5.7981   -0.5990   27.0944 H   0  0  0  0  0  0  0  0  0  0  0  0
    6.3538   -0.0089   25.1016 C   0  0  0  0  0  0  0  0  0  0  0  0
    6.2249   -0.9883   24.6529 H   0  0  0  0  0  0  0  0  0  0  0  0
    5.4427    0.6580   20.1569 C   0  0  0  0  0  0  0  0  0  0  0  0
    5.0145    0.6188   21.1616 H   0  0  0  0  0  0  0  0  0  0  0  0
    4.8031    1.3106   19.1036 C   0  0  0  0  0  0  0  0  0  0  0  0
    3.8713    1.8433   19.2573 H   0  0  0  0  0  0  0  0  0  0  0  0
  1  2  1  0
  2  3  2  0
  3  4  1  0
  4  5  1  0
  4  6  2  0
  6  7  1  0
  7  8  1  0
  8  9  1  0
  9 10  2  0
 10 11  1  0
 11 12  1  0
 12 13  1  0
 12 14  1  0
 14 15  2  0
 15 16  1  0
 15 17  1  0
 17 18  1  0
 17 19  2  0
 19 20  1  0
 19 21  1  0
 21 22  1  0
 21 23  2  0
 23 24  1  0
  6 25  1  0
 25 26  1  0
 25 27  2  0
 27 28  1  0
 27  2  1  0
 11  7  2  0
 23 14  1  0
M  END
>  <cnnaffinity>  (1) 
-5.16523

>  <filename>  (1) 
Clc1ccc(Nc2nnsc2-c2cccnc2)cc1

$$$$
