
     RDKit          3D

 36 39  0  0  0  0  0  0  0  0999 V2000
   14.5863    5.6282   21.5917 Cl  0  0  0  0  0  0  0  0  0  0  0  0
   13.5077    4.6741   22.5669 C   0  0  0  0  0  0  0  0  0  0  0  0
   13.7675    3.3163   22.7635 C   0  0  0  0  0  0  0  0  0  0  0  0
   12.8457    2.5398   23.4699 C   0  0  0  0  0  0  0  0  0  0  0  0
   11.6874    3.1226   24.0114 C   0  0  0  0  0  0  0  0  0  0  0  0
   10.5043    2.1286   24.8862 S   0  0  0  0  0  0  0  0  0  0  0  0
    9.2887    1.8102   23.5661 C   0  0  0  0  0  0  0  0  0  0  0  0
    8.1198    0.9531   24.0791 C   0  0  0  0  0  0  0  0  0  0  0  0
    7.0284    0.8051   22.9917 C   0  0  0  0  0  0  0  0  0  0  0  0
    7.5177   -0.2841   22.1627 N   0  0  0  0  0  0  0  0  0  0  0  0
    8.3308   -1.1941   22.7597 C   0  0  0  0  0  0  0  0  0  0  0  0
    8.7272   -2.1113   21.9241 N   0  0  0  0  0  0  0  0  0  0  0  0
    8.1597   -1.7835   20.7080 N   0  0  0  0  0  0  0  0  0  0  0  0
    7.4385   -0.7013   20.8667 C   0  0  0  0  0  0  0  0  0  0  0  0
    6.6547   -0.0068   19.8468 C   0  0  0  0  0  0  0  0  0  0  0  0
    5.4380    0.6420   20.1047 C   0  0  0  0  0  0  0  0  0  0  0  0
    4.8107    1.3085   19.0549 C   0  0  0  0  0  0  0  0  0  0  0  0
    5.4182    1.3087   17.7945 C   0  0  0  0  0  0  0  0  0  0  0  0
    6.5643    0.6626   17.5301 N   0  0  0  0  0  0  0  0  0  0  0  0
    7.1539    0.0149   18.5371 C   0  0  0  0  0  0  0  0  0  0  0  0
    8.0756   -0.5148   18.3049 H   0  0  0  0  0  0  0  0  0  0  0  0
    4.9633    1.8417   16.9609 H   0  0  0  0  0  0  0  0  0  0  0  0
    3.8783    1.8380   19.2021 H   0  0  0  0  0  0  0  0  0  0  0  0
    4.9880    0.6220   21.0994 H   0  0  0  0  0  0  0  0  0  0  0  0
    8.6614   -0.7866   24.4294 S   0  0  0  0  0  0  0  0  0  0  0  0
    6.0607    0.5459   23.4428 H   0  0  0  0  0  0  0  0  0  0  0  0
    6.9049    1.7236   22.4076 H   0  0  0  0  0  0  0  0  0  0  0  0
    7.6995    1.3725   24.9959 H   0  0  0  0  0  0  0  0  0  0  0  0
    9.7842    1.2879   22.7396 H   0  0  0  0  0  0  0  0  0  0  0  0
    8.9090    2.7681   23.1908 H   0  0  0  0  0  0  0  0  0  0  0  0
   11.4630    4.4988   23.8498 C   0  0  0  0  0  0  0  0  0  0  0  0
   12.3665    5.2703   23.1122 C   0  0  0  0  0  0  0  0  0  0  0  0
   12.1692    6.3140   22.9346 H   0  0  0  0  0  0  0  0  0  0  0  0
   10.5620    4.9608   24.2544 H   0  0  0  0  0  0  0  0  0  0  0  0
   13.0115    1.4679   23.5619 H   0  0  0  0  0  0  0  0  0  0  0  0
   14.6798    2.8763   22.3780 H   0  0  0  0  0  0  0  0  0  0  0  0
  1  2  1  0
  2  3  2  0
  3  4  1  0
  4  5  2  0
  5  6  1  0
  6  7  1  0
  7  8  1  0
  8  9  1  0
  9 10  1  0
 10 11  1  0
 11 12  2  0
 12 13  1  0
 13 14  2  0
 14 15  1  0
 15 16  2  0
 16 17  1  0
 17 18  2  0
 18 19  1  0
 19 20  2  0
 20 21  1  0
 18 22  1  0
 17 23  1  0
 16 24  1  0
 11 25  1  0
  9 26  1  0
  9 27  1  0
  8 28  1  0
  7 29  1  0
  7 30  1  0
  5 31  1  0
 31 32  2  0
 32 33  1  0
 31 34  1  0
  4 35  1  0
  3 36  1  0
 32  2  1  0
 25  8  1  0
 14 10  1  0
 20 15  1  0
M  END
>  <cnnaffinity>  (1) 
-5.77646

>  <filename>  (1) 
Clc1ccc(SCC2Cn3c(nnc3-c3cccnc3)S2)cc1

$$$$
