
     RDKit          3D

 30 32  0  0  0  0  0  0  0  0999 V2000
    9.3662   -3.0721   21.9680 H   0  0  0  0  0  0  0  0  0  0  0  0
    8.7443   -2.1808   22.0491 C   0  0  0  0  0  0  0  0  0  0  0  0
    8.5137   -1.7539   23.2841 N   0  0  0  0  0  0  0  0  0  0  0  0
    7.7754   -0.6525   23.3685 C   0  0  0  0  0  0  0  0  0  0  0  0
    7.6909   -0.1753   24.6161 O   0  0  0  0  0  0  0  0  0  0  0  0
    6.8311    0.8271   25.0221 C   0  0  0  0  0  0  0  0  0  0  0  0
    7.3065    1.6175   26.0737 C   0  0  0  0  0  0  0  0  0  0  0  0
    8.3178    1.4445   26.4242 H   0  0  0  0  0  0  0  0  0  0  0  0
    6.4636    2.5473   26.6812 C   0  0  0  0  0  0  0  0  0  0  0  0
    6.8477    3.1712   27.4884 H   0  0  0  0  0  0  0  0  0  0  0  0
    5.1253    2.6625   26.2828 C   0  0  0  0  0  0  0  0  0  0  0  0
    4.4535    3.3663   26.7689 H   0  0  0  0  0  0  0  0  0  0  0  0
    4.6781    1.8634   25.2303 C   0  0  0  0  0  0  0  0  0  0  0  0
    3.0120    1.9364   24.7517 Cl  0  0  0  0  0  0  0  0  0  0  0  0
    5.5272    0.9846   24.5546 C   0  0  0  0  0  0  0  0  0  0  0  0
    5.1969    0.4477   23.6811 H   0  0  0  0  0  0  0  0  0  0  0  0
    7.1730   -0.0128   22.3798 N   0  0  0  0  0  0  0  0  0  0  0  0
    7.3776   -0.4792   21.1520 C   0  0  0  0  0  0  0  0  0  0  0  0
    6.6211    0.1642   20.0572 C   0  0  0  0  0  0  0  0  0  0  0  0
    7.1747    0.1410   18.7708 C   0  0  0  0  0  0  0  0  0  0  0  0
    8.1385   -0.3300   18.5849 H   0  0  0  0  0  0  0  0  0  0  0  0
    6.6072    0.6832   17.6936 N   0  0  0  0  0  0  0  0  0  0  0  0
    5.4217    1.2853   17.8569 C   0  0  0  0  0  0  0  0  0  0  0  0
    4.9763    1.7164   16.9627 H   0  0  0  0  0  0  0  0  0  0  0  0
    4.7667    1.3626   19.0903 C   0  0  0  0  0  0  0  0  0  0  0  0
    3.8084    1.8666   19.1529 H   0  0  0  0  0  0  0  0  0  0  0  0
    5.3745    0.8064   20.2145 C   0  0  0  0  0  0  0  0  0  0  0  0
    4.8877    0.8831   21.1919 H   0  0  0  0  0  0  0  0  0  0  0  0
    8.2451   -1.5440   20.9236 C   0  0  0  0  0  0  0  0  0  0  0  0
    8.5443   -1.8575   19.9421 H   0  0  0  0  0  0  0  0  0  0  0  0
  1  2  1  0
  2  3  2  0
  3  4  1  0
  4  5  1  0
  5  6  1  0
  6  7  2  0
  7  8  1  0
  7  9  1  0
  9 10  1  0
  9 11  2  0
 11 12  1  0
 11 13  1  0
 13 14  1  0
 13 15  2  0
 15 16  1  0
  4 17  2  0
 17 18  1  0
 18 19  1  0
 19 20  2  0
 20 21  1  0
 20 22  1  0
 22 23  2  0
 23 24  1  0
 23 25  1  0
 25 26  1  0
 25 27  2  0
 27 28  1  0
 18 29  2  0
 29 30  1  0
 29  2  1  0
 15  6  1  0
 27 19  1  0
M  END
>  <cnnaffinity>  (1) 
-5.05912

>  <filename>  (1) 
Clc1cccc(Oc2nccc(-c3cccnc3)n2)c1

$$$$
