
     RDKit          3D

 33 35  0  0  0  0  0  0  0  0999 V2000
    4.9291    1.8248   16.9528 H   0  0  0  0  0  0  0  0  0  0  0  0
    5.4002    1.3175   17.7921 C   0  0  0  0  0  0  0  0  0  0  0  0
    6.5581    0.6910   17.5322 N   0  0  0  0  0  0  0  0  0  0  0  0
    7.1648    0.0781   18.5572 C   0  0  0  0  0  0  0  0  0  0  0  0
    8.0997   -0.4298   18.3224 H   0  0  0  0  0  0  0  0  0  0  0  0
    6.6611    0.0334   19.8679 C   0  0  0  0  0  0  0  0  0  0  0  0
    7.3977   -0.6770   20.9411 C   0  0  0  0  0  0  0  0  0  0  0  0
    8.7838   -0.5660   21.1091 C   0  0  0  0  0  0  0  0  0  0  0  0
    9.3839    0.0633   20.4650 H   0  0  0  0  0  0  0  0  0  0  0  0
    9.3872   -1.2495   22.1638 C   0  0  0  0  0  0  0  0  0  0  0  0
   10.4613   -1.1867   22.3104 H   0  0  0  0  0  0  0  0  0  0  0  0
    8.7235   -2.0188   23.0379 N   0  0  0  0  0  0  0  0  0  0  0  0
    7.3968   -2.1295   22.8747 C   0  0  0  0  0  0  0  0  0  0  0  0
    6.6486   -3.0353   23.8187 C   0  0  0  0  0  0  0  0  0  0  0  0
    5.6499   -2.6343   24.0321 H   0  0  0  0  0  0  0  0  0  0  0  0
    7.1918   -3.0576   24.7704 H   0  0  0  0  0  0  0  0  0  0  0  0
    6.5877   -4.4260   23.2215 C   0  0  0  0  0  0  0  0  0  0  0  0
    5.4894   -4.9086   22.4942 C   0  0  0  0  0  0  0  0  0  0  0  0
    4.6537   -4.2497   22.2745 H   0  0  0  0  0  0  0  0  0  0  0  0
    5.4673   -6.2375   22.0557 C   0  0  0  0  0  0  0  0  0  0  0  0
    4.5791   -6.6681   21.5945 H   0  0  0  0  0  0  0  0  0  0  0  0
    6.5933   -7.0380   22.2669 C   0  0  0  0  0  0  0  0  0  0  0  0
    6.5424   -8.7128   21.9450 Cl  0  0  0  0  0  0  0  0  0  0  0  0
    7.7669   -6.4986   22.8106 C   0  0  0  0  0  0  0  0  0  0  0  0
    9.2343   -7.4125   22.8448 Cl  0  0  0  0  0  0  0  0  0  0  0  0
    7.7430   -5.2080   23.3172 C   0  0  0  0  0  0  0  0  0  0  0  0
    8.6342   -4.7835   23.7742 H   0  0  0  0  0  0  0  0  0  0  0  0
    6.7139   -1.4953   21.8372 C   0  0  0  0  0  0  0  0  0  0  0  0
    5.6532   -1.6690   21.7181 H   0  0  0  0  0  0  0  0  0  0  0  0
    5.4337    0.6735   20.1088 C   0  0  0  0  0  0  0  0  0  0  0  0
    5.0025    0.6689   21.1124 H   0  0  0  0  0  0  0  0  0  0  0  0
    4.8002    1.3335   19.0567 C   0  0  0  0  0  0  0  0  0  0  0  0
    3.8637    1.8594   19.2016 H   0  0  0  0  0  0  0  0  0  0  0  0
  1  2  1  0
  2  3  2  0
  3  4  1  0
  4  5  1  0
  4  6  2  0
  6  7  1  0
  7  8  2  0
  8  9  1  0
  8 10  1  0
 10 11  1  0
 10 12  2  0
 12 13  1  0
 13 14  1  0
 14 15  1  0
 14 16  1  0
 14 17  1  0
 17 18  2  0
 18 19  1  0
 18 20  1  0
 20 21  1  0
 20 22  2  0
 22 23  1  0
 22 24  1  0
 24 25  1  0
 24 26  2  0
 26 27  1  0
 13 28  2  0
 28 29  1  0
  6 30  1  0
 30 31  1  0
 30 32  2  0
 32 33  1  0
 32  2  1  0
 28  7  1  0
 26 17  1  0
M  END
>  <cnnaffinity>  (1) 
-5.60523

>  <filename>  (1) 
Clc1ccc(Cc2cc(-c3cccnc3)ccn2)cc1Cl

$$$$
