
     RDKit          3D

 28 30  0  0  0  0  0  0  0  0999 V2000
    4.9151    1.7960   16.9822 H   0  0  0  0  0  0  0  0  0  0  0  0
    5.3918    1.3021   17.8227 C   0  0  0  0  0  0  0  0  0  0  0  0
    6.5570    0.6877   17.5566 N   0  0  0  0  0  0  0  0  0  0  0  0
    7.1587    0.0649   18.5711 C   0  0  0  0  0  0  0  0  0  0  0  0
    8.1180   -0.4033   18.3444 H   0  0  0  0  0  0  0  0  0  0  0  0
    6.6495    0.0024   19.8818 C   0  0  0  0  0  0  0  0  0  0  0  0
    7.3655   -0.6779   20.9648 C   0  0  0  0  0  0  0  0  0  0  0  0
    7.4870   -0.3599   22.3089 C   0  0  0  0  0  0  0  0  0  0  0  0
    7.0032    0.8562   22.9830 C   0  0  0  0  0  0  0  0  0  0  0  0
    6.1534    0.7113   24.0876 C   0  0  0  0  0  0  0  0  0  0  0  0
    5.9017   -0.2948   24.4030 H   0  0  0  0  0  0  0  0  0  0  0  0
    5.6328    1.8132   24.7553 C   0  0  0  0  0  0  0  0  0  0  0  0
    4.9800    1.6721   25.6092 H   0  0  0  0  0  0  0  0  0  0  0  0
    5.9572    3.1010   24.3301 C   0  0  0  0  0  0  0  0  0  0  0  0
    5.5657    3.9804   24.8305 H   0  0  0  0  0  0  0  0  0  0  0  0
    6.8153    3.2774   23.2416 C   0  0  0  0  0  0  0  0  0  0  0  0
    7.1912    4.9067   22.7676 Cl  0  0  0  0  0  0  0  0  0  0  0  0
    7.3500    2.1638   22.5693 C   0  0  0  0  0  0  0  0  0  0  0  0
    8.4658    2.4134   21.2635 Cl  0  0  0  0  0  0  0  0  0  0  0  0
    8.2133   -1.4297   22.8678 C   0  0  0  0  0  0  0  0  0  0  0  0
    8.5165   -1.5398   23.8982 H   0  0  0  0  0  0  0  0  0  0  0  0
    8.5462   -2.3344   21.9585 N   0  0  0  0  0  0  0  0  0  0  0  0
    8.0366   -1.8501   20.8160 N   0  0  0  0  0  0  0  0  0  0  0  0
    8.0978   -2.3888   19.9690 H   0  0  0  0  0  0  0  0  0  0  0  0
    5.4301    0.6552   20.1431 C   0  0  0  0  0  0  0  0  0  0  0  0
    5.0138    0.6352   21.1542 H   0  0  0  0  0  0  0  0  0  0  0  0
    4.7998    1.3142   19.0905 C   0  0  0  0  0  0  0  0  0  0  0  0
    3.8692    1.8478   19.2461 H   0  0  0  0  0  0  0  0  0  0  0  0
  1  2  1  0
  2  3  2  0
  3  4  1  0
  4  5  1  0
  4  6  2  0
  6  7  1  0
  7  8  2  0
  8  9  1  0
  9 10  2  0
 10 11  1  0
 10 12  1  0
 12 13  1  0
 12 14  2  0
 14 15  1  0
 14 16  1  0
 16 17  1  0
 16 18  2  0
 18 19  1  0
  8 20  1  0
 20 21  1  0
 20 22  2  0
 22 23  1  0
 23 24  1  0
  6 25  1  0
 25 26  1  0
 25 27  2  0
 27 28  1  0
 27  2  1  0
 23  7  1  0
 18  9  1  0
M  END
>  <cnnaffinity>  (1) 
-5.28079

>  <filename>  (1) 
Clc1cccc(-c2cn[nH]c2-c2cccnc2)c1Cl

$$$$
