
     RDKit          3D

 29 31  0  0  0  0  0  0  0  0999 V2000
    4.9772    1.8834   16.8207 H   0  0  0  0  0  0  0  0  0  0  0  0
    5.3749    1.3870   17.7041 C   0  0  0  0  0  0  0  0  0  0  0  0
    6.5299    0.7278   17.5340 N   0  0  0  0  0  0  0  0  0  0  0  0
    7.0413    0.1117   18.5982 C   0  0  0  0  0  0  0  0  0  0  0  0
    7.9812   -0.4149   18.4485 H   0  0  0  0  0  0  0  0  0  0  0  0
    6.4296    0.1027   19.8614 C   0  0  0  0  0  0  0  0  0  0  0  0
    7.1110   -0.6839   20.8787 C   0  0  0  0  0  0  0  0  0  0  0  0
    8.2476   -1.2887   20.6917 N   0  0  0  0  0  0  0  0  0  0  0  0
    8.4479   -1.8978   21.8916 C   0  0  0  0  0  0  0  0  0  0  0  0
    9.7188   -2.6379   22.1370 C   0  0  0  0  0  0  0  0  0  0  0  0
    9.5373   -3.4799   22.8158 H   0  0  0  0  0  0  0  0  0  0  0  0
    9.9945   -2.9985   21.1496 H   0  0  0  0  0  0  0  0  0  0  0  0
   10.7937   -1.6820   22.6334 C   0  0  0  0  0  0  0  0  0  0  0  0
   11.9621   -1.4334   21.8997 C   0  0  0  0  0  0  0  0  0  0  0  0
   12.1799   -2.0438   21.0247 H   0  0  0  0  0  0  0  0  0  0  0  0
   12.8303   -0.4036   22.2774 C   0  0  0  0  0  0  0  0  0  0  0  0
   13.7365   -0.1620   21.7182 H   0  0  0  0  0  0  0  0  0  0  0  0
   12.5147    0.4105   23.3694 C   0  0  0  0  0  0  0  0  0  0  0  0
   13.5496    1.7555   23.7037 Cl  0  0  0  0  0  0  0  0  0  0  0  0
   11.3737    0.1293   24.1431 C   0  0  0  0  0  0  0  0  0  0  0  0
   10.9014    1.0943   25.4975 Cl  0  0  0  0  0  0  0  0  0  0  0  0
   10.5391   -0.9318   23.7872 C   0  0  0  0  0  0  0  0  0  0  0  0
    9.6389   -1.1191   24.3651 H   0  0  0  0  0  0  0  0  0  0  0  0
    7.5091   -1.7067   22.7730 N   0  0  0  0  0  0  0  0  0  0  0  0
    6.6064   -0.8805   22.0955 O   0  0  0  0  0  0  0  0  0  0  0  0
    5.2291    0.8045   20.0402 C   0  0  0  0  0  0  0  0  0  0  0  0
    4.7273    0.8493   21.0093 H   0  0  0  0  0  0  0  0  0  0  0  0
    4.6971    1.4514   18.9268 C   0  0  0  0  0  0  0  0  0  0  0  0
    3.7744    2.0150   18.9891 H   0  0  0  0  0  0  0  0  0  0  0  0
  1  2  1  0
  2  3  2  0
  3  4  1  0
  4  5  1  0
  4  6  2  0
  6  7  1  0
  7  8  2  0
  8  9  1  0
  9 10  1  0
 10 11  1  0
 10 12  1  0
 10 13  1  0
 13 14  2  0
 14 15  1  0
 14 16  1  0
 16 17  1  0
 16 18  2  0
 18 19  1  0
 18 20  1  0
 20 21  1  0
 20 22  2  0
 22 23  1  0
  9 24  2  0
 24 25  1  0
  6 26  1  0
 26 27  1  0
 26 28  2  0
 28 29  1  0
 28  2  1  0
 25  7  1  0
 22 13  1  0
M  END
>  <cnnaffinity>  (1) 
-5.5385

>  <filename>  (1) 
Clc1ccc(Cc2noc(-c3cccnc3)n2)cc1Cl

$$$$
