
     RDKit          3D

 31 32  0  0  0  0  0  0  0  0999 V2000
    5.0035    1.8314   17.0116 H   0  0  0  0  0  0  0  0  0  0  0  0
    5.4735    1.3100   17.8418 C   0  0  0  0  0  0  0  0  0  0  0  0
    6.6398    0.7012   17.5818 N   0  0  0  0  0  0  0  0  0  0  0  0
    7.2302    0.0392   18.5856 C   0  0  0  0  0  0  0  0  0  0  0  0
    8.1777   -0.4450   18.3616 H   0  0  0  0  0  0  0  0  0  0  0  0
    6.6834   -0.0812   19.8828 C   0  0  0  0  0  0  0  0  0  0  0  0
    7.3501   -0.8323   20.9119 N   0  0  0  0  0  0  0  0  0  0  0  0
    6.7181   -1.8366   21.6322 C   0  0  0  0  0  0  0  0  0  0  0  0
    5.6201   -2.2869   21.3892 O   0  0  0  0  0  0  0  0  0  0  0  0
    7.6037   -2.3067   22.7679 C   0  0  0  0  0  0  0  0  0  0  0  0
    7.3189   -1.7624   23.6717 H   0  0  0  0  0  0  0  0  0  0  0  0
    7.4296   -3.3671   22.9399 H   0  0  0  0  0  0  0  0  0  0  0  0
    9.3040   -1.9357   22.2994 S   0  0  0  0  0  0  0  0  0  0  0  0
    8.7390   -0.5207   21.2567 C   0  0  2  0  0  0  0  0  0  0  0  0
    9.3509   -0.5062   20.3509 H   0  0  0  0  0  0  0  0  0  0  0  0
    8.8697    0.8786   21.8965 C   0  0  0  0  0  0  0  0  0  0  0  0
    8.0986    1.4970   21.4099 H   0  0  0  0  0  0  0  0  0  0  0  0
    8.5657    0.8182   22.9579 H   0  0  0  0  0  0  0  0  0  0  0  0
   10.1691    1.5393   21.6894 N   0  0  0  0  0  0  0  0  0  0  0  0
   10.1010    2.9308   22.1156 C   0  0  0  0  0  0  0  0  0  0  0  0
   10.9964    3.4685   21.7868 H   0  0  0  0  0  0  0  0  0  0  0  0
   10.0327    3.0620   23.2140 H   0  0  0  0  0  0  0  0  0  0  0  0
    9.2264    3.4167   21.6676 H   0  0  0  0  0  0  0  0  0  0  0  0
   11.3453    0.8863   22.2689 C   0  0  0  0  0  0  0  0  0  0  0  0
   12.2450    1.4220   21.9288 H   0  0  0  0  0  0  0  0  0  0  0  0
   11.3533    0.8946   23.3769 H   0  0  0  0  0  0  0  0  0  0  0  0
   11.4196   -0.1555   21.9342 H   0  0  0  0  0  0  0  0  0  0  0  0
    5.4798    0.5787   20.1465 C   0  0  0  0  0  0  0  0  0  0  0  0
    5.0494    0.5425   21.1474 H   0  0  0  0  0  0  0  0  0  0  0  0
    4.8658    1.2850   19.1057 C   0  0  0  0  0  0  0  0  0  0  0  0
    3.9341    1.8136   19.2558 H   0  0  0  0  0  0  0  0  0  0  0  0
  1  2  1  0
  2  3  2  0
  3  4  1  0
  4  5  1  0
  4  6  2  0
  6  7  1  0
  7  8  1  0
  8  9  2  0
  8 10  1  0
 10 11  1  0
 10 12  1  0
 10 13  1  0
 13 14  1  0
 14 15  1  6
 14 16  1  0
 16 17  1  0
 16 18  1  0
 16 19  1  0
 19 20  1  0
 20 21  1  0
 20 22  1  0
 20 23  1  0
 19 24  1  0
 24 25  1  0
 24 26  1  0
 24 27  1  0
  6 28  1  0
 28 29  1  0
 28 30  2  0
 30 31  1  0
 30  2  1  0
 14  7  1  0
M  END
>  <cnnaffinity>  (1) 
-4.41915

>  <filename>  (1) 
CN(C)C[C@H]1SCC(=O)N1c1cccnc1

$$$$
