
     RDKit          3D

 35 36  0  0  0  0  0  0  0  0999 V2000
    7.7733    0.1623   22.0468 C   0  0  0  0  0  0  0  0  0  0  0  0
    7.0924   -0.6158   21.0195 N   0  0  0  0  0  0  0  0  0  0  0  0
    7.0505   -2.0731   21.1986 C   0  0  0  0  0  0  0  0  0  0  0  0
    7.9231   -2.5343   21.9493 O   0  0  0  0  0  0  0  0  0  0  0  0
    6.1341   -2.7557   20.5658 N   0  0  0  0  0  0  0  0  0  0  0  0
    7.1231   -5.3987   21.0130 C   0  0  0  0  0  0  0  0  0  0  0  0
    6.9544   -5.6005   21.3166 C   0  0  0  0  0  0  0  0  0  0  0  0
    7.8608   -5.3513   22.6297 C   0  0  0  0  0  0  0  0  0  0  0  0
    7.0892   -5.7035   23.7182 C   0  0  0  0  0  0  0  0  0  0  0  0
    5.7987   -6.1180   23.6921 N   0  0  0  0  0  0  0  0  0  0  0  0
    5.0417   -6.0635   22.5914 C   0  0  0  0  0  0  0  0  0  0  0  0
    3.5380   -6.4176   22.8154 C   0  0  0  0  0  0  0  0  0  0  0  0
    2.9922   -7.0885   21.7748 F   0  0  0  0  0  0  0  0  0  0  0  0
    2.7857   -5.3053   22.9724 F   0  0  0  0  0  0  0  0  0  0  0  0
    3.3301   -7.1771   23.8947 F   0  0  0  0  0  0  0  0  0  0  0  0
    5.4272   -5.6193   21.2924 C   0  0  0  0  0  0  0  0  0  0  0  0
    4.9106   -6.1010   20.4682 H   0  0  0  0  0  0  0  0  0  0  0  0
    7.5051   -5.6567   24.7234 H   0  0  0  0  0  0  0  0  0  0  0  0
    8.5214   -4.4921   22.7390 H   0  0  0  0  0  0  0  0  0  0  0  0
    7.4534   -6.6180   20.6162 H   0  0  0  0  0  0  0  0  0  0  0  0
    7.4703   -4.6692   20.2168 H   0  0  0  0  0  0  0  0  0  0  0  0
    5.5719   -2.0629   20.0941 H   0  0  0  0  0  0  0  0  0  0  0  0
    6.5286    0.0704   19.8992 C   0  0  0  0  0  0  0  0  0  0  0  0
    5.3872    0.8658   20.0604 C   0  0  0  0  0  0  0  0  0  0  0  0
    4.8740    1.5630   18.9589 C   0  0  0  0  0  0  0  0  0  0  0  0
    5.5449    1.4779   17.7359 C   0  0  0  0  0  0  0  0  0  0  0  0
    6.6571    0.7459   17.5610 N   0  0  0  0  0  0  0  0  0  0  0  0
    7.1353    0.0740   18.6188 C   0  0  0  0  0  0  0  0  0  0  0  0
    8.0507   -0.4982   18.4685 H   0  0  0  0  0  0  0  0  0  0  0  0
    5.1750    2.0124   16.8628 H   0  0  0  0  0  0  0  0  0  0  0  0
    3.9815    2.1737   19.0424 H   0  0  0  0  0  0  0  0  0  0  0  0
    4.9372    0.9309   21.0514 H   0  0  0  0  0  0  0  0  0  0  0  0
    8.7402   -0.2989   22.2747 H   0  0  0  0  0  0  0  0  0  0  0  0
    7.1934    0.2062   22.9802 H   0  0  0  0  0  0  0  0  0  0  0  0
    7.9310    1.1825   21.6813 H   0  0  0  0  0  0  0  0  0  0  0  0
  1  2  1  0
  2  3  1  0
  3  4  2  0
  3  5  1  0
  5  6  1  0
  6  7  1  0
  7  8  2  0
  8  9  1  0
  9 10  2  0
 10 11  1  0
 11 12  1  0
 12 13  1  0
 12 14  1  0
 12 15  1  0
 11 16  2  0
 16 17  1  0
  9 18  1  0
  8 19  1  0
  6 20  1  0
  6 21  1  0
  5 22  1  0
  2 23  1  0
 23 24  2  0
 24 25  1  0
 25 26  2  0
 26 27  1  0
 27 28  2  0
 28 29  1  0
 26 30  1  0
 25 31  1  0
 24 32  1  0
  1 33  1  0
  1 34  1  0
  1 35  1  0
 16  7  1  0
 28 23  1  0
M  END
>  <cnnaffinity>  (1) 
-4.64209

>  <filename>  (1) 
CN(C(=O)NCc1ccnc(C(F)(F)F)c1)c1cccnc1

$$$$
