
     RDKit          3D

 33 34  0  0  0  0  0  0  0  0999 V2000
    8.5937   -2.6844   22.3554 C   0  0  0  0  0  0  0  0  0  0  0  0
    9.3907   -1.8086   21.5010 N   0  0  0  0  0  0  0  0  0  0  0  0
   10.7970   -1.6200   21.8766 C   0  0  0  0  0  0  0  0  0  0  0  0
   10.8344   -0.6279   23.0089 C   0  0  0  0  0  0  0  0  0  0  0  0
   10.4708   -1.0506   24.2966 C   0  0  0  0  0  0  0  0  0  0  0  0
   10.3911   -0.1449   25.3567 C   0  0  0  0  0  0  0  0  0  0  0  0
    9.7952   -0.7221   27.0814 Br  0  0  0  0  0  0  0  0  0  0  0  0
   10.7268    1.1939   25.1336 C   0  0  0  0  0  0  0  0  0  0  0  0
   11.1325    1.6228   23.8631 C   0  0  0  0  0  0  0  0  0  0  0  0
   11.1647    0.7232   22.7966 C   0  0  0  0  0  0  0  0  0  0  0  0
   11.6115    1.3288   21.2221 Cl  0  0  0  0  0  0  0  0  0  0  0  0
   11.4074    2.6584   23.6691 H   0  0  0  0  0  0  0  0  0  0  0  0
   10.6461    1.9087   25.9413 H   0  0  0  0  0  0  0  0  0  0  0  0
   10.2353   -2.0928   24.4756 H   0  0  0  0  0  0  0  0  0  0  0  0
   11.4139   -1.2763   21.0415 H   0  0  0  0  0  0  0  0  0  0  0  0
   11.2359   -2.5693   22.2049 H   0  0  0  0  0  0  0  0  0  0  0  0
    8.7856   -0.9380   20.5963 C   0  0  0  0  0  0  0  0  0  0  0  0
    9.4687   -0.3192   19.7937 O   0  0  0  0  0  0  0  0  0  0  0  0
    7.4105   -0.7512   20.5864 N   0  0  0  0  0  0  0  0  0  0  0  0
    6.6828   -0.0121   19.6191 C   0  0  0  0  0  0  0  0  0  0  0  0
    5.4333    0.5282   19.9438 C   0  0  0  0  0  0  0  0  0  0  0  0
    4.7469    1.2690   18.9675 C   0  0  0  0  0  0  0  0  0  0  0  0
    5.3108    1.4446   17.6951 C   0  0  0  0  0  0  0  0  0  0  0  0
    6.4966    0.9088   17.3550 N   0  0  0  0  0  0  0  0  0  0  0  0
    7.1584    0.2109   18.3005 C   0  0  0  0  0  0  0  0  0  0  0  0
    8.1160   -0.2216   18.0361 H   0  0  0  0  0  0  0  0  0  0  0  0
    4.7799    2.0328   16.9534 H   0  0  0  0  0  0  0  0  0  0  0  0
    3.7870    1.7340   19.1761 H   0  0  0  0  0  0  0  0  0  0  0  0
    5.0152    0.4016   20.9411 H   0  0  0  0  0  0  0  0  0  0  0  0
    6.9317   -1.0518   21.4292 H   0  0  0  0  0  0  0  0  0  0  0  0
    9.2418   -3.3722   22.9127 H   0  0  0  0  0  0  0  0  0  0  0  0
    7.9145   -3.2817   21.7424 H   0  0  0  0  0  0  0  0  0  0  0  0
    8.0121   -2.1025   23.0785 H   0  0  0  0  0  0  0  0  0  0  0  0
  1  2  1  0
  2  3  1  0
  3  4  1  0
  4  5  2  0
  5  6  1  0
  6  7  1  0
  6  8  2  0
  8  9  1  0
  9 10  2  0
 10 11  1  0
  9 12  1  0
  8 13  1  0
  5 14  1  0
  3 15  1  0
  3 16  1  0
  2 17  1  0
 17 18  2  0
 17 19  1  0
 19 20  1  0
 20 21  2  0
 21 22  1  0
 22 23  2  0
 23 24  1  0
 24 25  2  0
 25 26  1  0
 23 27  1  0
 22 28  1  0
 21 29  1  0
 19 30  1  0
  1 31  1  0
  1 32  1  0
  1 33  1  0
 10  4  1  0
 25 20  1  0
M  END
>  <cnnaffinity>  (1) 
-5.3681

>  <filename>  (1) 
CN(Cc1cc(Br)ccc1Cl)C(=O)Nc1cccnc1

$$$$
