
     RDKit          3D

 34 35  0  0  0  0  0  0  0  0999 V2000
    4.9665    1.8842   16.9180 H   0  0  0  0  0  0  0  0  0  0  0  0
    5.4088    1.3460   17.7566 C   0  0  0  0  0  0  0  0  0  0  0  0
    6.5595    0.7046   17.5040 N   0  0  0  0  0  0  0  0  0  0  0  0
    7.1413    0.0476   18.5202 C   0  0  0  0  0  0  0  0  0  0  0  0
    8.0646   -0.4741   18.2784 H   0  0  0  0  0  0  0  0  0  0  0  0
    6.6383   -0.0103   19.8396 C   0  0  0  0  0  0  0  0  0  0  0  0
    7.3468   -0.7108   20.8626 N   0  0  0  0  0  0  0  0  0  0  0  0
    8.2462   -0.0426   21.7085 N   0  0  0  0  0  0  0  0  0  0  0  0
    7.6377    0.9647   22.5695 C   0  0  0  0  0  0  0  0  0  0  0  0
    6.8243    0.5051   23.1418 H   0  0  0  0  0  0  0  0  0  0  0  0
    7.2348    1.8333   22.0185 H   0  0  0  0  0  0  0  0  0  0  0  0
    8.3991    1.3011   23.2824 H   0  0  0  0  0  0  0  0  0  0  0  0
    9.4244    0.3995   20.9591 C   0  0  0  0  0  0  0  0  0  0  0  0
    9.6916   -0.4488   20.3186 H   0  0  0  0  0  0  0  0  0  0  0  0
    9.1404    1.2181   20.2843 H   0  0  0  0  0  0  0  0  0  0  0  0
   10.6450    0.7899   21.7768 C   0  0  0  0  0  0  0  0  0  0  0  0
   11.5180   -0.2120   22.2215 C   0  0  0  0  0  0  0  0  0  0  0  0
   11.2944   -1.2525   21.9960 H   0  0  0  0  0  0  0  0  0  0  0  0
   12.6608    0.1027   22.9611 C   0  0  0  0  0  0  0  0  0  0  0  0
   13.3361   -0.6876   23.2679 H   0  0  0  0  0  0  0  0  0  0  0  0
   12.9426    1.4350   23.2837 C   0  0  0  0  0  0  0  0  0  0  0  0
   13.8426    1.6747   23.8422 H   0  0  0  0  0  0  0  0  0  0  0  0
   12.0591    2.4426   22.8776 C   0  0  0  0  0  0  0  0  0  0  0  0
   12.2369    3.4718   23.1733 H   0  0  0  0  0  0  0  0  0  0  0  0
   10.9308    2.1246   22.1072 C   0  0  0  0  0  0  0  0  0  0  0  0
   10.2897    2.9273   21.7393 H   0  0  0  0  0  0  0  0  0  0  0  0
    6.9441   -2.0442   21.2643 C   0  0  0  0  0  0  0  0  0  0  0  0
    5.9133   -2.0987   21.6461 H   0  0  0  0  0  0  0  0  0  0  0  0
    7.0199   -2.7484   20.4259 H   0  0  0  0  0  0  0  0  0  0  0  0
    7.6281   -2.3661   22.0541 H   0  0  0  0  0  0  0  0  0  0  0  0
    5.4133    0.6419   20.0699 C   0  0  0  0  0  0  0  0  0  0  0  0
    4.9694    0.6161   21.0657 H   0  0  0  0  0  0  0  0  0  0  0  0
    4.7932    1.3294   19.0135 C   0  0  0  0  0  0  0  0  0  0  0  0
    3.8575    1.8616   19.1513 H   0  0  0  0  0  0  0  0  0  0  0  0
  1  2  1  0
  2  3  2  0
  3  4  1  0
  4  5  1  0
  4  6  2  0
  6  7  1  0
  7  8  1  0
  8  9  1  0
  9 10  1  0
  9 11  1  0
  9 12  1  0
  8 13  1  0
 13 14  1  0
 13 15  1  0
 13 16  1  0
 16 17  2  0
 17 18  1  0
 17 19  1  0
 19 20  1  0
 19 21  2  0
 21 22  1  0
 21 23  1  0
 23 24  1  0
 23 25  2  0
 25 26  1  0
  7 27  1  0
 27 28  1  0
 27 29  1  0
 27 30  1  0
  6 31  1  0
 31 32  1  0
 31 33  2  0
 33 34  1  0
 33  2  1  0
 25 16  1  0
M  END
>  <cnnaffinity>  (1) 
-5.00519

>  <filename>  (1) 
CN(Cc1ccccc1)N(C)c1cccnc1

$$$$
