
     RDKit          3D

 31 32  0  0  0  0  0  0  0  0999 V2000
    4.9764    1.7644   17.0165 H   0  0  0  0  0  0  0  0  0  0  0  0
    5.4426    1.2639   17.8646 C   0  0  0  0  0  0  0  0  0  0  0  0
    6.6110    0.6436   17.6232 N   0  0  0  0  0  0  0  0  0  0  0  0
    7.2219    0.0310   18.6464 C   0  0  0  0  0  0  0  0  0  0  0  0
    8.1768   -0.4598   18.4574 H   0  0  0  0  0  0  0  0  0  0  0  0
    6.6795   -0.0035   19.9405 C   0  0  0  0  0  0  0  0  0  0  0  0
    7.4309   -0.5779   20.9531 O   0  0  0  0  0  0  0  0  0  0  0  0
    6.9080   -1.5087   21.8139 C   0  0  0  0  0  0  0  0  0  0  0  0
    5.9080   -2.1559   21.6106 O   0  0  0  0  0  0  0  0  0  0  0  0
    7.7014   -1.5985   22.9547 N   0  0  0  0  0  0  0  0  0  0  0  0
    9.1081   -1.3529   22.9433 C   0  0  0  0  0  0  0  0  0  0  0  0
    9.7674   -0.6800   23.9960 C   0  0  0  0  0  0  0  0  0  0  0  0
    9.2286   -0.3994   24.9005 H   0  0  0  0  0  0  0  0  0  0  0  0
   11.0578   -0.3565   23.9495 N   0  0  0  0  0  0  0  0  0  0  0  0
   11.7896   -0.7348   22.8862 C   0  0  0  0  0  0  0  0  0  0  0  0
   13.2511   -0.2693   22.8138 C   0  0  0  0  0  0  0  0  0  0  0  0
   13.7537    0.1253   23.9850 F   0  0  0  0  0  0  0  0  0  0  0  0
   14.0448   -1.2578   22.3428 F   0  0  0  0  0  0  0  0  0  0  0  0
   13.3805    0.7760   21.9777 F   0  0  0  0  0  0  0  0  0  0  0  0
   11.2537   -1.5209   21.8511 C   0  0  0  0  0  0  0  0  0  0  0  0
   11.8715   -1.9061   21.0486 H   0  0  0  0  0  0  0  0  0  0  0  0
    9.8948   -1.8102   21.8748 C   0  0  0  0  0  0  0  0  0  0  0  0
    9.4430   -2.4085   21.0883 H   0  0  0  0  0  0  0  0  0  0  0  0
    7.0667   -2.1331   24.1644 C   0  0  0  0  0  0  0  0  0  0  0  0
    6.5936   -1.3453   24.7664 H   0  0  0  0  0  0  0  0  0  0  0  0
    6.2934   -2.8530   23.8842 H   0  0  0  0  0  0  0  0  0  0  0  0
    7.8103   -2.6420   24.7830 H   0  0  0  0  0  0  0  0  0  0  0  0
    5.4598    0.6202   20.1921 C   0  0  0  0  0  0  0  0  0  0  0  0
    5.0370    0.5899   21.1943 H   0  0  0  0  0  0  0  0  0  0  0  0
    4.8365    1.2805   19.1258 C   0  0  0  0  0  0  0  0  0  0  0  0
    3.9012    1.8108   19.2639 H   0  0  0  0  0  0  0  0  0  0  0  0
  1  2  1  0
  2  3  2  0
  3  4  1  0
  4  5  1  0
  4  6  2  0
  6  7  1  0
  7  8  1  0
  8  9  2  0
  8 10  1  0
 10 11  1  0
 11 12  2  0
 12 13  1  0
 12 14  1  0
 14 15  2  0
 15 16  1  0
 16 17  1  0
 16 18  1  0
 16 19  1  0
 15 20  1  0
 20 21  1  0
 20 22  2  0
 22 23  1  0
 10 24  1  0
 24 25  1  0
 24 26  1  0
 24 27  1  0
  6 28  1  0
 28 29  1  0
 28 30  2  0
 30 31  1  0
 30  2  1  0
 22 11  1  0
M  END
>  <cnnaffinity>  (1) 
-4.91939

>  <filename>  (1) 
CN(C(=O)Oc1cccnc1)c1ccc(C(F)(F)F)nc1

$$$$
