
     RDKit          3D

 26 27  0  0  0  0  0  0  0  0999 V2000
    4.9548    1.8234   16.9679 H   0  0  0  0  0  0  0  0  0  0  0  0
    5.4283    1.3086   17.8003 C   0  0  0  0  0  0  0  0  0  0  0  0
    6.5897    0.6910   17.5303 N   0  0  0  0  0  0  0  0  0  0  0  0
    7.2115    0.0661   18.5416 C   0  0  0  0  0  0  0  0  0  0  0  0
    8.1565   -0.4221   18.2983 H   0  0  0  0  0  0  0  0  0  0  0  0
    6.7080    0.0029   19.8711 C   0  0  0  0  0  0  0  0  0  0  0  0
    7.3633   -0.6470   20.9461 N   0  0  0  0  0  0  0  0  0  0  0  0
    6.7182   -1.7508   21.6395 C   0  0  0  0  0  0  0  0  0  0  0  0
    7.4608   -2.2904   22.2355 H   0  0  0  0  0  0  0  0  0  0  0  0
    5.9375   -1.4117   22.3239 H   0  0  0  0  0  0  0  0  0  0  0  0
    6.2696   -2.4718   20.9443 H   0  0  0  0  0  0  0  0  0  0  0  0
    8.7576   -0.4380   21.2264 C   0  0  2  0  0  0  0  0  0  0  0  0
    9.1528    0.2801   20.5006 H   0  0  0  0  0  0  0  0  0  0  0  0
    9.5182   -1.6798   21.1206 N   0  0  0  0  0  0  0  0  0  0  0  0
   10.1803   -1.7381   22.1941 C   0  0  0  0  0  0  0  0  0  0  0  0
   11.1476   -2.6182   22.4883 N   0  0  0  0  0  0  0  0  0  0  0  0
   11.2415   -2.7241   23.4769 H   0  0  0  0  0  0  0  0  0  0  0  0
   11.1484   -3.4277   21.8985 H   0  0  0  0  0  0  0  0  0  0  0  0
   10.0116   -0.8415   23.1811 O   0  0  0  0  0  0  0  0  0  0  0  0
    9.0290    0.0818   22.6775 C   0  0  0  0  0  0  0  0  0  0  0  0
    9.4377    1.0944   22.7158 H   0  0  0  0  0  0  0  0  0  0  0  0
    8.1435    0.0315   23.3192 H   0  0  0  0  0  0  0  0  0  0  0  0
    5.4730    0.6271   20.1112 C   0  0  0  0  0  0  0  0  0  0  0  0
    5.0847    0.6065   21.1295 H   0  0  0  0  0  0  0  0  0  0  0  0
    4.8326    1.2964   19.0654 C   0  0  0  0  0  0  0  0  0  0  0  0
    3.8906    1.8066   19.2215 H   0  0  0  0  0  0  0  0  0  0  0  0
  1  2  1  0
  2  3  2  0
  3  4  1  0
  4  5  1  0
  4  6  2  0
  6  7  1  0
  7  8  1  0
  8  9  1  0
  8 10  1  0
  8 11  1  0
  7 12  1  0
 12 13  1  6
 12 14  1  0
 14 15  2  0
 15 16  1  0
 16 17  1  0
 16 18  1  0
 15 19  1  0
 19 20  1  0
 20 21  1  0
 20 22  1  0
  6 23  1  0
 23 24  1  0
 23 25  2  0
 25 26  1  0
 25  2  1  0
 20 12  1  0
M  END
>  <cnnaffinity>  (1) 
-4.2167

>  <filename>  (1) 
CN(c1cccnc1)[C@H]1COC(N)=N1

$$$$
