
     RDKit          3D

 31 32  0  0  0  0  0  0  0  0999 V2000
    8.6401   -1.8920   20.0024 H   0  0  0  0  0  0  0  0  0  0  0  0
    8.2417   -1.5583   20.9437 C   0  0  0  0  0  0  0  0  0  0  0  0
    7.3860   -0.5316   21.1070 C   0  0  0  0  0  0  0  0  0  0  0  0
    6.6617    0.1507   20.0111 C   0  0  0  0  0  0  0  0  0  0  0  0
    7.1521    0.1076   18.6806 C   0  0  0  0  0  0  0  0  0  0  0  0
    8.0881   -0.4039   18.4681 H   0  0  0  0  0  0  0  0  0  0  0  0
    6.5619    0.6652   17.6220 N   0  0  0  0  0  0  0  0  0  0  0  0
    5.3973    1.3015   17.8400 C   0  0  0  0  0  0  0  0  0  0  0  0
    4.9336    1.7615   16.9674 H   0  0  0  0  0  0  0  0  0  0  0  0
    4.7969    1.3738   19.1004 C   0  0  0  0  0  0  0  0  0  0  0  0
    3.8379    1.8674   19.1890 H   0  0  0  0  0  0  0  0  0  0  0  0
    5.4362    0.8099   20.2084 C   0  0  0  0  0  0  0  0  0  0  0  0
    5.0126    0.8619   21.2131 H   0  0  0  0  0  0  0  0  0  0  0  0
    7.2560   -0.2861   22.5917 C   0  0  0  0  0  0  0  0  0  0  0  0
    6.7238    0.6274   23.2028 O   0  0  0  0  0  0  0  0  0  0  0  0
    7.9237   -1.3423   23.1881 N   0  0  0  0  0  0  0  0  0  0  0  0
    8.2142   -1.3178   24.5992 C   0  0  0  0  0  0  0  0  0  0  0  0
    8.4023   -2.3489   24.9427 H   0  0  0  0  0  0  0  0  0  0  0  0
    7.3222   -0.9607   25.1263 H   0  0  0  0  0  0  0  0  0  0  0  0
    9.3420   -0.5140   24.9802 N   0  0  0  0  0  0  0  0  0  0  0  0
    9.1796    0.9328   24.9681 C   0  0  0  0  0  0  0  0  0  0  0  0
    8.1897    1.2053   25.3566 H   0  0  0  0  0  0  0  0  0  0  0  0
    9.2826    1.3936   23.9700 H   0  0  0  0  0  0  0  0  0  0  0  0
    9.9340    1.3873   25.6257 H   0  0  0  0  0  0  0  0  0  0  0  0
   10.6396   -1.0031   24.5543 C   0  0  0  0  0  0  0  0  0  0  0  0
   11.4265   -0.5720   25.1907 H   0  0  0  0  0  0  0  0  0  0  0  0
   10.6836   -2.0985   24.6758 H   0  0  0  0  0  0  0  0  0  0  0  0
   10.9020   -0.7691   23.5031 H   0  0  0  0  0  0  0  0  0  0  0  0
    8.6199   -2.1923   22.2351 C   0  0  0  0  0  0  0  0  0  0  0  0
    9.7164   -2.2130   22.3456 H   0  0  0  0  0  0  0  0  0  0  0  0
    8.2789   -3.2413   22.3112 H   0  0  0  0  0  0  0  0  0  0  0  0
  1  2  1  0
  2  3  2  0
  3  4  1  0
  4  5  2  0
  5  6  1  0
  5  7  1  0
  7  8  2  0
  8  9  1  0
  8 10  1  0
 10 11  1  0
 10 12  2  0
 12 13  1  0
  3 14  1  0
 14 15  2  0
 14 16  1  0
 16 17  1  0
 17 18  1  0
 17 19  1  0
 17 20  1  0
 20 21  1  0
 21 22  1  0
 21 23  1  0
 21 24  1  0
 20 25  1  0
 25 26  1  0
 25 27  1  0
 25 28  1  0
 16 29  1  0
 29 30  1  0
 29 31  1  0
 29  2  1  0
 12  4  1  0
M  END
>  <cnnaffinity>  (1) 
-4.26711

>  <filename>  (1) 
CN(C)CN1CC=C(c2cccnc2)C1=O

$$$$
