
     RDKit          3D

 34 35  0  0  0  0  0  0  0  0999 V2000
    7.4593   -4.5869   21.5889 C   0  0  0  0  0  0  0  0  0  0  0  0
    7.7924   -3.1650   21.7111 N   0  0  0  0  0  0  0  0  0  0  0  0
    8.8881   -2.7472   22.5894 C   0  0  0  0  0  0  0  0  0  0  0  0
    8.3661   -2.0178   23.8088 C   0  0  0  0  0  0  0  0  0  0  0  0
    7.3687   -2.6165   24.5952 C   0  0  0  0  0  0  0  0  0  0  0  0
    6.8583   -1.9824   25.7313 C   0  0  0  0  0  0  0  0  0  0  0  0
    5.4842   -2.8175   26.7670 Br  0  0  0  0  0  0  0  0  0  0  0  0
    7.3571   -0.7334   26.1037 C   0  0  0  0  0  0  0  0  0  0  0  0
    8.3672   -0.1319   25.3471 C   0  0  0  0  0  0  0  0  0  0  0  0
    8.8778   -0.7659   24.2059 C   0  0  0  0  0  0  0  0  0  0  0  0
   10.1567    0.0238   23.3138 Cl  0  0  0  0  0  0  0  0  0  0  0  0
    8.7592    0.8349   25.6492 H   0  0  0  0  0  0  0  0  0  0  0  0
    6.9581   -0.2378   26.9843 H   0  0  0  0  0  0  0  0  0  0  0  0
    6.9747   -3.5888   24.3216 H   0  0  0  0  0  0  0  0  0  0  0  0
    9.6071   -2.1297   22.0389 H   0  0  0  0  0  0  0  0  0  0  0  0
    9.4312   -3.6335   22.9324 H   0  0  0  0  0  0  0  0  0  0  0  0
    7.0120   -2.2367   21.0221 C   0  0  0  0  0  0  0  0  0  0  0  0
    6.0496   -2.6519   20.3826 O   0  0  0  0  0  0  0  0  0  0  0  0
    7.3777   -0.7420   20.9927 C   0  0  0  0  0  0  0  0  0  0  0  0
    6.6687    0.0316   19.8904 C   0  0  0  0  0  0  0  0  0  0  0  0
    5.4508    0.6572   20.1594 C   0  0  0  0  0  0  0  0  0  0  0  0
    4.8198    1.3102   19.0999 C   0  0  0  0  0  0  0  0  0  0  0  0
    5.3998    1.2997   17.8214 C   0  0  0  0  0  0  0  0  0  0  0  0
    6.5674    0.6891   17.5541 N   0  0  0  0  0  0  0  0  0  0  0  0
    7.1867    0.0787   18.5787 C   0  0  0  0  0  0  0  0  0  0  0  0
    8.1240   -0.4341   18.3923 H   0  0  0  0  0  0  0  0  0  0  0  0
    4.8823    1.8011   17.0101 H   0  0  0  0  0  0  0  0  0  0  0  0
    3.8813    1.8301   19.2575 H   0  0  0  0  0  0  0  0  0  0  0  0
    5.0119    0.6286   21.1603 H   0  0  0  0  0  0  0  0  0  0  0  0
    7.1230   -0.3150   21.9669 H   0  0  0  0  0  0  0  0  0  0  0  0
    8.4586   -0.6435   20.8594 H   0  0  0  0  0  0  0  0  0  0  0  0
    7.5711   -4.9148   20.5503 H   0  0  0  0  0  0  0  0  0  0  0  0
    8.1156   -5.1967   22.2124 H   0  0  0  0  0  0  0  0  0  0  0  0
    6.4233   -4.7669   21.8972 H   0  0  0  0  0  0  0  0  0  0  0  0
  1  2  1  0
  2  3  1  0
  3  4  1  0
  4  5  2  0
  5  6  1  0
  6  7  1  0
  6  8  2  0
  8  9  1  0
  9 10  2  0
 10 11  1  0
  9 12  1  0
  8 13  1  0
  5 14  1  0
  3 15  1  0
  3 16  1  0
  2 17  1  0
 17 18  2  0
 17 19  1  0
 19 20  1  0
 20 21  2  0
 21 22  1  0
 22 23  2  0
 23 24  1  0
 24 25  2  0
 25 26  1  0
 23 27  1  0
 22 28  1  0
 21 29  1  0
 19 30  1  0
 19 31  1  0
  1 32  1  0
  1 33  1  0
  1 34  1  0
 10  4  1  0
 25 20  1  0
M  END
>  <cnnaffinity>  (1) 
-5.24157

>  <filename>  (1) 
CN(Cc1cc(Br)ccc1Cl)C(=O)Cc1cccnc1

$$$$
