
     RDKit          3D

 30 31  0  0  0  0  0  0  0  0999 V2000
    4.9362    1.8293   16.9494 H   0  0  0  0  0  0  0  0  0  0  0  0
    5.4235    1.3335   17.7890 C   0  0  0  0  0  0  0  0  0  0  0  0
    6.5930    0.7269   17.5205 N   0  0  0  0  0  0  0  0  0  0  0  0
    7.2060    0.0858   18.5198 C   0  0  0  0  0  0  0  0  0  0  0  0
    8.1437   -0.4135   18.2766 H   0  0  0  0  0  0  0  0  0  0  0  0
    6.6889   -0.0044   19.8260 C   0  0  0  0  0  0  0  0  0  0  0  0
    7.3603   -0.7553   20.8337 N   0  0  0  0  0  0  0  0  0  0  0  0
    6.8121   -1.7237   21.7189 C   0  0  0  0  0  0  0  0  0  0  0  0
    5.6845   -2.1736   21.6969 O   0  0  0  0  0  0  0  0  0  0  0  0
    7.9532   -2.0592   22.5686 C   0  0  0  0  0  0  0  0  0  0  0  0
    7.8109   -2.6411   23.4654 H   0  0  0  0  0  0  0  0  0  0  0  0
    9.0750   -1.4473   22.1017 C   0  0  0  0  0  0  0  0  0  0  0  0
   10.7958   -1.6502   22.7657 S   0  0  0  0  0  0  0  0  0  0  0  0
   10.7898   -2.8545   23.5709 O   0  0  0  0  0  0  0  0  0  0  0  0
   11.7335   -1.4491   21.6825 O   0  0  0  0  0  0  0  0  0  0  0  0
   10.9607   -0.3430   23.8073 N   0  0  0  0  0  0  0  0  0  0  0  0
   10.1226   -0.3950   25.0073 C   0  0  0  0  0  0  0  0  0  0  0  0
   10.1484   -1.4026   25.4203 H   0  0  0  0  0  0  0  0  0  0  0  0
   10.5340    0.2810   25.7628 H   0  0  0  0  0  0  0  0  0  0  0  0
    9.0707   -0.1066   24.8451 H   0  0  0  0  0  0  0  0  0  0  0  0
   11.0513    0.9554   23.1331 C   0  0  0  0  0  0  0  0  0  0  0  0
   11.4424    1.6953   23.8367 H   0  0  0  0  0  0  0  0  0  0  0  0
   11.7657    0.8858   22.3106 H   0  0  0  0  0  0  0  0  0  0  0  0
   10.0915    1.3417   22.7535 H   0  0  0  0  0  0  0  0  0  0  0  0
    8.7142   -0.6179   21.0616 N   0  0  0  0  0  0  0  0  0  0  0  0
    9.2612   -0.0389   20.4293 H   0  0  0  0  0  0  0  0  0  0  0  0
    5.4715    0.6311   20.1021 C   0  0  0  0  0  0  0  0  0  0  0  0
    5.0443    0.5981   21.1046 H   0  0  0  0  0  0  0  0  0  0  0  0
    4.8369    1.3158   19.0589 C   0  0  0  0  0  0  0  0  0  0  0  0
    3.8927    1.8271   19.2091 H   0  0  0  0  0  0  0  0  0  0  0  0
  1  2  1  0
  2  3  2  0
  3  4  1  0
  4  5  1  0
  4  6  2  0
  6  7  1  0
  7  8  1  0
  8  9  2  0
  8 10  1  0
 10 11  1  0
 10 12  2  0
 12 13  1  0
 13 14  2  0
 13 15  2  0
 13 16  1  0
 16 17  1  0
 17 18  1  0
 17 19  1  0
 17 20  1  0
 16 21  1  0
 21 22  1  0
 21 23  1  0
 21 24  1  0
 12 25  1  0
 25 26  1  0
  6 27  1  0
 27 28  1  0
 27 29  2  0
 29 30  1  0
 29  2  1  0
 25  7  1  0
M  END
>  <cnnaffinity>  (1) 
-5.14116

>  <filename>  (1) 
CN(C)S(=O)(=O)c1cc(=O)n(-c2cccnc2)[nH]1

$$$$
