
     RDKit          3D

 37 39  0  0  0  0  0  0  0  0999 V2000
    6.4862   -1.2848   21.7104 H   0  0  0  0  0  0  0  0  0  0  0  0
    7.1429   -0.6714   21.0812 C   0  0  0  0  0  0  0  0  0  0  0  0
    8.4197   -0.4739   21.4646 C   0  0  0  0  0  0  0  0  0  0  0  0
    9.1253   -1.0727   22.6227 C   0  0  0  0  0  0  0  0  0  0  0  0
    8.5727   -2.0957   23.3863 N   0  0  0  0  0  0  0  0  0  0  0  0
    7.9649   -3.2064   22.7300 C   0  0  0  0  0  0  0  0  0  0  0  0
    6.8337   -3.8108   23.2866 C   0  0  0  0  0  0  0  0  0  0  0  0
    6.4055   -3.3407   24.1671 H   0  0  0  0  0  0  0  0  0  0  0  0
    6.2967   -4.9750   22.7175 C   0  0  0  0  0  0  0  0  0  0  0  0
    5.3820   -5.3974   23.1220 H   0  0  0  0  0  0  0  0  0  0  0  0
    6.9393   -5.5896   21.6350 C   0  0  0  0  0  0  0  0  0  0  0  0
    6.5947   -6.5481   21.2504 H   0  0  0  0  0  0  0  0  0  0  0  0
    8.0506   -4.9701   21.0612 C   0  0  0  0  0  0  0  0  0  0  0  0
    8.5795   -5.4192   20.2279 H   0  0  0  0  0  0  0  0  0  0  0  0
    8.5245   -3.7566   21.5688 C   0  0  0  0  0  0  0  0  0  0  0  0
    9.3417   -3.2278   21.0885 H   0  0  0  0  0  0  0  0  0  0  0  0
    8.9901   -2.2222   24.7831 C   0  0  0  0  0  0  0  0  0  0  0  0
    8.2747   -1.7583   25.4786 H   0  0  0  0  0  0  0  0  0  0  0  0
    9.9471   -1.7146   24.9298 H   0  0  0  0  0  0  0  0  0  0  0  0
    9.0999   -3.2812   25.0471 H   0  0  0  0  0  0  0  0  0  0  0  0
   10.3017   -0.6134   22.8509 N   0  0  0  0  0  0  0  0  0  0  0  0
   10.6119    0.3907   21.8426 C   0  0  0  0  0  0  0  0  0  0  0  0
   10.7819    1.3349   22.3706 H   0  0  0  0  0  0  0  0  0  0  0  0
   11.5620    0.1303   21.3646 H   0  0  0  0  0  0  0  0  0  0  0  0
    9.4233    0.4665   20.8442 C   0  0  0  0  0  0  0  0  0  0  0  0
    9.0288    1.4830   20.7465 H   0  0  0  0  0  0  0  0  0  0  0  0
    9.6826    0.1191   19.8379 H   0  0  0  0  0  0  0  0  0  0  0  0
    6.4985   -0.0532   19.9014 C   0  0  0  0  0  0  0  0  0  0  0  0
    7.0786   -0.0101   18.6109 C   0  0  0  0  0  0  0  0  0  0  0  0
    7.9889   -0.5715   18.4029 H   0  0  0  0  0  0  0  0  0  0  0  0
    6.5668    0.6612   17.5700 N   0  0  0  0  0  0  0  0  0  0  0  0
    5.4204    1.3263   17.7759 C   0  0  0  0  0  0  0  0  0  0  0  0
    5.0427    1.8938   16.9308 H   0  0  0  0  0  0  0  0  0  0  0  0
    4.7190    1.3080   18.9871 C   0  0  0  0  0  0  0  0  0  0  0  0
    3.7917    1.8648   19.0830 H   0  0  0  0  0  0  0  0  0  0  0  0
    5.2535    0.5862   20.0539 C   0  0  0  0  0  0  0  0  0  0  0  0
    4.7481    0.5388   21.0184 H   0  0  0  0  0  0  0  0  0  0  0  0
  1  2  1  0
  2  3  2  3
  3  4  1  0
  4  5  1  0
  5  6  1  0
  6  7  2  0
  7  8  1  0
  7  9  1  0
  9 10  1  0
  9 11  2  0
 11 12  1  0
 11 13  1  0
 13 14  1  0
 13 15  2  0
 15 16  1  0
  5 17  1  0
 17 18  1  0
 17 19  1  0
 17 20  1  0
  4 21  2  0
 21 22  1  0
 22 23  1  0
 22 24  1  0
 22 25  1  0
 25 26  1  0
 25 27  1  0
  2 28  1  0
 28 29  2  0
 29 30  1  0
 29 31  1  0
 31 32  2  0
 32 33  1  0
 32 34  1  0
 34 35  1  0
 34 36  2  0
 36 37  1  0
 25  3  1  0
 36 28  1  0
 15  6  1  0
M  END
>  <cnnaffinity>  (1) 
-5.14888

>  <filename>  (1) 
CN(C1=NCCC1=Cc1cccnc1)c1ccccc1

$$$$
