
     RDKit          3D

 35 36  0  0  0  0  0  0  0  0999 V2000
    8.6631   -0.3237   21.2970 C   0  0  0  0  0  0  0  0  0  0  0  0
    7.3103   -0.7364   20.9256 N   0  0  0  0  0  0  0  0  0  0  0  0
    6.6106   -1.6318   21.7503 C   0  0  0  0  0  0  0  0  0  0  0  0
    5.5574   -2.1366   21.3693 O   0  0  0  0  0  0  0  0  0  0  0  0
    7.1178   -1.9897   23.1576 C   0  0  0  0  0  0  0  0  0  0  0  0
    6.2758   -1.3097   24.2214 C   0  0  0  0  0  0  0  0  0  0  0  0
    6.1876    0.0684   24.2868 C   0  0  0  0  0  0  0  0  0  0  0  0
    5.1986    0.8029   25.0958 C   0  0  0  0  0  0  0  0  0  0  0  0
    5.4504    2.1430   25.4143 C   0  0  0  0  0  0  0  0  0  0  0  0
    4.5551    2.8761   26.2021 C   0  0  0  0  0  0  0  0  0  0  0  0
    3.3696    2.2906   26.6519 C   0  0  0  0  0  0  0  0  0  0  0  0
    2.1727    3.2874   27.7634 Br  0  0  0  0  0  0  0  0  0  0  0  0
    3.0750    0.9705   26.2922 C   0  0  0  0  0  0  0  0  0  0  0  0
    3.9887    0.2258   25.5274 C   0  0  0  0  0  0  0  0  0  0  0  0
    3.7522   -0.7987   25.2563 H   0  0  0  0  0  0  0  0  0  0  0  0
    2.1352    0.5315   26.6159 H   0  0  0  0  0  0  0  0  0  0  0  0
    4.7746    3.9049   26.4702 H   0  0  0  0  0  0  0  0  0  0  0  0
    6.3620    2.6110   25.0594 H   0  0  0  0  0  0  0  0  0  0  0  0
    6.8630    0.6518   23.6649 H   0  0  0  0  0  0  0  0  0  0  0  0
    5.6436   -1.9185   24.8680 H   0  0  0  0  0  0  0  0  0  0  0  0
    7.0619   -3.0785   23.2733 H   0  0  0  0  0  0  0  0  0  0  0  0
    8.1631   -1.6849   23.2586 H   0  0  0  0  0  0  0  0  0  0  0  0
    6.6716   -0.0629   19.8548 C   0  0  0  0  0  0  0  0  0  0  0  0
    5.4463    0.5600   20.1005 C   0  0  0  0  0  0  0  0  0  0  0  0
    4.8328    1.2594   19.0565 C   0  0  0  0  0  0  0  0  0  0  0  0
    5.4478    1.3103   17.8000 C   0  0  0  0  0  0  0  0  0  0  0  0
    6.6299    0.7160   17.5412 N   0  0  0  0  0  0  0  0  0  0  0  0
    7.2357    0.0567   18.5563 C   0  0  0  0  0  0  0  0  0  0  0  0
    8.1962   -0.4131   18.3576 H   0  0  0  0  0  0  0  0  0  0  0  0
    4.9527    1.8612   17.0062 H   0  0  0  0  0  0  0  0  0  0  0  0
    3.8911    1.7742   19.2152 H   0  0  0  0  0  0  0  0  0  0  0  0
    5.0124    0.5221   21.0987 H   0  0  0  0  0  0  0  0  0  0  0  0
    9.2968   -1.2078   21.4173 H   0  0  0  0  0  0  0  0  0  0  0  0
    9.1148    0.3084   20.5241 H   0  0  0  0  0  0  0  0  0  0  0  0
    8.6573    0.2454   22.2352 H   0  0  0  0  0  0  0  0  0  0  0  0
  1  2  1  0
  2  3  1  0
  3  4  2  0
  3  5  1  0
  5  6  1  0
  6  7  2  3
  7  8  1  0
  8  9  2  0
  9 10  1  0
 10 11  2  0
 11 12  1  0
 11 13  1  0
 13 14  2  0
 14 15  1  0
 13 16  1  0
 10 17  1  0
  9 18  1  0
  7 19  1  0
  6 20  1  0
  5 21  1  0
  5 22  1  0
  2 23  1  0
 23 24  2  0
 24 25  1  0
 25 26  2  0
 26 27  1  0
 27 28  2  0
 28 29  1  0
 26 30  1  0
 25 31  1  0
 24 32  1  0
  1 33  1  0
  1 34  1  0
  1 35  1  0
 14  8  1  0
 28 23  1  0
M  END
>  <cnnaffinity>  (1) 
-4.87495

>  <filename>  (1) 
CN(C(=O)CC=Cc1ccc(Br)cc1)c1cccnc1

$$$$
