
     RDKit          3D

 29 30  0  0  0  0  0  0  0  0999 V2000
    4.9720    1.7659   17.0301 H   0  0  0  0  0  0  0  0  0  0  0  0
    5.4333    1.2585   17.8709 C   0  0  0  0  0  0  0  0  0  0  0  0
    6.5923    0.6283   17.6179 N   0  0  0  0  0  0  0  0  0  0  0  0
    7.2179    0.0355   18.6471 C   0  0  0  0  0  0  0  0  0  0  0  0
    8.1638   -0.4527   18.4177 H   0  0  0  0  0  0  0  0  0  0  0  0
    6.6906    0.0166   19.9561 C   0  0  0  0  0  0  0  0  0  0  0  0
    7.4243   -0.5515   21.0027 O   0  0  0  0  0  0  0  0  0  0  0  0
    6.8424   -1.4528   21.8745 C   0  0  0  0  0  0  0  0  0  0  0  0
    5.8185   -2.0436   21.6470 O   0  0  0  0  0  0  0  0  0  0  0  0
    7.6355   -1.6136   23.0055 N   0  0  0  0  0  0  0  0  0  0  0  0
    7.0661   -2.2362   24.1720 C   0  0  0  0  0  0  0  0  0  0  0  0
    6.1785   -1.5097   24.9880 C   0  0  0  0  0  0  0  0  0  0  0  0
    5.9230   -0.5001   24.6814 H   0  0  0  0  0  0  0  0  0  0  0  0
    5.6472   -2.0560   26.1645 C   0  0  0  0  0  0  0  0  0  0  0  0
    4.9590   -1.4739   26.7755 H   0  0  0  0  0  0  0  0  0  0  0  0
    5.9939   -3.3541   26.5542 C   0  0  0  0  0  0  0  0  0  0  0  0
    5.5722   -3.7935   27.4594 H   0  0  0  0  0  0  0  0  0  0  0  0
    6.8774   -4.0978   25.7676 C   0  0  0  0  0  0  0  0  0  0  0  0
    7.1720   -5.1056   26.0513 H   0  0  0  0  0  0  0  0  0  0  0  0
    7.4120   -3.5409   24.5952 C   0  0  0  0  0  0  0  0  0  0  0  0
    8.5211   -4.5260   23.6829 Cl  0  0  0  0  0  0  0  0  0  0  0  0
    9.0746   -1.2988   23.0120 C   0  0  0  0  0  0  0  0  0  0  0  0
    9.2646   -0.2199   22.9799 H   0  0  0  0  0  0  0  0  0  0  0  0
    9.5041   -1.7081   23.9290 H   0  0  0  0  0  0  0  0  0  0  0  0
    9.5817   -1.7590   22.1589 H   0  0  0  0  0  0  0  0  0  0  0  0
    5.4644    0.6375   20.1996 C   0  0  0  0  0  0  0  0  0  0  0  0
    5.0295    0.5979   21.1955 H   0  0  0  0  0  0  0  0  0  0  0  0
    4.8337    1.2834   19.1327 C   0  0  0  0  0  0  0  0  0  0  0  0
    3.9020    1.8180   19.2759 H   0  0  0  0  0  0  0  0  0  0  0  0
  1  2  1  0
  2  3  2  0
  3  4  1  0
  4  5  1  0
  4  6  2  0
  6  7  1  0
  7  8  1  0
  8  9  2  0
  8 10  1  0
 10 11  1  0
 11 12  2  0
 12 13  1  0
 12 14  1  0
 14 15  1  0
 14 16  2  0
 16 17  1  0
 16 18  1  0
 18 19  1  0
 18 20  2  0
 20 21  1  0
 10 22  1  0
 22 23  1  0
 22 24  1  0
 22 25  1  0
  6 26  1  0
 26 27  1  0
 26 28  2  0
 28 29  1  0
 28  2  1  0
 20 11  1  0
M  END
>  <cnnaffinity>  (1) 
-4.91592

>  <filename>  (1) 
CN(C(=O)Oc1cccnc1)c1ccccc1Cl

$$$$
