
     RDKit          3D

 32 34  0  0  0  0  0  0  0  0999 V2000
    4.9229    1.8244   16.9526 H   0  0  0  0  0  0  0  0  0  0  0  0
    5.3902    1.3328   17.7997 C   0  0  0  0  0  0  0  0  0  0  0  0
    6.5585    0.7211   17.5497 N   0  0  0  0  0  0  0  0  0  0  0  0
    7.1590    0.1167   18.5880 C   0  0  0  0  0  0  0  0  0  0  0  0
    8.1084   -0.3717   18.3676 H   0  0  0  0  0  0  0  0  0  0  0  0
    6.6445    0.0836   19.9099 C   0  0  0  0  0  0  0  0  0  0  0  0
    7.3271   -0.6347   21.0292 C   0  0  0  0  0  0  0  0  0  0  0  0
    7.6335   -2.0389   21.0219 C   0  0  0  0  0  0  0  0  0  0  0  0
    7.3766   -2.7029   20.2068 H   0  0  0  0  0  0  0  0  0  0  0  0
    8.1802   -2.5720   22.0750 N   0  0  0  0  0  0  0  0  0  0  0  0
    8.3646   -1.3926   23.2358 S   0  0  0  0  0  0  0  0  0  0  0  0
    7.6472   -0.1368   22.2859 C   0  0  0  0  0  0  0  0  0  0  0  0
    7.4777    1.1358   22.7681 N   0  0  0  0  0  0  0  0  0  0  0  0
    6.9715    1.3434   24.0885 C   0  0  0  0  0  0  0  0  0  0  0  0
    5.6587    1.7975   24.2654 C   0  0  0  0  0  0  0  0  0  0  0  0
    5.0422    1.9715   23.3872 H   0  0  0  0  0  0  0  0  0  0  0  0
    5.1557    2.0001   25.5549 C   0  0  0  0  0  0  0  0  0  0  0  0
    4.1334    2.3454   25.6906 H   0  0  0  0  0  0  0  0  0  0  0  0
    5.9716    1.7648   26.6678 C   0  0  0  0  0  0  0  0  0  0  0  0
    5.5906    1.9354   27.6723 H   0  0  0  0  0  0  0  0  0  0  0  0
    7.2890    1.3269   26.4854 C   0  0  0  0  0  0  0  0  0  0  0  0
    7.9330    1.1464   27.3434 H   0  0  0  0  0  0  0  0  0  0  0  0
    7.7909    1.1138   25.1981 C   0  0  0  0  0  0  0  0  0  0  0  0
    8.8040    0.7589   25.0407 H   0  0  0  0  0  0  0  0  0  0  0  0
    7.6496    2.2904   21.9030 C   0  0  0  0  0  0  0  0  0  0  0  0
    8.2451    1.9883   21.0374 H   0  0  0  0  0  0  0  0  0  0  0  0
    6.6919    2.6974   21.5463 H   0  0  0  0  0  0  0  0  0  0  0  0
    8.1816    3.0863   22.4380 H   0  0  0  0  0  0  0  0  0  0  0  0
    5.4045    0.7119   20.1192 C   0  0  0  0  0  0  0  0  0  0  0  0
    4.9401    0.6746   21.1084 H   0  0  0  0  0  0  0  0  0  0  0  0
    4.7718    1.3548   19.0523 C   0  0  0  0  0  0  0  0  0  0  0  0
    3.8205    1.8577   19.1824 H   0  0  0  0  0  0  0  0  0  0  0  0
  1  2  1  0
  2  3  2  0
  3  4  1  0
  4  5  1  0
  4  6  2  0
  6  7  1  0
  7  8  1  0
  8  9  1  0
  8 10  2  0
 10 11  1  0
 11 12  1  0
 12 13  1  0
 13 14  1  0
 14 15  2  0
 15 16  1  0
 15 17  1  0
 17 18  1  0
 17 19  2  0
 19 20  1  0
 19 21  1  0
 21 22  1  0
 21 23  2  0
 23 24  1  0
 13 25  1  0
 25 26  1  0
 25 27  1  0
 25 28  1  0
  6 29  1  0
 29 30  1  0
 29 31  2  0
 31 32  1  0
 31  2  1  0
 12  7  2  0
 23 14  1  0
M  END
>  <cnnaffinity>  (1) 
-4.9597

>  <filename>  (1) 
CN(c1ccccc1)c1sncc1-c1cccnc1

$$$$
