
     RDKit          3D

 40 42  0  0  0  0  0  0  0  0999 V2000
    5.1987    1.6532   16.5567 H   0  0  0  0  0  0  0  0  0  0  0  0
    5.6383    1.1936   17.4388 C   0  0  0  0  0  0  0  0  0  0  0  0
    6.7452    0.4670   17.2346 N   0  0  0  0  0  0  0  0  0  0  0  0
    7.3345   -0.0908   18.2965 C   0  0  0  0  0  0  0  0  0  0  0  0
    8.2159   -0.6930   18.0774 H   0  0  0  0  0  0  0  0  0  0  0  0
    6.8708    0.0431   19.6186 C   0  0  0  0  0  0  0  0  0  0  0  0
    7.6097   -0.5023   20.7640 C   0  0  0  0  0  0  0  0  0  0  0  0
    7.2038   -0.7924   22.0257 C   0  0  0  0  0  0  0  0  0  0  0  0
    6.2173   -0.7612   22.4652 H   0  0  0  0  0  0  0  0  0  0  0  0
    8.3319   -1.1373   22.7688 N   0  0  0  0  0  0  0  0  0  0  0  0
    8.3840   -1.6968   24.1103 C   0  0  0  0  0  0  0  0  0  0  0  0
    9.3819   -1.4557   24.5070 H   0  0  0  0  0  0  0  0  0  0  0  0
    7.6389   -1.1773   24.7269 H   0  0  0  0  0  0  0  0  0  0  0  0
    8.1174   -3.1012   24.1325 N   0  0  0  0  0  0  0  0  0  0  0  0
    7.1398   -3.6606   25.0453 C   0  0  0  0  0  0  0  0  0  0  0  0
    7.5893   -4.2498   25.8651 H   0  0  0  0  0  0  0  0  0  0  0  0
    6.5370   -2.8582   25.4877 H   0  0  0  0  0  0  0  0  0  0  0  0
    6.4414   -4.3217   24.5149 H   0  0  0  0  0  0  0  0  0  0  0  0
    8.8591   -4.0152   23.2746 C   0  0  0  0  0  0  0  0  0  0  0  0
    9.4654   -3.4331   22.5700 H   0  0  0  0  0  0  0  0  0  0  0  0
    9.5755   -4.6151   23.8728 H   0  0  0  0  0  0  0  0  0  0  0  0
    7.9368   -4.9374   22.4648 C   0  0  0  0  0  0  0  0  0  0  0  0
    7.6030   -6.2215   22.9338 C   0  0  0  0  0  0  0  0  0  0  0  0
    8.1070   -6.6189   23.8111 H   0  0  0  0  0  0  0  0  0  0  0  0
    6.5918   -6.9686   22.3213 C   0  0  0  0  0  0  0  0  0  0  0  0
    6.2960   -7.9398   22.7099 H   0  0  0  0  0  0  0  0  0  0  0  0
    5.9669   -6.4834   21.1757 C   0  0  0  0  0  0  0  0  0  0  0  0
    5.2174   -7.0871   20.6733 H   0  0  0  0  0  0  0  0  0  0  0  0
    6.3547   -5.2531   20.6359 C   0  0  0  0  0  0  0  0  0  0  0  0
    5.9151   -4.9022   19.7044 H   0  0  0  0  0  0  0  0  0  0  0  0
    7.3080   -4.4707   21.2956 C   0  0  0  0  0  0  0  0  0  0  0  0
    7.5600   -3.4879   20.8918 H   0  0  0  0  0  0  0  0  0  0  0  0
    9.4389   -1.0688   21.9847 C   0  0  0  0  0  0  0  0  0  0  0  0
   11.0439   -1.2657   22.3911 S   0  0  0  0  0  0  0  0  0  0  0  0
    8.9802   -0.7260   20.7571 N   0  0  0  0  0  0  0  0  0  0  0  0
    9.6570   -0.6149   20.0234 H   0  0  0  0  0  0  0  0  0  0  0  0
    5.6754    0.7665   19.8029 C   0  0  0  0  0  0  0  0  0  0  0  0
    5.2469    0.8808   20.7990 H   0  0  0  0  0  0  0  0  0  0  0  0
    5.0589    1.3548   18.6999 C   0  0  0  0  0  0  0  0  0  0  0  0
    4.1541    1.9455   18.7950 H   0  0  0  0  0  0  0  0  0  0  0  0
  1  2  1  0
  2  3  2  0
  3  4  1  0
  4  5  1  0
  4  6  2  0
  6  7  1  0
  7  8  2  0
  8  9  1  0
  8 10  1  0
 10 11  1  0
 11 12  1  0
 11 13  1  0
 11 14  1  0
 14 15  1  0
 15 16  1  0
 15 17  1  0
 15 18  1  0
 14 19  1  0
 19 20  1  0
 19 21  1  0
 19 22  1  0
 22 23  2  0
 23 24  1  0
 23 25  1  0
 25 26  1  0
 25 27  2  0
 27 28  1  0
 27 29  1  0
 29 30  1  0
 29 31  2  0
 31 32  1  0
 10 33  1  0
 33 34  2  0
 33 35  1  0
 35 36  1  0
  6 37  1  0
 37 38  1  0
 37 39  2  0
 39 40  1  0
 39  2  1  0
 35  7  1  0
 31 22  1  0
M  END
>  <cnnaffinity>  (1) 
-5.82945

>  <filename>  (1) 
CN(Cc1ccccc1)Cn1cc(-c2cccnc2)[nH]c1=S

$$$$
