
     RDKit          3D

 32 33  0  0  0  0  0  0  0  0999 V2000
    4.9188    1.7858   16.9950 H   0  0  0  0  0  0  0  0  0  0  0  0
    5.4012    1.2946   17.8391 C   0  0  0  0  0  0  0  0  0  0  0  0
    6.5627    0.6742   17.5815 N   0  0  0  0  0  0  0  0  0  0  0  0
    7.1835    0.0655   18.5999 C   0  0  0  0  0  0  0  0  0  0  0  0
    8.1189   -0.4388   18.3696 H   0  0  0  0  0  0  0  0  0  0  0  0
    6.6818    0.0275   19.9143 C   0  0  0  0  0  0  0  0  0  0  0  0
    7.3697   -0.6548   20.9682 N   0  0  0  0  0  0  0  0  0  0  0  0
    8.6241   -0.3681   21.5023 C   0  0  0  0  0  0  0  0  0  0  0  0
    9.4578    0.7825   21.0668 C   0  0  0  0  0  0  0  0  0  0  0  0
   10.4527    0.6578   21.5023 H   0  0  0  0  0  0  0  0  0  0  0  0
    9.5647    0.7565   19.9817 H   0  0  0  0  0  0  0  0  0  0  0  0
    8.8372    2.1193   21.4710 C   0  0  0  0  0  0  0  0  0  0  0  0
    7.9400    2.2758   20.8583 H   0  0  0  0  0  0  0  0  0  0  0  0
    9.5361    2.9380   21.2166 H   0  0  0  0  0  0  0  0  0  0  0  0
    8.4763    2.1516   22.8847 N   0  0  0  0  0  0  0  0  0  0  0  0
    7.4412    3.1380   23.1498 C   0  0  0  0  0  0  0  0  0  0  0  0
    7.1794    3.1278   24.2128 H   0  0  0  0  0  0  0  0  0  0  0  0
    7.7455    4.1707   22.8877 H   0  0  0  0  0  0  0  0  0  0  0  0
    6.5335    2.8909   22.5879 H   0  0  0  0  0  0  0  0  0  0  0  0
    9.6340    2.3769   23.7396 C   0  0  0  0  0  0  0  0  0  0  0  0
    9.3315    2.3450   24.7913 H   0  0  0  0  0  0  0  0  0  0  0  0
   10.3880    1.5967   23.5929 H   0  0  0  0  0  0  0  0  0  0  0  0
   10.1126    3.3590   23.5537 H   0  0  0  0  0  0  0  0  0  0  0  0
    8.9406   -1.1866   22.4503 N   0  0  0  0  0  0  0  0  0  0  0  0
    7.8524   -1.9993   22.5473 N   0  0  0  0  0  0  0  0  0  0  0  0
    7.7734   -2.7291   23.2352 H   0  0  0  0  0  0  0  0  0  0  0  0
    6.8655   -1.7438   21.6697 C   0  0  0  0  0  0  0  0  0  0  0  0
    5.4655   -2.6165   21.4905 S   0  0  0  0  0  0  0  0  0  0  0  0
    5.4554    0.6458   20.1703 C   0  0  0  0  0  0  0  0  0  0  0  0
    5.0261    0.6017   21.1739 H   0  0  0  0  0  0  0  0  0  0  0  0
    4.8180    1.3062   19.1112 C   0  0  0  0  0  0  0  0  0  0  0  0
    3.8848    1.8325   19.2588 H   0  0  0  0  0  0  0  0  0  0  0  0
  1  2  1  0
  2  3  2  0
  3  4  1  0
  4  5  1  0
  4  6  2  0
  6  7  1  0
  7  8  1  0
  8  9  1  0
  9 10  1  0
  9 11  1  0
  9 12  1  0
 12 13  1  0
 12 14  1  0
 12 15  1  0
 15 16  1  0
 16 17  1  0
 16 18  1  0
 16 19  1  0
 15 20  1  0
 20 21  1  0
 20 22  1  0
 20 23  1  0
  8 24  2  0
 24 25  1  0
 25 26  1  0
 25 27  1  0
 27 28  2  0
  6 29  1  0
 29 30  1  0
 29 31  2  0
 31 32  1  0
 31  2  1  0
 27  7  1  0
M  END
>  <cnnaffinity>  (1) 
-4.69153

>  <filename>  (1) 
CN(C)CCc1n[nH]c(=S)n1-c1cccnc1

$$$$
