
     RDKit          3D

 37 38  0  0  0  0  0  0  0  0999 V2000
    4.9306    1.8463   16.9651 H   0  0  0  0  0  0  0  0  0  0  0  0
    5.4020    1.3360   17.8051 C   0  0  0  0  0  0  0  0  0  0  0  0
    6.5759    0.7351   17.5580 N   0  0  0  0  0  0  0  0  0  0  0  0
    7.1754    0.1164   18.5816 C   0  0  0  0  0  0  0  0  0  0  0  0
    8.1292   -0.3494   18.3532 H   0  0  0  0  0  0  0  0  0  0  0  0
    6.6430    0.0428   19.8810 C   0  0  0  0  0  0  0  0  0  0  0  0
    7.3766   -0.6735   21.0001 C   0  0  1  0  0  0  0  0  0  0  0  0
    6.8336   -0.4995   21.9433 H   0  0  0  0  0  0  0  0  0  0  0  0
    7.4881   -2.2215   20.8841 C   0  0  0  0  0  0  0  0  0  0  0  0
    6.6263   -3.0442   20.7286 O   0  0  0  0  0  0  0  0  0  0  0  0
    8.8126   -2.4997   21.0636 N   0  0  0  0  0  0  0  0  0  0  0  0
    9.2535   -3.3732   20.8591 H   0  0  0  0  0  0  0  0  0  0  0  0
    9.5998   -1.3784   21.1656 C   0  0  0  0  0  0  0  0  0  0  0  0
   10.8025   -1.4336   21.2883 O   0  0  0  0  0  0  0  0  0  0  0  0
    8.7822   -0.2866   21.1128 N   0  0  0  0  0  0  0  0  0  0  0  0
    9.2774    1.0444   21.4233 C   0  0  0  0  0  0  0  0  0  0  0  0
   10.0537    1.3133   20.6954 H   0  0  0  0  0  0  0  0  0  0  0  0
    8.4462    1.7482   21.2849 H   0  0  0  0  0  0  0  0  0  0  0  0
    9.8366    1.1022   22.8504 C   0  0  0  0  0  0  0  0  0  0  0  0
   10.7038    0.4305   22.8932 H   0  0  0  0  0  0  0  0  0  0  0  0
    9.0814    0.7063   23.5433 H   0  0  0  0  0  0  0  0  0  0  0  0
   10.2288    2.5046   23.3132 C   0  0  0  0  0  0  0  0  0  0  0  0
   10.5133    2.4736   24.3849 H   0  0  0  0  0  0  0  0  0  0  0  0
    9.3296    3.1404   23.2741 H   0  0  0  0  0  0  0  0  0  0  0  0
   11.2672    3.1165   22.4852 N   0  0  0  0  0  0  0  0  0  0  0  0
   11.3080    4.5688   22.6051 C   0  0  0  0  0  0  0  0  0  0  0  0
   11.7183    4.9171   23.5714 H   0  0  0  0  0  0  0  0  0  0  0  0
   11.9183    4.9994   21.7988 H   0  0  0  0  0  0  0  0  0  0  0  0
   10.2993    4.9892   22.5171 H   0  0  0  0  0  0  0  0  0  0  0  0
   12.5961    2.5437   22.6674 C   0  0  0  0  0  0  0  0  0  0  0  0
   13.2931    3.0244   21.9739 H   0  0  0  0  0  0  0  0  0  0  0  0
   12.6000    1.4693   22.4458 H   0  0  0  0  0  0  0  0  0  0  0  0
   13.0040    2.6867   23.6876 H   0  0  0  0  0  0  0  0  0  0  0  0
    5.4097    0.6668   20.1164 C   0  0  0  0  0  0  0  0  0  0  0  0
    4.9519    0.6732   21.1096 H   0  0  0  0  0  0  0  0  0  0  0  0
    4.7803    1.3260   19.0579 C   0  0  0  0  0  0  0  0  0  0  0  0
    3.8396    1.8512   19.1939 H   0  0  0  0  0  0  0  0  0  0  0  0
  1  2  1  0
  2  3  2  0
  3  4  1  0
  4  5  1  0
  4  6  2  0
  6  7  1  0
  7  8  1  1
  7  9  1  0
  9 10  2  0
  9 11  1  0
 11 12  1  0
 11 13  1  0
 13 14  2  0
 13 15  1  0
 15 16  1  0
 16 17  1  0
 16 18  1  0
 16 19  1  0
 19 20  1  0
 19 21  1  0
 19 22  1  0
 22 23  1  0
 22 24  1  0
 22 25  1  0
 25 26  1  0
 26 27  1  0
 26 28  1  0
 26 29  1  0
 25 30  1  0
 30 31  1  0
 30 32  1  0
 30 33  1  0
  6 34  1  0
 34 35  1  0
 34 36  2  0
 36 37  1  0
 36  2  1  0
 15  7  1  0
M  END
>  <cnnaffinity>  (1) 
-4.80471

>  <filename>  (1) 
CN(C)CCCN1C(=O)NC(=O)[C@@H]1c1cccnc1

$$$$
