
     RDKit          3D

 31 32  0  0  0  0  0  0  0  0999 V2000
    4.9074    1.7989   16.9950 H   0  0  0  0  0  0  0  0  0  0  0  0
    5.3857    1.2886   17.8273 C   0  0  0  0  0  0  0  0  0  0  0  0
    6.5411    0.6586   17.5487 N   0  0  0  0  0  0  0  0  0  0  0  0
    7.1787    0.0649   18.5667 C   0  0  0  0  0  0  0  0  0  0  0  0
    8.1305   -0.4184   18.3524 H   0  0  0  0  0  0  0  0  0  0  0  0
    6.7003    0.0482   19.9054 C   0  0  0  0  0  0  0  0  0  0  0  0
    7.3990   -0.5935   20.9872 N   0  0  0  0  0  0  0  0  0  0  0  0
    6.7081   -1.6093   21.7852 C   0  0  0  0  0  0  0  0  0  0  0  0
    7.4021   -2.4042   22.0712 H   0  0  0  0  0  0  0  0  0  0  0  0
    6.2417   -1.2026   22.6929 H   0  0  0  0  0  0  0  0  0  0  0  0
    5.9296   -2.0385   21.1491 H   0  0  0  0  0  0  0  0  0  0  0  0
    8.8795   -0.0180   21.5255 S   0  0  0  0  0  0  0  0  0  0  0  0
    9.5092    0.6522   20.4019 O   0  0  0  0  0  0  0  0  0  0  0  0
    9.4901   -1.1180   22.2453 O   0  0  0  0  0  0  0  0  0  0  0  0
    8.4466    1.2428   22.7046 C   0  0  0  0  0  0  0  0  0  0  0  0
    7.8846    0.7165   23.4787 H   0  0  0  0  0  0  0  0  0  0  0  0
    7.8246    1.9377   22.1366 H   0  0  0  0  0  0  0  0  0  0  0  0
    9.7041    1.8683   23.2184 C   0  0  0  0  0  0  0  0  0  0  0  0
   10.3838    1.3120   24.2981 C   0  0  0  0  0  0  0  0  0  0  0  0
   10.0040    0.4426   24.8227 H   0  0  0  0  0  0  0  0  0  0  0  0
   11.5936    1.8893   24.6820 C   0  0  0  0  0  0  0  0  0  0  0  0
   12.1740    1.4444   25.4821 H   0  0  0  0  0  0  0  0  0  0  0  0
   12.1248    2.9664   24.0918 N   0  0  0  0  0  0  0  0  0  0  0  0
   11.4697    3.4884   23.0480 C   0  0  0  0  0  0  0  0  0  0  0  0
   11.9418    4.3550   22.5797 H   0  0  0  0  0  0  0  0  0  0  0  0
   10.2655    2.9631   22.5665 C   0  0  0  0  0  0  0  0  0  0  0  0
    9.7777    3.3799   21.6972 H   0  0  0  0  0  0  0  0  0  0  0  0
    5.4713    0.6633   20.1550 C   0  0  0  0  0  0  0  0  0  0  0  0
    5.0617    0.6126   21.1621 H   0  0  0  0  0  0  0  0  0  0  0  0
    4.8106    1.3122   19.1018 C   0  0  0  0  0  0  0  0  0  0  0  0
    3.8726    1.8318   19.2627 H   0  0  0  0  0  0  0  0  0  0  0  0
  1  2  1  0
  2  3  2  0
  3  4  1  0
  4  5  1  0
  4  6  2  0
  6  7  1  0
  7  8  1  0
  8  9  1  0
  8 10  1  0
  8 11  1  0
  7 12  1  0
 12 13  2  0
 12 14  2  0
 12 15  1  0
 15 16  1  0
 15 17  1  0
 15 18  1  0
 18 19  2  0
 19 20  1  0
 19 21  1  0
 21 22  1  0
 21 23  2  0
 23 24  1  0
 24 25  1  0
 24 26  2  0
 26 27  1  0
  6 28  1  0
 28 29  1  0
 28 30  2  0
 30 31  1  0
 30  2  1  0
 26 18  1  0
M  END
>  <cnnaffinity>  (1) 
-4.6218

>  <filename>  (1) 
CN(c1cccnc1)S(=O)(=O)Cc1ccncc1

$$$$
