
     RDKit          3D

 36 38  0  0  0  0  0  0  0  0999 V2000
    4.9368    1.7983   16.9796 H   0  0  0  0  0  0  0  0  0  0  0  0
    5.3952    1.2967   17.8299 C   0  0  0  0  0  0  0  0  0  0  0  0
    6.5584    0.6752   17.5864 N   0  0  0  0  0  0  0  0  0  0  0  0
    7.1533    0.0498   18.6137 C   0  0  0  0  0  0  0  0  0  0  0  0
    8.1111   -0.4237   18.3708 H   0  0  0  0  0  0  0  0  0  0  0  0
    6.6205   -0.0169   19.9153 C   0  0  0  0  0  0  0  0  0  0  0  0
    7.3619   -0.7193   21.0314 C   0  0  0  0  0  0  0  0  0  0  0  0
    6.6645   -1.1150   21.7798 H   0  0  0  0  0  0  0  0  0  0  0  0
    7.9153   -1.5822   20.6330 H   0  0  0  0  0  0  0  0  0  0  0  0
    8.3325    0.1218   21.7209 N   0  0  0  0  0  0  0  0  0  0  0  0
    9.4812    0.4662   20.8905 C   0  0  0  0  0  0  0  0  0  0  0  0
   10.3043    0.8743   21.4953 H   0  0  0  0  0  0  0  0  0  0  0  0
    9.2148    1.1944   20.1110 H   0  0  0  0  0  0  0  0  0  0  0  0
    9.8649   -0.4325   20.3868 H   0  0  0  0  0  0  0  0  0  0  0  0
    7.8115    1.2676   22.4113 C   0  0  0  0  0  0  0  0  0  0  0  0
    8.6666    1.7978   22.8630 H   0  0  0  0  0  0  0  0  0  0  0  0
    7.2775    1.9643   21.7406 H   0  0  0  0  0  0  0  0  0  0  0  0
    6.8879    0.8929   23.4526 N   0  0  0  0  0  0  0  0  0  0  0  0
    5.7987    1.6726   23.7765 C   0  0  0  0  0  0  0  0  0  0  0  0
    5.3802    2.5673   23.0760 O   0  0  0  0  0  0  0  0  0  0  0  0
    5.3137    1.1956   25.1125 C   0  0  0  0  0  0  0  0  0  0  0  0
    4.2585    1.6284   25.9272 C   0  0  0  0  0  0  0  0  0  0  0  0
    3.6051    2.4459   25.6282 H   0  0  0  0  0  0  0  0  0  0  0  0
    4.0720    0.9815   27.1541 C   0  0  0  0  0  0  0  0  0  0  0  0
    3.2634    1.2907   27.8126 H   0  0  0  0  0  0  0  0  0  0  0  0
    4.9232   -0.0676   27.5555 C   0  0  0  0  0  0  0  0  0  0  0  0
    4.7591   -0.5513   28.5154 H   0  0  0  0  0  0  0  0  0  0  0  0
    5.9786   -0.4903   26.7405 C   0  0  0  0  0  0  0  0  0  0  0  0
    6.6392   -1.2951   27.0561 H   0  0  0  0  0  0  0  0  0  0  0  0
    6.1620    0.1576   25.5122 C   0  0  0  0  0  0  0  0  0  0  0  0
    7.1983   -0.0249   24.4435 C   0  0  0  0  0  0  0  0  0  0  0  0
    8.1451   -0.7702   24.4027 O   0  0  0  0  0  0  0  0  0  0  0  0
    5.4102    0.6475   20.1432 C   0  0  0  0  0  0  0  0  0  0  0  0
    4.9771    0.6598   21.1410 H   0  0  0  0  0  0  0  0  0  0  0  0
    4.7885    1.3140   19.0871 C   0  0  0  0  0  0  0  0  0  0  0  0
    3.8644    1.8543   19.2336 H   0  0  0  0  0  0  0  0  0  0  0  0
  1  2  1  0
  2  3  2  0
  3  4  1  0
  4  5  1  0
  4  6  2  0
  6  7  1  0
  7  8  1  0
  7  9  1  0
  7 10  1  0
 10 11  1  0
 11 12  1  0
 11 13  1  0
 11 14  1  0
 10 15  1  0
 15 16  1  0
 15 17  1  0
 15 18  1  0
 18 19  1  0
 19 20  2  0
 19 21  1  0
 21 22  2  0
 22 23  1  0
 22 24  1  0
 24 25  1  0
 24 26  2  0
 26 27  1  0
 26 28  1  0
 28 29  1  0
 28 30  2  0
 30 31  1  0
 31 32  2  0
  6 33  1  0
 33 34  1  0
 33 35  2  0
 35 36  1  0
 35  2  1  0
 31 18  1  0
 30 21  1  0
M  END
>  <cnnaffinity>  (1) 
-4.70036

>  <filename>  (1) 
CN(Cc1cccnc1)CN1C(=O)c2ccccc2C1=O

$$$$
