
     RDKit          3D

 33 35  0  0  0  0  0  0  0  0999 V2000
    4.9306    1.7989   16.9843 H   0  0  0  0  0  0  0  0  0  0  0  0
    5.4045    1.2923   17.8256 C   0  0  0  0  0  0  0  0  0  0  0  0
    6.5660    0.6701   17.5705 N   0  0  0  0  0  0  0  0  0  0  0  0
    7.1717    0.0398   18.5832 C   0  0  0  0  0  0  0  0  0  0  0  0
    8.1203   -0.4339   18.3420 H   0  0  0  0  0  0  0  0  0  0  0  0
    6.6483   -0.0202   19.8890 C   0  0  0  0  0  0  0  0  0  0  0  0
    7.3737   -0.6974   20.9724 C   0  0  0  0  0  0  0  0  0  0  0  0
    8.4745   -1.4230   20.7224 N   0  0  0  0  0  0  0  0  0  0  0  0
    8.8862   -1.7560   21.9728 N   0  0  0  0  0  0  0  0  0  0  0  0
   10.0638   -2.2541   22.5114 C   0  0  0  0  0  0  0  0  0  0  0  0
   10.8244   -2.6295   21.8556 H   0  0  0  0  0  0  0  0  0  0  0  0
    9.9762   -2.1116   23.8564 C   0  0  0  0  0  0  0  0  0  0  0  0
   10.6962   -2.3513   24.6244 H   0  0  0  0  0  0  0  0  0  0  0  0
    8.7148   -1.5324   24.1653 N   0  0  0  0  0  0  0  0  0  0  0  0
    8.1111   -0.8571   25.6015 S   0  0  0  0  0  0  0  0  0  0  0  0
    8.6811   -1.6281   26.6862 O   0  0  0  0  0  0  0  0  0  0  0  0
    6.6886   -0.6458   25.4516 O   0  0  0  0  0  0  0  0  0  0  0  0
    8.8046    0.6656   25.6607 N   0  0  0  0  0  0  0  0  0  0  0  0
   10.2501    0.6710   25.8641 C   0  0  0  0  0  0  0  0  0  0  0  0
   10.5139    0.0315   26.7110 H   0  0  0  0  0  0  0  0  0  0  0  0
   10.5410    1.6965   26.1132 H   0  0  0  0  0  0  0  0  0  0  0  0
   10.8032    0.3479   24.9663 H   0  0  0  0  0  0  0  0  0  0  0  0
    8.3315    1.6103   24.6509 C   0  0  0  0  0  0  0  0  0  0  0  0
    7.2397    1.6739   24.6591 H   0  0  0  0  0  0  0  0  0  0  0  0
    8.6786    1.3562   23.6339 H   0  0  0  0  0  0  0  0  0  0  0  0
    8.7175    2.5981   24.9280 H   0  0  0  0  0  0  0  0  0  0  0  0
    8.0952   -1.2882   22.9471 C   0  0  0  0  0  0  0  0  0  0  0  0
    7.0730   -0.5812   22.3608 C   0  0  0  0  0  0  0  0  0  0  0  0
    6.3105   -0.0217   22.8686 H   0  0  0  0  0  0  0  0  0  0  0  0
    5.4374    0.6428   20.1359 C   0  0  0  0  0  0  0  0  0  0  0  0
    4.9974    0.6405   21.1335 H   0  0  0  0  0  0  0  0  0  0  0  0
    4.8039    1.3073   19.0897 C   0  0  0  0  0  0  0  0  0  0  0  0
    3.8727    1.8432   19.2431 H   0  0  0  0  0  0  0  0  0  0  0  0
  1  2  1  0
  2  3  2  0
  3  4  1  0
  4  5  1  0
  4  6  2  0
  6  7  1  0
  7  8  2  0
  8  9  1  0
  9 10  1  0
 10 11  1  0
 10 12  2  0
 12 13  1  0
 12 14  1  0
 14 15  1  0
 15 16  2  0
 15 17  2  0
 15 18  1  0
 18 19  1  0
 19 20  1  0
 19 21  1  0
 19 22  1  0
 18 23  1  0
 23 24  1  0
 23 25  1  0
 23 26  1  0
 14 27  1  0
 27 28  2  0
 28 29  1  0
  6 30  1  0
 30 31  1  0
 30 32  2  0
 32 33  1  0
 32  2  1  0
 28  7  1  0
 27  9  1  0
M  END
>  <cnnaffinity>  (1) 
-5.06697

>  <filename>  (1) 
CN(C)S(=O)(=O)n1ccn2nc(-c3cccnc3)cc12

$$$$
