
     RDKit          3D

 45 46  0  0  0  0  0  0  0  0999 V2000
    5.0036    1.8594   16.9983 H   0  0  0  0  0  0  0  0  0  0  0  0
    5.4644    1.3106   17.8182 C   0  0  0  0  0  0  0  0  0  0  0  0
    6.6357    0.7110   17.5506 N   0  0  0  0  0  0  0  0  0  0  0  0
    7.2545    0.0657   18.5523 C   0  0  0  0  0  0  0  0  0  0  0  0
    8.2072   -0.3971   18.2934 H   0  0  0  0  0  0  0  0  0  0  0  0
    6.7411   -0.0519   19.8766 C   0  0  0  0  0  0  0  0  0  0  0  0
    7.4225   -0.6907   20.9324 N   0  0  0  0  0  0  0  0  0  0  0  0
    6.7468   -1.5648   21.8867 C   0  0  0  0  0  0  0  0  0  0  0  0
    5.7431   -1.7682   21.5033 H   0  0  0  0  0  0  0  0  0  0  0  0
    7.2740   -2.5314   21.9306 H   0  0  0  0  0  0  0  0  0  0  0  0
    6.5848   -1.0587   23.3344 C   0  0  0  0  0  0  0  0  0  0  0  0
    6.0490   -0.0892   23.3246 H   0  0  0  0  0  0  0  0  0  0  0  0
    5.9154   -1.7836   23.8177 H   0  0  0  0  0  0  0  0  0  0  0  0
    7.7827   -1.0040   24.1740 N   0  0  0  0  0  0  0  0  0  0  0  0
    7.4803   -0.6729   25.5761 C   0  0  0  0  0  0  0  0  0  0  0  0
    7.8249    0.3445   25.8516 H   0  0  0  0  0  0  0  0  0  0  0  0
    6.3924   -0.6702   25.7443 H   0  0  0  0  0  0  0  0  0  0  0  0
    8.0980   -1.6921   26.5309 C   0  0  0  0  0  0  0  0  0  0  0  0
    7.9123   -1.3939   27.5669 H   0  0  0  0  0  0  0  0  0  0  0  0
    9.1827   -1.6746   26.3920 H   0  0  0  0  0  0  0  0  0  0  0  0
    7.5816   -3.1218   26.3566 C   0  0  0  0  0  0  0  0  0  0  0  0
    7.6978   -3.4694   25.3116 H   0  0  0  0  0  0  0  0  0  0  0  0
    6.5006   -3.1329   26.5640 H   0  0  0  0  0  0  0  0  0  0  0  0
    8.2254   -4.0109   27.3254 N   0  0  0  0  0  0  0  0  0  0  0  0
    7.4801   -5.2336   27.5766 C   0  0  0  0  0  0  0  0  0  0  0  0
    7.9589   -5.7832   28.3958 H   0  0  0  0  0  0  0  0  0  0  0  0
    6.4545   -5.0024   27.8879 H   0  0  0  0  0  0  0  0  0  0  0  0
    7.4307   -5.9060   26.6948 H   0  0  0  0  0  0  0  0  0  0  0  0
    9.6092   -4.3275   27.0038 C   0  0  0  0  0  0  0  0  0  0  0  0
    9.7120   -5.0554   26.1746 H   0  0  0  0  0  0  0  0  0  0  0  0
   10.1108   -4.7190   27.8978 H   0  0  0  0  0  0  0  0  0  0  0  0
   10.1314   -3.4265   26.6976 H   0  0  0  0  0  0  0  0  0  0  0  0
    8.9001   -0.2457   23.6050 C   0  0  0  0  0  0  0  0  0  0  0  0
    8.6418    0.8107   23.3984 H   0  0  0  0  0  0  0  0  0  0  0  0
    9.6865   -0.2061   24.3684 H   0  0  0  0  0  0  0  0  0  0  0  0
    9.4890   -0.9176   22.3620 C   0  0  0  0  0  0  0  0  0  0  0  0
    9.4239   -1.9990   22.5151 H   0  0  0  0  0  0  0  0  0  0  0  0
   10.5530   -0.6668   22.2832 H   0  0  0  0  0  0  0  0  0  0  0  0
    8.8670   -0.5675   21.0061 C   0  0  0  0  0  0  0  0  0  0  0  0
    9.3507   -1.1950   20.2364 H   0  0  0  0  0  0  0  0  0  0  0  0
    9.1265    0.4687   20.7451 H   0  0  0  0  0  0  0  0  0  0  0  0
    5.4814    0.5368   20.0999 C   0  0  0  0  0  0  0  0  0  0  0  0
    5.0427    0.4533   21.0908 H   0  0  0  0  0  0  0  0  0  0  0  0
    4.8518    1.2441   19.0723 C   0  0  0  0  0  0  0  0  0  0  0  0
    3.9049    1.7489   19.2376 H   0  0  0  0  0  0  0  0  0  0  0  0
  1  2  1  0
  2  3  2  0
  3  4  1  0
  4  5  1  0
  4  6  2  0
  6  7  1  0
  7  8  1  0
  8  9  1  0
  8 10  1  0
  8 11  1  0
 11 12  1  0
 11 13  1  0
 11 14  1  0
 14 15  1  0
 15 16  1  0
 15 17  1  0
 15 18  1  0
 18 19  1  0
 18 20  1  0
 18 21  1  0
 21 22  1  0
 21 23  1  0
 21 24  1  0
 24 25  1  0
 25 26  1  0
 25 27  1  0
 25 28  1  0
 24 29  1  0
 29 30  1  0
 29 31  1  0
 29 32  1  0
 14 33  1  0
 33 34  1  0
 33 35  1  0
 33 36  1  0
 36 37  1  0
 36 38  1  0
 36 39  1  0
 39 40  1  0
 39 41  1  0
  6 42  1  0
 42 43  1  0
 42 44  2  0
 44 45  1  0
 44  2  1  0
 39  7  1  0
M  END
>  <cnnaffinity>  (1) 
-4.64651

>  <filename>  (1) 
CN(C)CCCN1CCCN(c2cccnc2)CC1

$$$$
