
     RDKit          3D

 33 35  0  0  0  0  0  0  0  0999 V2000
    5.0785    1.8586   17.0254 H   0  0  0  0  0  0  0  0  0  0  0  0
    5.5104    1.2985   17.8517 C   0  0  0  0  0  0  0  0  0  0  0  0
    6.6704    0.6689   17.6016 N   0  0  0  0  0  0  0  0  0  0  0  0
    7.2307   -0.0296   18.5989 C   0  0  0  0  0  0  0  0  0  0  0  0
    8.1839   -0.5121   18.3710 H   0  0  0  0  0  0  0  0  0  0  0  0
    6.6537   -0.1734   19.8860 C   0  0  0  0  0  0  0  0  0  0  0  0
    7.3032   -0.9078   20.9473 N   0  0  0  0  0  0  0  0  0  0  0  0
    6.5958   -1.8798   21.6893 C   0  0  0  0  0  0  0  0  0  0  0  0
    5.4570   -2.2139   21.4404 O   0  0  0  0  0  0  0  0  0  0  0  0
    7.3251   -2.4615   22.7090 N   0  0  0  0  0  0  0  0  0  0  0  0
    8.2862   -2.1931   22.7930 H   0  0  0  0  0  0  0  0  0  0  0  0
    6.8070   -3.3382   23.6828 C   0  0  0  0  0  0  0  0  0  0  0  0
    5.6193   -3.1602   24.3066 C   0  0  0  0  0  0  0  0  0  0  0  0
    4.9869   -2.2958   24.2091 H   0  0  0  0  0  0  0  0  0  0  0  0
    5.2510   -4.3665   25.4893 S   0  0  0  0  0  0  0  0  0  0  0  0
    6.8206   -5.0989   25.2716 C   0  0  0  0  0  0  0  0  0  0  0  0
    7.3907   -6.1112   26.0679 C   0  0  0  0  0  0  0  0  0  0  0  0
    6.8365   -6.5650   26.8834 H   0  0  0  0  0  0  0  0  0  0  0  0
    8.7009   -6.4910   25.8081 C   0  0  0  0  0  0  0  0  0  0  0  0
    9.1906   -7.2459   26.4200 H   0  0  0  0  0  0  0  0  0  0  0  0
    9.4125   -5.9163   24.7405 C   0  0  0  0  0  0  0  0  0  0  0  0
   10.4358   -6.2292   24.5843 H   0  0  0  0  0  0  0  0  0  0  0  0
    8.8475   -4.9374   23.9306 C   0  0  0  0  0  0  0  0  0  0  0  0
    9.3956   -4.5271   23.0813 H   0  0  0  0  0  0  0  0  0  0  0  0
    7.5490   -4.4675   24.2304 C   0  0  0  0  0  0  0  0  0  0  0  0
    8.6669   -0.4979   21.2913 C   0  0  0  0  0  0  0  0  0  0  0  0
    9.4079   -1.2587   21.0039 H   0  0  0  0  0  0  0  0  0  0  0  0
    8.7640   -0.2928   22.3662 H   0  0  0  0  0  0  0  0  0  0  0  0
    8.9034    0.4361   20.7736 H   0  0  0  0  0  0  0  0  0  0  0  0
    5.4464    0.4988   20.1220 C   0  0  0  0  0  0  0  0  0  0  0  0
    4.9908    0.4232   21.1051 H   0  0  0  0  0  0  0  0  0  0  0  0
    4.8707    1.2529   19.0945 C   0  0  0  0  0  0  0  0  0  0  0  0
    3.9467    1.8002   19.2498 H   0  0  0  0  0  0  0  0  0  0  0  0
  1  2  1  0
  2  3  2  0
  3  4  1  0
  4  5  1  0
  4  6  2  0
  6  7  1  0
  7  8  1  0
  8  9  2  0
  8 10  1  0
 10 11  1  0
 10 12  1  0
 12 13  2  0
 13 14  1  0
 13 15  1  0
 15 16  1  0
 16 17  2  0
 17 18  1  0
 17 19  1  0
 19 20  1  0
 19 21  2  0
 21 22  1  0
 21 23  1  0
 23 24  1  0
 23 25  2  0
  7 26  1  0
 26 27  1  0
 26 28  1  0
 26 29  1  0
  6 30  1  0
 30 31  1  0
 30 32  2  0
 32 33  1  0
 32  2  1  0
 25 12  1  0
 25 16  1  0
M  END
>  <cnnaffinity>  (1) 
-5.19075

>  <filename>  (1) 
CN(C(=O)Nc1csc2ccccc12)c1cccnc1

$$$$
