
     RDKit          3D

 31 31  0  0  0  0  0  0  0  0999 V2000
    4.9635    1.8115   16.9519 H   0  0  0  0  0  0  0  0  0  0  0  0
    5.4404    1.3130   17.7927 C   0  0  0  0  0  0  0  0  0  0  0  0
    6.6107    0.7060   17.5309 N   0  0  0  0  0  0  0  0  0  0  0  0
    7.2195    0.0798   18.5454 C   0  0  0  0  0  0  0  0  0  0  0  0
    8.1654   -0.4071   18.3272 H   0  0  0  0  0  0  0  0  0  0  0  0
    6.6995    0.0124   19.8559 C   0  0  0  0  0  0  0  0  0  0  0  0
    7.3906   -0.6714   20.9045 N   0  0  0  0  0  0  0  0  0  0  0  0
    8.2564   -0.2763   21.2475 H   0  0  0  0  0  0  0  0  0  0  0  0
    6.8021   -1.6209   21.7005 C   0  0  0  0  0  0  0  0  0  0  0  0
    5.7644   -2.1872   21.4226 O   0  0  0  0  0  0  0  0  0  0  0  0
    7.6542   -2.0833   22.9423 C   0  0  0  0  0  0  0  0  0  0  0  0
    8.5717   -1.1207   23.2814 F   0  0  0  0  0  0  0  0  0  0  0  0
    6.8265   -2.2136   24.0184 F   0  0  0  0  0  0  0  0  0  0  0  0
    8.3801   -3.4007   22.6952 C   0  0  0  0  0  0  0  0  0  0  0  0
    7.6536   -4.1586   22.4164 H   0  0  0  0  0  0  0  0  0  0  0  0
    9.0931   -3.2779   21.8824 H   0  0  0  0  0  0  0  0  0  0  0  0
    9.1608   -3.7864   23.9424 C   0  0  0  0  0  0  0  0  0  0  0  0
   10.2439   -3.2685   24.1529 O   0  0  0  0  0  0  0  0  0  0  0  0
    8.5963   -4.7102   24.7847 N   0  0  0  0  0  0  0  0  0  0  0  0
    7.3184   -5.3616   24.4984 C   0  0  0  0  0  0  0  0  0  0  0  0
    7.3684   -5.9518   23.5701 H   0  0  0  0  0  0  0  0  0  0  0  0
    7.0564   -6.0470   25.3086 H   0  0  0  0  0  0  0  0  0  0  0  0
    6.5148   -4.6203   24.4081 H   0  0  0  0  0  0  0  0  0  0  0  0
    9.3869   -5.0799   25.9665 C   0  0  0  0  0  0  0  0  0  0  0  0
   10.3597   -5.4903   25.6637 H   0  0  0  0  0  0  0  0  0  0  0  0
    9.5741   -4.1938   26.5873 H   0  0  0  0  0  0  0  0  0  0  0  0
    8.8548   -5.8266   26.5638 H   0  0  0  0  0  0  0  0  0  0  0  0
    5.4730    0.6348   20.1120 C   0  0  0  0  0  0  0  0  0  0  0  0
    5.0501    0.5993   21.1174 H   0  0  0  0  0  0  0  0  0  0  0  0
    4.8381    1.3047   19.0571 C   0  0  0  0  0  0  0  0  0  0  0  0
    3.8947    1.8202   19.2023 H   0  0  0  0  0  0  0  0  0  0  0  0
  1  2  1  0
  2  3  2  0
  3  4  1  0
  4  5  1  0
  4  6  2  0
  6  7  1  0
  7  8  1  0
  7  9  1  0
  9 10  2  0
  9 11  1  0
 11 12  1  0
 11 13  1  0
 11 14  1  0
 14 15  1  0
 14 16  1  0
 14 17  1  0
 17 18  2  0
 17 19  1  0
 19 20  1  0
 20 21  1  0
 20 22  1  0
 20 23  1  0
 19 24  1  0
 24 25  1  0
 24 26  1  0
 24 27  1  0
  6 28  1  0
 28 29  1  0
 28 30  2  0
 30 31  1  0
 30  2  1  0
M  END
>  <cnnaffinity>  (1) 
-4.56226

>  <filename>  (1) 
CN(C)C(=O)CC(F)(F)C(=O)Nc1cccnc1

$$$$
