
     RDKit          3D

 30 31  0  0  0  0  0  0  0  0999 V2000
    5.7142   -3.1169   25.5612 H   0  0  0  0  0  0  0  0  0  0  0  0
    5.6360   -2.0843   25.2363 C   0  0  0  0  0  0  0  0  0  0  0  0
    6.5561   -1.6711   24.3468 N   0  0  0  0  0  0  0  0  0  0  0  0
    6.4865   -0.3880   23.9760 C   0  0  0  0  0  0  0  0  0  0  0  0
    7.7793    0.2310   22.6679 S   0  0  0  0  0  0  0  0  0  0  0  0
    7.6416    1.6566   22.4755 O   0  0  0  0  0  0  0  0  0  0  0  0
    9.0538   -0.3607   23.0475 O   0  0  0  0  0  0  0  0  0  0  0  0
    7.3427   -0.5387   21.2172 N   0  0  0  0  0  0  0  0  0  0  0  0
    6.6697    0.0971   20.1156 C   0  0  0  0  0  0  0  0  0  0  0  0
    7.1432   -0.0093   18.7777 C   0  0  0  0  0  0  0  0  0  0  0  0
    8.0496   -0.5768   18.5667 H   0  0  0  0  0  0  0  0  0  0  0  0
    6.5593    0.5583   17.7143 N   0  0  0  0  0  0  0  0  0  0  0  0
    5.4284    1.2511   17.9239 C   0  0  0  0  0  0  0  0  0  0  0  0
    4.9647    1.6940   17.0425 H   0  0  0  0  0  0  0  0  0  0  0  0
    4.8414    1.3816   19.1870 C   0  0  0  0  0  0  0  0  0  0  0  0
    3.9078    1.9315   19.2822 H   0  0  0  0  0  0  0  0  0  0  0  0
    5.4712    0.8067   20.3038 C   0  0  0  0  0  0  0  0  0  0  0  0
    5.0587    0.8992   21.3088 H   0  0  0  0  0  0  0  0  0  0  0  0
    7.8910   -1.8861   21.0465 C   0  0  0  0  0  0  0  0  0  0  0  0
    7.2094   -2.4405   20.3986 H   0  0  0  0  0  0  0  0  0  0  0  0
    8.9029   -1.8882   20.6188 H   0  0  0  0  0  0  0  0  0  0  0  0
    7.9368   -2.4001   22.0084 H   0  0  0  0  0  0  0  0  0  0  0  0
    5.6111    0.4946   24.4166 N   0  0  0  0  0  0  0  0  0  0  0  0
    4.6743    0.0737   25.2965 C   0  0  0  0  0  0  0  0  0  0  0  0
    3.5986    1.0625   25.8020 C   0  0  0  0  0  0  0  0  0  0  0  0
    3.6486    1.1936   27.1446 F   0  0  0  0  0  0  0  0  0  0  0  0
    2.3637    0.5894   25.5225 F   0  0  0  0  0  0  0  0  0  0  0  0
    3.6829    2.2842   25.2777 F   0  0  0  0  0  0  0  0  0  0  0  0
    4.6490   -1.2467   25.7340 C   0  0  0  0  0  0  0  0  0  0  0  0
    3.9003   -1.6008   26.4269 H   0  0  0  0  0  0  0  0  0  0  0  0
  1  2  1  0
  2  3  2  0
  3  4  1  0
  4  5  1  0
  5  6  2  0
  5  7  2  0
  5  8  1  0
  8  9  1  0
  9 10  2  0
 10 11  1  0
 10 12  1  0
 12 13  2  0
 13 14  1  0
 13 15  1  0
 15 16  1  0
 15 17  2  0
 17 18  1  0
  8 19  1  0
 19 20  1  0
 19 21  1  0
 19 22  1  0
  4 23  2  0
 23 24  1  0
 24 25  1  0
 25 26  1  0
 25 27  1  0
 25 28  1  0
 24 29  2  0
 29 30  1  0
 29  2  1  0
 17  9  1  0
M  END
>  <cnnaffinity>  (1) 
-4.9612

>  <filename>  (1) 
CN(c1cccnc1)S(=O)(=O)c1nccc(C(F)(F)F)n1

$$$$
