
     RDKit          3D

 30 31  0  0  0  0  0  0  0  0999 V2000
    4.9671    1.7634   17.0277 H   0  0  0  0  0  0  0  0  0  0  0  0
    5.4280    1.2649   17.8732 C   0  0  0  0  0  0  0  0  0  0  0  0
    6.5940    0.6462   17.6306 N   0  0  0  0  0  0  0  0  0  0  0  0
    7.2014    0.0272   18.6531 C   0  0  0  0  0  0  0  0  0  0  0  0
    8.1442   -0.4621   18.4238 H   0  0  0  0  0  0  0  0  0  0  0  0
    6.6680    0.0084   19.9631 C   0  0  0  0  0  0  0  0  0  0  0  0
    7.3352   -0.7277   20.9442 O   0  0  0  0  0  0  0  0  0  0  0  0
    7.3590   -0.3371   22.2621 C   0  0  0  0  0  0  0  0  0  0  0  0
    6.9985    0.7497   22.6576 O   0  0  0  0  0  0  0  0  0  0  0  0
    7.8473   -1.3304   23.0797 N   0  0  0  0  0  0  0  0  0  0  0  0
    8.2991   -2.6357   22.5813 C   0  0  0  0  0  0  0  0  0  0  0  0
    7.4975   -3.1766   22.0698 H   0  0  0  0  0  0  0  0  0  0  0  0
    8.6171   -3.2378   23.4398 H   0  0  0  0  0  0  0  0  0  0  0  0
    9.1509   -2.5435   21.9003 H   0  0  0  0  0  0  0  0  0  0  0  0
    7.8885   -1.0720   24.5370 C   0  0  2  0  0  0  0  0  0  0  0  0
    8.3051   -1.9798   24.9980 H   0  0  0  0  0  0  0  0  0  0  0  0
    6.5096   -0.7873   25.2125 C   0  0  0  0  0  0  0  0  0  0  0  0
    5.7862   -0.4247   24.4702 H   0  0  0  0  0  0  0  0  0  0  0  0
    6.0867   -1.6592   25.7200 H   0  0  0  0  0  0  0  0  0  0  0  0
    6.7559    0.1866   26.2115 O   0  0  0  0  0  0  0  0  0  0  0  0
    7.7817    1.0461   25.7421 C   0  0  0  0  0  0  0  0  0  0  0  0
    8.2189    1.5271   26.6231 H   0  0  0  0  0  0  0  0  0  0  0  0
    7.3758    1.8235   25.0794 H   0  0  0  0  0  0  0  0  0  0  0  0
    8.7564    0.1452   24.9660 C   0  0  0  0  0  0  0  0  0  0  0  0
    9.5701   -0.1886   25.6198 H   0  0  0  0  0  0  0  0  0  0  0  0
    9.2000    0.6627   24.1121 H   0  0  0  0  0  0  0  0  0  0  0  0
    5.4554    0.6502   20.2065 C   0  0  0  0  0  0  0  0  0  0  0  0
    5.0460    0.6500   21.2137 H   0  0  0  0  0  0  0  0  0  0  0  0
    4.8237    1.2876   19.1341 C   0  0  0  0  0  0  0  0  0  0  0  0
    3.8885    1.8164   19.2680 H   0  0  0  0  0  0  0  0  0  0  0  0
  1  2  1  0
  2  3  2  0
  3  4  1  0
  4  5  1  0
  4  6  2  0
  6  7  1  0
  7  8  1  0
  8  9  2  0
  8 10  1  0
 10 11  1  0
 11 12  1  0
 11 13  1  0
 11 14  1  0
 10 15  1  0
 15 16  1  1
 15 17  1  0
 17 18  1  0
 17 19  1  0
 17 20  1  0
 20 21  1  0
 21 22  1  0
 21 23  1  0
 21 24  1  0
 24 25  1  0
 24 26  1  0
  6 27  1  0
 27 28  1  0
 27 29  2  0
 29 30  1  0
 29  2  1  0
 24 15  1  0
M  END
>  <cnnaffinity>  (1) 
-4.21282

>  <filename>  (1) 
CN(C(=O)Oc1cccnc1)[C@H]1CCOC1

$$$$
