
     RDKit          3D

 43 45  0  0  0  0  0  0  0  0999 V2000
    8.1768   -2.7388   23.5957 C   0  0  0  0  0  0  0  0  0  0  0  0
    7.7281   -1.4380   23.0920 N   0  0  0  0  0  0  0  0  0  0  0  0
    6.9787   -1.4656   21.9220 C   0  0  0  0  0  0  0  0  0  0  0  0
    5.8042   -2.5703   21.5337 S   0  0  0  0  0  0  0  0  0  0  0  0
    7.4029   -0.5105   21.0537 N   0  0  0  0  0  0  0  0  0  0  0  0
    6.6850    0.0502   19.9630 C   0  0  0  0  0  0  0  0  0  0  0  0
    5.4275    0.6347   20.1522 C   0  0  0  0  0  0  0  0  0  0  0  0
    4.8134    1.2640   19.0612 C   0  0  0  0  0  0  0  0  0  0  0  0
    5.4592    1.2553   17.8199 C   0  0  0  0  0  0  0  0  0  0  0  0
    6.6447    0.6572   17.6148 N   0  0  0  0  0  0  0  0  0  0  0  0
    7.2377    0.0749   18.6649 C   0  0  0  0  0  0  0  0  0  0  0  0
    8.1932   -0.4205   18.4888 H   0  0  0  0  0  0  0  0  0  0  0  0
    5.0131    1.7456   16.9566 H   0  0  0  0  0  0  0  0  0  0  0  0
    3.8585    1.7662   19.1677 H   0  0  0  0  0  0  0  0  0  0  0  0
    4.9568    0.5976   21.1372 H   0  0  0  0  0  0  0  0  0  0  0  0
    8.2569   -0.0869   21.3675 H   0  0  0  0  0  0  0  0  0  0  0  0
    7.6228   -0.2882   24.0265 C   0  0  0  0  0  0  0  0  0  0  0  0
    8.2715    0.9976   23.5015 C   0  0  0  0  0  0  0  0  0  0  0  0
    8.3079    2.0515   24.6065 C   0  0  0  0  0  0  0  0  0  0  0  0
    6.9522    2.3214   25.0808 N   0  0  0  0  0  0  0  0  0  0  0  0
    6.5467    3.6025   25.4105 C   0  0  0  0  0  0  0  0  0  0  0  0
    7.4771    4.6684   25.7058 C   0  0  0  0  0  0  0  0  0  0  0  0
    7.0852    5.9286   25.9332 N   0  0  0  0  0  0  0  0  0  0  0  0
    5.7539    6.1478   25.8662 C   0  0  0  0  0  0  0  0  0  0  0  0
    4.8413    5.1133   25.6228 C   0  0  0  0  0  0  0  0  0  0  0  0
    5.2183    3.8346   25.4277 N   0  0  0  0  0  0  0  0  0  0  0  0
    3.7730    5.3238   25.5939 H   0  0  0  0  0  0  0  0  0  0  0  0
    5.4252    7.1702   26.0182 H   0  0  0  0  0  0  0  0  0  0  0  0
    8.5397    4.4562   25.7759 H   0  0  0  0  0  0  0  0  0  0  0  0
    6.2130    1.1441   25.5517 C   0  0  0  0  0  0  0  0  0  0  0  0
    6.1903    0.0538   24.4759 C   0  0  0  0  0  0  0  0  0  0  0  0
    5.6916   -0.8439   24.8580 H   0  0  0  0  0  0  0  0  0  0  0  0
    5.6132    0.4154   23.6150 H   0  0  0  0  0  0  0  0  0  0  0  0
    5.1998    1.4457   25.8196 H   0  0  0  0  0  0  0  0  0  0  0  0
    6.6813    0.7394   26.4695 H   0  0  0  0  0  0  0  0  0  0  0  0
    8.7546    2.9673   24.2114 H   0  0  0  0  0  0  0  0  0  0  0  0
    8.9633    1.7068   25.4259 H   0  0  0  0  0  0  0  0  0  0  0  0
    7.6921    1.4085   22.6640 H   0  0  0  0  0  0  0  0  0  0  0  0
    9.2881    0.7850   23.1546 H   0  0  0  0  0  0  0  0  0  0  0  0
    8.1915   -0.5912   24.9186 H   0  0  0  0  0  0  0  0  0  0  0  0
    8.8636   -3.2023   22.8729 H   0  0  0  0  0  0  0  0  0  0  0  0
    8.7267   -2.6122   24.5326 H   0  0  0  0  0  0  0  0  0  0  0  0
    7.3489   -3.4386   23.7685 H   0  0  0  0  0  0  0  0  0  0  0  0
  1  2  1  0
  2  3  1  0
  3  4  2  0
  3  5  1  0
  5  6  1  0
  6  7  2  0
  7  8  1  0
  8  9  2  0
  9 10  1  0
 10 11  2  0
 11 12  1  0
  9 13  1  0
  8 14  1  0
  7 15  1  0
  5 16  1  0
  2 17  1  0
 17 18  1  0
 18 19  1  0
 19 20  1  0
 20 21  1  0
 21 22  2  0
 22 23  1  0
 23 24  2  0
 24 25  1  0
 25 26  2  0
 25 27  1  0
 24 28  1  0
 22 29  1  0
 20 30  1  0
 30 31  1  0
 31 32  1  0
 31 33  1  0
 30 34  1  0
 30 35  1  0
 19 36  1  0
 19 37  1  0
 18 38  1  0
 18 39  1  0
 17 40  1  0
  1 41  1  0
  1 42  1  0
  1 43  1  0
 11  6  1  0
 31 17  1  0
 26 21  1  0
M  END
>  <cnnaffinity>  (1) 
-5.42187

>  <filename>  (1) 
CN(C(=S)Nc1cccnc1)C1CCN(c2cnccn2)CC1

$$$$
