
     RDKit          3D

 31 32  0  0  0  0  0  0  0  0999 V2000
    4.9432    1.9116   16.9633 H   0  0  0  0  0  0  0  0  0  0  0  0
    5.4359    1.3688   17.7700 C   0  0  0  0  0  0  0  0  0  0  0  0
    6.5943    0.7619   17.4624 N   0  0  0  0  0  0  0  0  0  0  0  0
    7.2202    0.0856   18.4369 C   0  0  0  0  0  0  0  0  0  0  0  0
    8.1547   -0.4010   18.1656 H   0  0  0  0  0  0  0  0  0  0  0  0
    6.7282   -0.0521   19.7609 C   0  0  0  0  0  0  0  0  0  0  0  0
    7.4588   -0.8249   20.7521 N   0  0  0  0  0  0  0  0  0  0  0  0
    8.7192   -0.2776   21.2832 C   0  0  0  0  0  0  0  0  0  0  0  0
    8.5591    0.3054   22.1988 H   0  0  0  0  0  0  0  0  0  0  0  0
    9.1726    0.3690   20.5276 H   0  0  0  0  0  0  0  0  0  0  0  0
    9.4160   -1.0972   21.4869 H   0  0  0  0  0  0  0  0  0  0  0  0
    6.5811   -1.6802   21.9558 S   0  0  0  0  0  0  0  0  0  0  0  0
    5.3169   -2.1076   21.3898 O   0  0  0  0  0  0  0  0  0  0  0  0
    6.6447   -0.8668   23.1544 O   0  0  0  0  0  0  0  0  0  0  0  0
    7.5552   -3.3055   22.2881 C   0  0  0  0  0  0  0  0  0  0  0  0
    7.4418   -4.1710   21.2871 N   0  0  0  0  0  0  0  0  0  0  0  0
    7.8807   -5.4265   21.4057 C   0  0  0  0  0  0  0  0  0  0  0  0
    7.7145   -6.0788   20.5563 H   0  0  0  0  0  0  0  0  0  0  0  0
    8.5093   -5.8958   22.5504 C   0  0  0  0  0  0  0  0  0  0  0  0
    8.8551   -6.9206   22.5829 H   0  0  0  0  0  0  0  0  0  0  0  0
    8.7088   -4.9992   23.5978 C   0  0  0  0  0  0  0  0  0  0  0  0
    9.2428   -5.3017   24.4994 H   0  0  0  0  0  0  0  0  0  0  0  0
    8.2526   -3.6700   23.4809 C   0  0  0  0  0  0  0  0  0  0  0  0
    8.4448   -2.7349   24.6627 C   0  0  0  0  0  0  0  0  0  0  0  0
    9.2587   -3.2470   25.6041 F   0  0  0  0  0  0  0  0  0  0  0  0
    7.2711   -2.4940   25.2613 F   0  0  0  0  0  0  0  0  0  0  0  0
    8.9896   -1.5612   24.2985 F   0  0  0  0  0  0  0  0  0  0  0  0
    5.5207    0.5962   20.0590 C   0  0  0  0  0  0  0  0  0  0  0  0
    5.1098    0.5328   21.0644 H   0  0  0  0  0  0  0  0  0  0  0  0
    4.8676    1.3154   19.0467 C   0  0  0  0  0  0  0  0  0  0  0  0
    3.9340    1.8312   19.2440 H   0  0  0  0  0  0  0  0  0  0  0  0
  1  2  1  0
  2  3  2  0
  3  4  1  0
  4  5  1  0
  4  6  2  0
  6  7  1  0
  7  8  1  0
  8  9  1  0
  8 10  1  0
  8 11  1  0
  7 12  1  0
 12 13  2  0
 12 14  2  0
 12 15  1  0
 15 16  2  0
 16 17  1  0
 17 18  1  0
 17 19  2  0
 19 20  1  0
 19 21  1  0
 21 22  1  0
 21 23  2  0
 23 24  1  0
 24 25  1  0
 24 26  1  0
 24 27  1  0
  6 28  1  0
 28 29  1  0
 28 30  2  0
 30 31  1  0
 30  2  1  0
 23 15  1  0
M  END
>  <cnnaffinity>  (1) 
-4.92443

>  <filename>  (1) 
CN(c1cccnc1)S(=O)(=O)c1ncccc1C(F)(F)F

$$$$
