
     RDKit          3D

 43 45  0  0  0  0  0  0  0  0999 V2000
    8.1909   -2.5452   22.8687 C   0  0  0  0  0  0  0  0  0  0  0  0
    7.8099   -1.1841   23.2445 N   0  0  0  0  0  0  0  0  0  0  0  0
    7.7171   -0.8399   24.6788 C   0  0  0  0  0  0  0  0  0  0  0  0
    6.2789   -0.7723   25.2044 C   0  0  0  0  0  0  0  0  0  0  0  0
    5.5040   -2.0780   25.1516 C   0  0  0  0  0  0  0  0  0  0  0  0
    5.9762   -3.0736   26.1062 N   0  0  0  0  0  0  0  0  0  0  0  0
    5.9206   -2.9155   27.4874 C   0  0  0  0  0  0  0  0  0  0  0  0
    5.6972   -1.8615   28.0424 O   0  0  0  0  0  0  0  0  0  0  0  0
    6.1650   -4.2683   28.0838 C   0  0  0  0  0  0  0  0  0  0  0  0
    6.2787   -4.6981   29.4102 C   0  0  0  0  0  0  0  0  0  0  0  0
    6.5865   -6.0436   29.6400 C   0  0  0  0  0  0  0  0  0  0  0  0
    6.7223   -6.9479   28.5692 C   0  0  0  0  0  0  0  0  0  0  0  0
    6.5645   -6.5173   27.2499 C   0  0  0  0  0  0  0  0  0  0  0  0
    6.3280   -5.1617   27.0297 C   0  0  0  0  0  0  0  0  0  0  0  0
    6.2416   -4.3899   25.7632 C   0  0  0  0  0  0  0  0  0  0  0  0
    6.3699   -4.7837   24.6250 O   0  0  0  0  0  0  0  0  0  0  0  0
    6.6076   -7.2101   26.4163 H   0  0  0  0  0  0  0  0  0  0  0  0
    6.9667   -7.9891   28.7740 H   0  0  0  0  0  0  0  0  0  0  0  0
    6.7193   -6.4194   30.6487 H   0  0  0  0  0  0  0  0  0  0  0  0
    6.1503   -4.0180   30.2482 H   0  0  0  0  0  0  0  0  0  0  0  0
    5.5731   -2.5152   24.1515 H   0  0  0  0  0  0  0  0  0  0  0  0
    4.4420   -1.8679   25.3261 H   0  0  0  0  0  0  0  0  0  0  0  0
    5.7423   -0.0450   24.5894 H   0  0  0  0  0  0  0  0  0  0  0  0
    6.2803   -0.3893   26.2281 H   0  0  0  0  0  0  0  0  0  0  0  0
    8.1849    0.1383   24.8361 H   0  0  0  0  0  0  0  0  0  0  0  0
    8.3192   -1.5527   25.2588 H   0  0  0  0  0  0  0  0  0  0  0  0
    7.2335   -0.2860   22.3542 C   0  0  0  0  0  0  0  0  0  0  0  0
    6.7192    0.7639   22.7193 O   0  0  0  0  0  0  0  0  0  0  0  0
    7.3086   -0.6512   21.0225 N   0  0  0  0  0  0  0  0  0  0  0  0
    6.6780    0.0021   19.9334 C   0  0  0  0  0  0  0  0  0  0  0  0
    5.4851    0.7186   20.1211 C   0  0  0  0  0  0  0  0  0  0  0  0
    4.8891    1.3286   19.0146 C   0  0  0  0  0  0  0  0  0  0  0  0
    5.5062    1.2268   17.7652 C   0  0  0  0  0  0  0  0  0  0  0  0
    6.6452    0.5431   17.5675 N   0  0  0  0  0  0  0  0  0  0  0  0
    7.2096   -0.0551   18.6242 C   0  0  0  0  0  0  0  0  0  0  0  0
    8.1329   -0.6012   18.4232 H   0  0  0  0  0  0  0  0  0  0  0  0
    5.0682    1.7012   16.8898 H   0  0  0  0  0  0  0  0  0  0  0  0
    3.9659    1.8901   19.1170 H   0  0  0  0  0  0  0  0  0  0  0  0
    5.0708    0.7886   21.1225 H   0  0  0  0  0  0  0  0  0  0  0  0
    7.8484   -1.4777   20.8423 H   0  0  0  0  0  0  0  0  0  0  0  0
    9.0822   -2.5620   22.2246 H   0  0  0  0  0  0  0  0  0  0  0  0
    7.3741   -3.0676   22.3498 H   0  0  0  0  0  0  0  0  0  0  0  0
    8.4373   -3.1243   23.7636 H   0  0  0  0  0  0  0  0  0  0  0  0
  1  2  1  0
  2  3  1  0
  3  4  1  0
  4  5  1  0
  5  6  1  0
  6  7  1  0
  7  8  2  0
  7  9  1  0
  9 10  2  0
 10 11  1  0
 11 12  2  0
 12 13  1  0
 13 14  2  0
 14 15  1  0
 15 16  2  0
 13 17  1  0
 12 18  1  0
 11 19  1  0
 10 20  1  0
  5 21  1  0
  5 22  1  0
  4 23  1  0
  4 24  1  0
  3 25  1  0
  3 26  1  0
  2 27  1  0
 27 28  2  0
 27 29  1  0
 29 30  1  0
 30 31  2  0
 31 32  1  0
 32 33  2  0
 33 34  1  0
 34 35  2  0
 35 36  1  0
 33 37  1  0
 32 38  1  0
 31 39  1  0
 29 40  1  0
  1 41  1  0
  1 42  1  0
  1 43  1  0
 15  6  1  0
 35 30  1  0
 14  9  1  0
M  END
>  <cnnaffinity>  (1) 
-4.91984

>  <filename>  (1) 
CN(CCCN1C(=O)c2ccccc2C1=O)C(=O)Nc1cccnc1

$$$$
