
     RDKit          3D

 37 38  0  0  0  0  0  0  0  0999 V2000
    4.9586    1.7968   16.9951 H   0  0  0  0  0  0  0  0  0  0  0  0
    5.4154    1.2843   17.8375 C   0  0  0  0  0  0  0  0  0  0  0  0
    6.5733    0.6559   17.5852 N   0  0  0  0  0  0  0  0  0  0  0  0
    7.1695    0.0265   18.6019 C   0  0  0  0  0  0  0  0  0  0  0  0
    8.1136   -0.4550   18.3611 H   0  0  0  0  0  0  0  0  0  0  0  0
    6.6507   -0.0046   19.9101 C   0  0  0  0  0  0  0  0  0  0  0  0
    7.3983   -0.6932   20.9819 C   0  0  0  0  0  0  0  0  0  0  0  0
    8.1124   -1.7629   20.6073 N   0  0  0  0  0  0  0  0  0  0  0  0
    8.7630   -2.4487   21.5502 C   0  0  0  0  0  0  0  0  0  0  0  0
    9.2717   -3.3394   21.1854 H   0  0  0  0  0  0  0  0  0  0  0  0
    8.8083   -2.0917   22.9100 C   0  0  0  0  0  0  0  0  0  0  0  0
    9.5617   -2.9306   23.9234 C   0  0  0  0  0  0  0  0  0  0  0  0
    9.7813   -2.3134   24.8069 H   0  0  0  0  0  0  0  0  0  0  0  0
   10.5379   -3.2307   23.5172 H   0  0  0  0  0  0  0  0  0  0  0  0
    8.7826   -4.1834   24.3592 C   0  0  0  0  0  0  0  0  0  0  0  0
    8.5382   -4.7893   23.4730 H   0  0  0  0  0  0  0  0  0  0  0  0
    9.4136   -4.8156   24.9989 H   0  0  0  0  0  0  0  0  0  0  0  0
    7.4796   -3.8665   25.1191 C   0  0  0  0  0  0  0  0  0  0  0  0
    7.6929   -3.2424   26.0051 H   0  0  0  0  0  0  0  0  0  0  0  0
    6.7971   -3.2900   24.4739 H   0  0  0  0  0  0  0  0  0  0  0  0
    6.7491   -5.0398   25.5748 N   0  0  0  0  0  0  0  0  0  0  0  0
    7.4437   -5.8232   26.5880 C   0  0  0  0  0  0  0  0  0  0  0  0
    6.7342   -6.5118   27.0644 H   0  0  0  0  0  0  0  0  0  0  0  0
    7.8371   -5.1531   27.3666 H   0  0  0  0  0  0  0  0  0  0  0  0
    8.2910   -6.4279   26.2035 H   0  0  0  0  0  0  0  0  0  0  0  0
    6.2348   -5.8391   24.4761 C   0  0  0  0  0  0  0  0  0  0  0  0
    7.0329   -6.3255   23.8792 H   0  0  0  0  0  0  0  0  0  0  0  0
    5.5771   -6.6156   24.8821 H   0  0  0  0  0  0  0  0  0  0  0  0
    5.6427   -5.2077   23.7955 H   0  0  0  0  0  0  0  0  0  0  0  0
    8.0755   -0.9527   23.2821 C   0  0  0  0  0  0  0  0  0  0  0  0
    8.0491   -0.6386   24.3295 H   0  0  0  0  0  0  0  0  0  0  0  0
    7.3676   -0.2455   22.3107 C   0  0  0  0  0  0  0  0  0  0  0  0
    6.8045    0.6547   22.5377 H   0  0  0  0  0  0  0  0  0  0  0  0
    5.4310    0.6454   20.1534 C   0  0  0  0  0  0  0  0  0  0  0  0
    4.9784    0.6447   21.1473 H   0  0  0  0  0  0  0  0  0  0  0  0
    4.8047    1.2999   19.0956 C   0  0  0  0  0  0  0  0  0  0  0  0
    3.8755    1.8383   19.2410 H   0  0  0  0  0  0  0  0  0  0  0  0
  1  2  1  0
  2  3  2  0
  3  4  1  0
  4  5  1  0
  4  6  2  0
  6  7  1  0
  7  8  2  0
  8  9  1  0
  9 10  1  0
  9 11  2  0
 11 12  1  0
 12 13  1  0
 12 14  1  0
 12 15  1  0
 15 16  1  0
 15 17  1  0
 15 18  1  0
 18 19  1  0
 18 20  1  0
 18 21  1  0
 21 22  1  0
 22 23  1  0
 22 24  1  0
 22 25  1  0
 21 26  1  0
 26 27  1  0
 26 28  1  0
 26 29  1  0
 11 30  1  0
 30 31  1  0
 30 32  2  0
 32 33  1  0
  6 34  1  0
 34 35  1  0
 34 36  2  0
 36 37  1  0
 36  2  1  0
 32  7  1  0
M  END
>  <cnnaffinity>  (1) 
-4.94107

>  <filename>  (1) 
CN(C)CCCc1ccc(-c2cccnc2)nc1

$$$$
