
     RDKit          3D

 32 34  0  0  0  0  0  0  0  0999 V2000
    9.2326   -1.4986   20.1308 H   0  0  0  0  0  0  0  0  0  0  0  0
    8.5744   -1.3742   20.9788 C   0  0  0  0  0  0  0  0  0  0  0  0
    8.8265   -1.8815   22.2384 N   0  0  0  0  0  0  0  0  0  0  0  0
    7.7933   -1.4933   22.9321 C   0  0  0  0  0  0  0  0  0  0  0  0
    7.5808   -1.7636   24.2556 N   0  0  0  0  0  0  0  0  0  0  0  0
    6.4330   -1.3006   24.9712 C   0  0  0  0  0  0  0  0  0  0  0  0
    6.0825    0.0574   24.9457 C   0  0  0  0  0  0  0  0  0  0  0  0
    6.6863    0.7454   24.3646 H   0  0  0  0  0  0  0  0  0  0  0  0
    4.9654    0.5078   25.6572 C   0  0  0  0  0  0  0  0  0  0  0  0
    4.6917    1.5586   25.6085 H   0  0  0  0  0  0  0  0  0  0  0  0
    4.1921   -0.3841   26.4083 C   0  0  0  0  0  0  0  0  0  0  0  0
    3.3187   -0.0263   26.9520 H   0  0  0  0  0  0  0  0  0  0  0  0
    4.5542   -1.7338   26.4585 C   0  0  0  0  0  0  0  0  0  0  0  0
    3.9636   -2.4293   27.0516 H   0  0  0  0  0  0  0  0  0  0  0  0
    5.6761   -2.1888   25.7548 C   0  0  0  0  0  0  0  0  0  0  0  0
    5.9614   -3.2356   25.8014 H   0  0  0  0  0  0  0  0  0  0  0  0
    8.5116   -2.6948   24.8944 C   0  0  0  0  0  0  0  0  0  0  0  0
    8.4451   -2.6001   25.9792 H   0  0  0  0  0  0  0  0  0  0  0  0
    9.5473   -2.4886   24.6073 H   0  0  0  0  0  0  0  0  0  0  0  0
    8.3055   -3.7437   24.6394 H   0  0  0  0  0  0  0  0  0  0  0  0
    6.8823   -0.7795   22.2326 O   0  0  0  0  0  0  0  0  0  0  0  0
    7.3962   -0.7071   20.9566 C   0  0  0  0  0  0  0  0  0  0  0  0
    6.6524    0.0063   19.9229 C   0  0  0  0  0  0  0  0  0  0  0  0
    7.1614    0.0648   18.6098 C   0  0  0  0  0  0  0  0  0  0  0  0
    8.1050   -0.4164   18.3687 H   0  0  0  0  0  0  0  0  0  0  0  0
    6.5636    0.6761   17.5838 N   0  0  0  0  0  0  0  0  0  0  0  0
    5.4000    1.2922   17.8425 C   0  0  0  0  0  0  0  0  0  0  0  0
    4.9199    1.7795   16.9965 H   0  0  0  0  0  0  0  0  0  0  0  0
    4.8007    1.3122   19.1087 C   0  0  0  0  0  0  0  0  0  0  0  0
    3.8686    1.8467   19.2558 H   0  0  0  0  0  0  0  0  0  0  0  0
    5.4273    0.6566   20.1704 C   0  0  0  0  0  0  0  0  0  0  0  0
    4.9960    0.6390   21.1742 H   0  0  0  0  0  0  0  0  0  0  0  0
  1  2  1  0
  2  3  1  0
  3  4  2  0
  4  5  1  0
  5  6  1  0
  6  7  2  0
  7  8  1  0
  7  9  1  0
  9 10  1  0
  9 11  2  0
 11 12  1  0
 11 13  1  0
 13 14  1  0
 13 15  2  0
 15 16  1  0
  5 17  1  0
 17 18  1  0
 17 19  1  0
 17 20  1  0
  4 21  1  0
 21 22  1  0
 22 23  1  0
 23 24  2  0
 24 25  1  0
 24 26  1  0
 26 27  2  0
 27 28  1  0
 27 29  1  0
 29 30  1  0
 29 31  2  0
 31 32  1  0
 22  2  2  0
 31 23  1  0
 15  6  1  0
M  END
>  <cnnaffinity>  (1) 
-4.59409

>  <filename>  (1) 
CN(c1ccccc1)c1ncc(-c2cccnc2)o1

$$$$
