
     RDKit          3D

 39 41  0  0  0  0  0  0  0  0999 V2000
    4.9985    1.7661   16.8655 H   0  0  0  0  0  0  0  0  0  0  0  0
    5.4543    1.2857   17.7295 C   0  0  0  0  0  0  0  0  0  0  0  0
    6.6134    0.6505   17.5086 N   0  0  0  0  0  0  0  0  0  0  0  0
    7.2130    0.0838   18.5543 C   0  0  0  0  0  0  0  0  0  0  0  0
    8.1460   -0.4261   18.3232 H   0  0  0  0  0  0  0  0  0  0  0  0
    6.7169    0.1152   19.8694 C   0  0  0  0  0  0  0  0  0  0  0  0
    7.4970   -0.4711   20.9523 C   0  0  0  0  0  0  0  0  0  0  0  0
    7.0990   -0.5173   22.1841 N   0  0  0  0  0  0  0  0  0  0  0  0
    8.0358   -1.2336   22.8804 N   0  0  0  0  0  0  0  0  0  0  0  0
    7.7905   -1.4232   24.2308 N   0  0  0  0  0  0  0  0  0  0  0  0
    8.5702   -0.5255   25.1252 C   0  0  0  0  0  0  0  0  0  0  0  0
    9.4917   -0.1958   24.6165 H   0  0  0  0  0  0  0  0  0  0  0  0
    7.9737    0.3674   25.3576 H   0  0  0  0  0  0  0  0  0  0  0  0
    8.8747   -1.3947   26.3519 C   0  0  0  0  0  0  0  0  0  0  0  0
    9.7689   -1.0886   26.9069 H   0  0  0  0  0  0  0  0  0  0  0  0
    8.0364   -1.3620   27.0550 H   0  0  0  0  0  0  0  0  0  0  0  0
    8.9846   -2.8084   25.7716 C   0  0  1  0  0  0  0  0  0  0  0  0
    9.9290   -2.8972   25.2091 H   0  0  0  0  0  0  0  0  0  0  0  0
    8.9759   -3.8370   26.8037 N   0  0  0  0  0  0  0  0  0  0  0  0
    9.6184   -5.0752   26.3917 C   0  0  0  0  0  0  0  0  0  0  0  0
   10.5881   -4.8556   25.9294 H   0  0  0  0  0  0  0  0  0  0  0  0
    9.8148   -5.6935   27.2713 H   0  0  0  0  0  0  0  0  0  0  0  0
    9.0348   -5.6801   25.6701 H   0  0  0  0  0  0  0  0  0  0  0  0
    7.6771   -4.0659   27.4254 C   0  0  0  0  0  0  0  0  0  0  0  0
    7.1717   -3.1155   27.6371 H   0  0  0  0  0  0  0  0  0  0  0  0
    6.9872   -4.6504   26.7911 H   0  0  0  0  0  0  0  0  0  0  0  0
    7.8082   -4.6169   28.3633 H   0  0  0  0  0  0  0  0  0  0  0  0
    7.8524   -2.8134   24.7162 C   0  0  0  0  0  0  0  0  0  0  0  0
    6.8855   -3.0815   25.1695 H   0  0  0  0  0  0  0  0  0  0  0  0
    8.0503   -3.5271   23.9103 H   0  0  0  0  0  0  0  0  0  0  0  0
    9.0845   -1.7197   22.0979 C   0  0  0  0  0  0  0  0  0  0  0  0
    9.9766   -2.4751   22.4258 O   0  0  0  0  0  0  0  0  0  0  0  0
    8.8509   -1.0652   20.7653 C   0  0  0  0  0  0  0  0  0  0  0  0
    8.9329   -1.7764   19.9462 H   0  0  0  0  0  0  0  0  0  0  0  0
    9.6140   -0.2951   20.6017 H   0  0  0  0  0  0  0  0  0  0  0  0
    5.4711    0.7388   20.0796 C   0  0  0  0  0  0  0  0  0  0  0  0
    5.0240    0.7553   21.0772 H   0  0  0  0  0  0  0  0  0  0  0  0
    4.8392    1.3328   18.9883 C   0  0  0  0  0  0  0  0  0  0  0  0
    3.8936    1.8537   19.0942 H   0  0  0  0  0  0  0  0  0  0  0  0
  1  2  1  0
  2  3  2  0
  3  4  1  0
  4  5  1  0
  4  6  2  0
  6  7  1  0
  7  8  2  0
  8  9  1  0
  9 10  1  0
 10 11  1  0
 11 12  1  0
 11 13  1  0
 11 14  1  0
 14 15  1  0
 14 16  1  0
 14 17  1  0
 17 18  1  6
 17 19  1  0
 19 20  1  0
 20 21  1  0
 20 22  1  0
 20 23  1  0
 19 24  1  0
 24 25  1  0
 24 26  1  0
 24 27  1  0
 17 28  1  0
 28 29  1  0
 28 30  1  0
  9 31  1  0
 31 32  2  0
 31 33  1  0
 33 34  1  0
 33 35  1  0
  6 36  1  0
 36 37  1  0
 36 38  2  0
 38 39  1  0
 38  2  1  0
 33  7  1  0
 28 10  1  0
M  END
>  <cnnaffinity>  (1) 
-4.57923

>  <filename>  (1) 
CN(C)[C@@H]1CCN(N2N=C(c3cccnc3)CC2=O)C1

$$$$
