
     RDKit          3D

 32 33  0  0  0  0  0  0  0  0999 V2000
    8.7236   -0.3138   21.2837 C   0  0  0  0  0  0  0  0  0  0  0  0
    7.3515   -0.7087   20.9805 N   0  0  0  0  0  0  0  0  0  0  0  0
    6.6768   -1.7487   21.6485 C   0  0  0  0  0  0  0  0  0  0  0  0
    5.5922   -2.1627   21.2756 O   0  0  0  0  0  0  0  0  0  0  0  0
    7.2936   -2.3018   22.7433 N   0  0  0  0  0  0  0  0  0  0  0  0
    6.6704   -3.4073   23.5122 C   0  0  0  0  0  0  0  0  0  0  0  0
    7.4834   -3.8632   24.7146 C   0  0  0  0  0  0  0  0  0  0  0  0
    8.1347   -5.0366   24.6283 N   0  0  0  0  0  0  0  0  0  0  0  0
    8.9002   -5.4226   25.6588 C   0  0  0  0  0  0  0  0  0  0  0  0
    9.0329   -4.6907   26.8408 C   0  0  0  0  0  0  0  0  0  0  0  0
    8.3370   -3.4873   26.9630 C   0  0  0  0  0  0  0  0  0  0  0  0
    7.5543   -3.0815   25.8860 C   0  0  0  0  0  0  0  0  0  0  0  0
    6.7045   -1.5705   26.0165 Cl  0  0  0  0  0  0  0  0  0  0  0  0
    8.3865   -2.8630   27.8500 H   0  0  0  0  0  0  0  0  0  0  0  0
    9.6559   -5.0593   27.6473 H   0  0  0  0  0  0  0  0  0  0  0  0
    9.4355   -6.3607   25.5316 H   0  0  0  0  0  0  0  0  0  0  0  0
    6.5064   -4.2768   22.8742 H   0  0  0  0  0  0  0  0  0  0  0  0
    5.6770   -3.0890   23.8458 H   0  0  0  0  0  0  0  0  0  0  0  0
    8.1917   -1.9480   23.0022 H   0  0  0  0  0  0  0  0  0  0  0  0
    6.6634   -0.0126   19.9189 C   0  0  0  0  0  0  0  0  0  0  0  0
    5.4433    0.6392   20.1656 C   0  0  0  0  0  0  0  0  0  0  0  0
    4.8157    1.3097   19.1093 C   0  0  0  0  0  0  0  0  0  0  0  0
    5.4034    1.2932   17.8391 C   0  0  0  0  0  0  0  0  0  0  0  0
    6.5684    0.6759   17.5830 N   0  0  0  0  0  0  0  0  0  0  0  0
    7.1787    0.0635   18.6059 C   0  0  0  0  0  0  0  0  0  0  0  0
    8.1206   -0.4256   18.3729 H   0  0  0  0  0  0  0  0  0  0  0  0
    4.9184    1.7820   16.9933 H   0  0  0  0  0  0  0  0  0  0  0  0
    3.8813    1.8394   19.2597 H   0  0  0  0  0  0  0  0  0  0  0  0
    5.0144    0.6094   21.1685 H   0  0  0  0  0  0  0  0  0  0  0  0
    9.0224    0.4756   20.5902 H   0  0  0  0  0  0  0  0  0  0  0  0
    8.8166    0.1058   22.2950 H   0  0  0  0  0  0  0  0  0  0  0  0
    9.4357   -1.1412   21.1586 H   0  0  0  0  0  0  0  0  0  0  0  0
  1  2  1  0
  2  3  1  0
  3  4  2  0
  3  5  1  0
  5  6  1  0
  6  7  1  0
  7  8  2  0
  8  9  1  0
  9 10  2  0
 10 11  1  0
 11 12  2  0
 12 13  1  0
 11 14  1  0
 10 15  1  0
  9 16  1  0
  6 17  1  0
  6 18  1  0
  5 19  1  0
  2 20  1  0
 20 21  2  0
 21 22  1  0
 22 23  2  0
 23 24  1  0
 24 25  2  0
 25 26  1  0
 23 27  1  0
 22 28  1  0
 21 29  1  0
  1 30  1  0
  1 31  1  0
  1 32  1  0
 12  7  1  0
 25 20  1  0
M  END
>  <cnnaffinity>  (1) 
-4.99073

>  <filename>  (1) 
CN(C(=O)NCc1ncccc1Cl)c1cccnc1

$$$$
