
     RDKit          3D

 35 35  0  0  0  0  0  0  0  0999 V2000
    5.0402    2.0458   16.9546 H   0  0  0  0  0  0  0  0  0  0  0  0
    5.4474    1.4408   17.7668 C   0  0  0  0  0  0  0  0  0  0  0  0
    6.6169    0.8285   17.5139 N   0  0  0  0  0  0  0  0  0  0  0  0
    7.1398    0.0705   18.4815 C   0  0  0  0  0  0  0  0  0  0  0  0
    8.1243   -0.3516   18.2748 H   0  0  0  0  0  0  0  0  0  0  0  0
    6.5151   -0.1845   19.7252 C   0  0  0  0  0  0  0  0  0  0  0  0
    7.1275   -1.0935   20.7837 C   0  0  0  0  0  0  0  0  0  0  0  0
    8.1706   -1.3247   20.5551 H   0  0  0  0  0  0  0  0  0  0  0  0
    7.0496   -0.6215   21.7723 H   0  0  0  0  0  0  0  0  0  0  0  0
    6.4155   -2.7243   21.1977 S   0  0  0  0  0  0  0  0  0  0  0  0
    6.4487   -3.6794   20.1222 O   0  0  0  0  0  0  0  0  0  0  0  0
    5.1887   -2.5716   21.9388 O   0  0  0  0  0  0  0  0  0  0  0  0
    7.5818   -3.2126   22.2044 O   0  0  0  0  0  0  0  0  0  0  0  0
    7.6778   -2.6884   23.5483 C   0  0  0  0  0  0  0  0  0  0  0  0
    8.2125   -1.7301   23.5439 H   0  0  0  0  0  0  0  0  0  0  0  0
    6.6821   -2.5240   23.9745 H   0  0  0  0  0  0  0  0  0  0  0  0
    8.4679   -3.7124   24.3370 C   0  0  0  0  0  0  0  0  0  0  0  0
    9.4090   -3.8969   23.8058 H   0  0  0  0  0  0  0  0  0  0  0  0
    8.7215   -3.3050   25.3268 H   0  0  0  0  0  0  0  0  0  0  0  0
    7.7127   -5.0472   24.4822 C   0  0  0  0  0  0  0  0  0  0  0  0
    7.6450   -5.5266   23.4947 H   0  0  0  0  0  0  0  0  0  0  0  0
    6.6751   -4.8628   24.8013 H   0  0  0  0  0  0  0  0  0  0  0  0
    8.2781   -5.9978   25.4264 N   0  0  0  0  0  0  0  0  0  0  0  0
    8.1977   -5.5749   26.8160 C   0  0  0  0  0  0  0  0  0  0  0  0
    8.4307   -6.4191   27.4754 H   0  0  0  0  0  0  0  0  0  0  0  0
    7.1752   -5.2534   27.0494 H   0  0  0  0  0  0  0  0  0  0  0  0
    8.8857   -4.7475   27.0804 H   0  0  0  0  0  0  0  0  0  0  0  0
    9.6021   -6.4821   25.0728 C   0  0  0  0  0  0  0  0  0  0  0  0
   10.3976   -5.7126   25.1153 H   0  0  0  0  0  0  0  0  0  0  0  0
    9.8882   -7.2948   25.7522 H   0  0  0  0  0  0  0  0  0  0  0  0
    9.5801   -6.8968   24.0575 H   0  0  0  0  0  0  0  0  0  0  0  0
    5.3292    0.5140   19.9928 C   0  0  0  0  0  0  0  0  0  0  0  0
    4.8719    0.4345   20.9827 H   0  0  0  0  0  0  0  0  0  0  0  0
    4.7846    1.3319   18.9936 C   0  0  0  0  0  0  0  0  0  0  0  0
    3.8705    1.8954   19.1487 H   0  0  0  0  0  0  0  0  0  0  0  0
  1  2  1  0
  2  3  2  0
  3  4  1  0
  4  5  1  0
  4  6  2  0
  6  7  1  0
  7  8  1  0
  7  9  1  0
  7 10  1  0
 10 11  2  0
 10 12  2  0
 10 13  1  0
 13 14  1  0
 14 15  1  0
 14 16  1  0
 14 17  1  0
 17 18  1  0
 17 19  1  0
 17 20  1  0
 20 21  1  0
 20 22  1  0
 20 23  1  0
 23 24  1  0
 24 25  1  0
 24 26  1  0
 24 27  1  0
 23 28  1  0
 28 29  1  0
 28 30  1  0
 28 31  1  0
  6 32  1  0
 32 33  1  0
 32 34  2  0
 34 35  1  0
 34  2  1  0
M  END
>  <cnnaffinity>  (1) 
-3.85738

>  <filename>  (1) 
CN(C)CCCOS(=O)(=O)Cc1cccnc1

$$$$
