
     RDKit          3D

 29 31  0  0  0  0  0  0  0  0999 V2000
    4.9520    1.8512   17.0247 H   0  0  0  0  0  0  0  0  0  0  0  0
    5.4356    1.3050   17.8321 C   0  0  0  0  0  0  0  0  0  0  0  0
    6.6021    0.7084   17.5364 N   0  0  0  0  0  0  0  0  0  0  0  0
    7.2124    0.0144   18.5106 C   0  0  0  0  0  0  0  0  0  0  0  0
    8.1642   -0.4419   18.2398 H   0  0  0  0  0  0  0  0  0  0  0  0
    6.6839   -0.1696   19.8165 C   0  0  0  0  0  0  0  0  0  0  0  0
    7.3324   -0.9691   20.7951 N   0  0  0  0  0  0  0  0  0  0  0  0
    8.7032   -0.7843   21.0421 C   0  0  0  0  0  0  0  0  0  0  0  0
    9.6012   -1.7944   21.1347 C   0  0  0  0  0  0  0  0  0  0  0  0
    9.3758   -2.8463   21.0803 H   0  0  0  0  0  0  0  0  0  0  0  0
   11.2382   -1.2696   21.3348 S   0  0  0  0  0  0  0  0  0  0  0  0
   10.7380    0.3978   21.3908 C   0  0  0  0  0  0  0  0  0  0  0  0
   11.5555    1.5237   21.6165 C   0  0  0  0  0  0  0  0  0  0  0  0
   12.6381    1.4371   21.5767 H   0  0  0  0  0  0  0  0  0  0  0  0
   10.9366    2.7368   21.8787 C   0  0  0  0  0  0  0  0  0  0  0  0
   11.5534    3.5918   22.1441 H   0  0  0  0  0  0  0  0  0  0  0  0
    9.5297    2.8562   21.8441 C   0  0  0  0  0  0  0  0  0  0  0  0
    9.0545    3.8085   22.0663 H   0  0  0  0  0  0  0  0  0  0  0  0
    8.7375    1.7682   21.5156 C   0  0  0  0  0  0  0  0  0  0  0  0
    7.6568    1.8674   21.4552 H   0  0  0  0  0  0  0  0  0  0  0  0
    9.3370    0.5121   21.2779 C   0  0  0  0  0  0  0  0  0  0  0  0
    6.6111   -1.9601   21.5821 C   0  0  0  0  0  0  0  0  0  0  0  0
    6.6664   -2.9723   21.1573 H   0  0  0  0  0  0  0  0  0  0  0  0
    5.5515   -1.7055   21.6458 H   0  0  0  0  0  0  0  0  0  0  0  0
    7.0216   -1.9861   22.5972 H   0  0  0  0  0  0  0  0  0  0  0  0
    5.4845    0.5045   20.1078 C   0  0  0  0  0  0  0  0  0  0  0  0
    5.0858    0.4776   21.1213 H   0  0  0  0  0  0  0  0  0  0  0  0
    4.8507    1.2408   19.1003 C   0  0  0  0  0  0  0  0  0  0  0  0
    3.9238    1.7700   19.2902 H   0  0  0  0  0  0  0  0  0  0  0  0
  1  2  1  0
  2  3  2  0
  3  4  1  0
  4  5  1  0
  4  6  2  0
  6  7  1  0
  7  8  1  0
  8  9  2  0
  9 10  1  0
  9 11  1  0
 11 12  1  0
 12 13  2  0
 13 14  1  0
 13 15  1  0
 15 16  1  0
 15 17  2  0
 17 18  1  0
 17 19  1  0
 19 20  1  0
 19 21  2  0
  7 22  1  0
 22 23  1  0
 22 24  1  0
 22 25  1  0
  6 26  1  0
 26 27  1  0
 26 28  2  0
 28 29  1  0
 28  2  1  0
 21  8  1  0
 21 12  1  0
M  END
>  <cnnaffinity>  (1) 
-5.43676

>  <filename>  (1) 
CN(c1cccnc1)c1csc2ccccc12

$$$$
