
     RDKit          3D

 32 33  0  0  0  0  0  0  0  0999 V2000
    4.9103    1.7870   16.9880 H   0  0  0  0  0  0  0  0  0  0  0  0
    5.3961    1.2992   17.8288 C   0  0  0  0  0  0  0  0  0  0  0  0
    6.5593    0.6843   17.5622 N   0  0  0  0  0  0  0  0  0  0  0  0
    7.1834    0.0827   18.5795 C   0  0  0  0  0  0  0  0  0  0  0  0
    8.1188   -0.4287   18.3619 H   0  0  0  0  0  0  0  0  0  0  0  0
    6.6716    0.0405   19.8878 C   0  0  0  0  0  0  0  0  0  0  0  0
    7.3616   -0.6572   20.9356 N   0  0  0  0  0  0  0  0  0  0  0  0
    8.6469   -0.2647   21.2675 C   0  0  0  0  0  0  0  0  0  0  0  0
    9.0444    0.5754   20.6957 H   0  0  0  0  0  0  0  0  0  0  0  0
    9.3482   -0.8895   22.2478 C   0  0  0  0  0  0  0  0  0  0  0  0
   10.3476   -0.5364   22.5037 H   0  0  0  0  0  0  0  0  0  0  0  0
    8.7600   -1.9864   22.9624 C   0  0  0  0  0  0  0  0  0  0  0  0
    9.5122   -2.6421   24.1165 C   0  0  0  0  0  0  0  0  0  0  0  0
   10.5872   -2.6234   23.8963 H   0  0  0  0  0  0  0  0  0  0  0  0
    9.2208   -3.6993   24.1577 H   0  0  0  0  0  0  0  0  0  0  0  0
    9.2924   -2.0460   25.4422 N   0  0  0  0  0  0  0  0  0  0  0  0
    7.9012   -2.1378   25.8740 C   0  0  0  0  0  0  0  0  0  0  0  0
    7.5351   -3.1680   25.7889 H   0  0  0  0  0  0  0  0  0  0  0  0
    7.8235   -1.8538   26.9282 H   0  0  0  0  0  0  0  0  0  0  0  0
    7.2101   -1.4890   25.3028 H   0  0  0  0  0  0  0  0  0  0  0  0
    9.7679   -0.6682   25.5204 C   0  0  0  0  0  0  0  0  0  0  0  0
    9.1646    0.0474   24.9310 H   0  0  0  0  0  0  0  0  0  0  0  0
    9.7555   -0.3329   26.5623 H   0  0  0  0  0  0  0  0  0  0  0  0
   10.8035   -0.5943   25.1678 H   0  0  0  0  0  0  0  0  0  0  0  0
    7.4940   -2.3858   22.6253 C   0  0  0  0  0  0  0  0  0  0  0  0
    6.9678   -3.1833   23.1318 H   0  0  0  0  0  0  0  0  0  0  0  0
    6.7029   -1.7555   21.5955 C   0  0  0  0  0  0  0  0  0  0  0  0
    5.5883   -2.1349   21.2786 O   0  0  0  0  0  0  0  0  0  0  0  0
    5.4472    0.6595   20.1547 C   0  0  0  0  0  0  0  0  0  0  0  0
    5.0222    0.6089   21.1599 H   0  0  0  0  0  0  0  0  0  0  0  0
    4.8093    1.3166   19.0996 C   0  0  0  0  0  0  0  0  0  0  0  0
    3.8743    1.8423   19.2565 H   0  0  0  0  0  0  0  0  0  0  0  0
  1  2  1  0
  2  3  2  0
  3  4  1  0
  4  5  1  0
  4  6  2  0
  6  7  1  0
  7  8  1  0
  8  9  1  0
  8 10  2  0
 10 11  1  0
 10 12  1  0
 12 13  1  0
 13 14  1  0
 13 15  1  0
 13 16  1  0
 16 17  1  0
 17 18  1  0
 17 19  1  0
 17 20  1  0
 16 21  1  0
 21 22  1  0
 21 23  1  0
 21 24  1  0
 12 25  2  0
 25 26  1  0
 25 27  1  0
 27 28  2  0
  6 29  1  0
 29 30  1  0
 29 31  2  0
 31 32  1  0
 31  2  1  0
 27  7  1  0
M  END
>  <cnnaffinity>  (1) 
-4.62936

>  <filename>  (1) 
CN(C)Cc1ccn(-c2cccnc2)c(=O)c1

$$$$
