
     RDKit          3D

 33 34  0  0  0  0  0  0  0  0999 V2000
    4.9223    1.7936   16.9843 H   0  0  0  0  0  0  0  0  0  0  0  0
    5.3977    1.2986   17.8271 C   0  0  0  0  0  0  0  0  0  0  0  0
    6.5585    0.6782   17.5650 N   0  0  0  0  0  0  0  0  0  0  0  0
    7.1662    0.0733   18.5929 C   0  0  0  0  0  0  0  0  0  0  0  0
    8.1052   -0.4242   18.3641 H   0  0  0  0  0  0  0  0  0  0  0  0
    6.6636    0.0161   19.9142 C   0  0  0  0  0  0  0  0  0  0  0  0
    7.3760   -0.6960   20.9950 C   0  0  0  0  0  0  0  0  0  0  0  0
    6.6581   -1.8502   22.0242 S   0  0  0  0  0  0  0  0  0  0  0  0
    8.0562   -2.0672   22.9302 N   0  0  0  0  0  0  0  0  0  0  0  0
    9.0067   -1.3279   22.4980 N   0  0  0  0  0  0  0  0  0  0  0  0
    8.6822   -0.5395   21.4318 C   0  0  0  0  0  0  0  0  0  0  0  0
    9.6395    0.4801   20.9007 C   0  0  0  0  0  0  0  0  0  0  0  0
    9.6477    0.3772   19.8135 H   0  0  0  0  0  0  0  0  0  0  0  0
   10.6329    0.2560   21.2985 H   0  0  0  0  0  0  0  0  0  0  0  0
    9.2464    1.9318   21.2421 C   0  0  0  0  0  0  0  0  0  0  0  0
    9.9875    2.6219   20.8250 H   0  0  0  0  0  0  0  0  0  0  0  0
    8.2893    2.1588   20.7546 H   0  0  0  0  0  0  0  0  0  0  0  0
    9.0967    2.1966   22.7423 C   0  0  0  0  0  0  0  0  0  0  0  0
    8.8189    3.2566   22.9169 H   0  0  0  0  0  0  0  0  0  0  0  0
    8.2519    1.5929   23.0931 H   0  0  0  0  0  0  0  0  0  0  0  0
   10.2785    1.8172   23.5132 N   0  0  0  0  0  0  0  0  0  0  0  0
    9.9548    1.5260   24.8998 C   0  0  0  0  0  0  0  0  0  0  0  0
    9.2441    0.6945   24.9513 H   0  0  0  0  0  0  0  0  0  0  0  0
    9.5211    2.3888   25.4419 H   0  0  0  0  0  0  0  0  0  0  0  0
   10.8598    1.2193   25.4320 H   0  0  0  0  0  0  0  0  0  0  0  0
   11.3365    2.8074   23.4155 C   0  0  0  0  0  0  0  0  0  0  0  0
   11.6286    2.9652   22.3735 H   0  0  0  0  0  0  0  0  0  0  0  0
   11.0372    3.7872   23.8347 H   0  0  0  0  0  0  0  0  0  0  0  0
   12.2187    2.4598   23.9608 H   0  0  0  0  0  0  0  0  0  0  0  0
    5.4347    0.6555   20.1537 C   0  0  0  0  0  0  0  0  0  0  0  0
    5.0072    0.6413   21.1599 H   0  0  0  0  0  0  0  0  0  0  0  0
    4.8057    1.3106   19.0973 C   0  0  0  0  0  0  0  0  0  0  0  0
    3.8759    1.8412   19.2471 H   0  0  0  0  0  0  0  0  0  0  0  0
  1  2  1  0
  2  3  2  0
  3  4  1  0
  4  5  1  0
  4  6  2  0
  6  7  1  0
  7  8  1  0
  8  9  1  0
  9 10  2  0
 10 11  1  0
 11 12  1  0
 12 13  1  0
 12 14  1  0
 12 15  1  0
 15 16  1  0
 15 17  1  0
 15 18  1  0
 18 19  1  0
 18 20  1  0
 18 21  1  0
 21 22  1  0
 22 23  1  0
 22 24  1  0
 22 25  1  0
 21 26  1  0
 26 27  1  0
 26 28  1  0
 26 29  1  0
  6 30  1  0
 30 31  1  0
 30 32  2  0
 32 33  1  0
 32  2  1  0
 11  7  2  0
M  END
>  <cnnaffinity>  (1) 
-4.80827

>  <filename>  (1) 
CN(C)CCCc1nnsc1-c1cccnc1

$$$$
