
     RDKit          3D

 45 46  0  0  0  0  0  0  0  0999 V2000
    4.9987    1.5615   17.3357 H   0  0  0  0  0  0  0  0  0  0  0  0
    5.4859    1.0222   18.1470 C   0  0  0  0  0  0  0  0  0  0  0  0
    6.7069    0.5315   17.8876 N   0  0  0  0  0  0  0  0  0  0  0  0
    7.3439   -0.0923   18.8894 C   0  0  0  0  0  0  0  0  0  0  0  0
    8.3424   -0.4568   18.6490 H   0  0  0  0  0  0  0  0  0  0  0  0
    6.8352   -0.2719   20.1885 C   0  0  0  0  0  0  0  0  0  0  0  0
    7.8135   -0.7270   21.2942 C   0  0  0  0  0  0  0  0  0  0  0  0
    8.9104    0.2124   21.3602 O   0  0  0  0  0  0  0  0  0  0  0  0
    8.6520    1.5705   21.6734 C   0  0  0  0  0  0  0  0  0  0  0  0
    8.9593    2.1638   20.7980 H   0  0  0  0  0  0  0  0  0  0  0  0
    7.5798    1.7680   21.8302 H   0  0  0  0  0  0  0  0  0  0  0  0
    9.4693    1.9891   22.8880 C   0  0  0  0  0  0  0  0  0  0  0  0
    9.2341    1.3611   23.7560 H   0  0  0  0  0  0  0  0  0  0  0  0
   10.5254    1.8158   22.6577 H   0  0  0  0  0  0  0  0  0  0  0  0
    9.2301    3.4534   23.2315 C   0  0  0  0  0  0  0  0  0  0  0  0
    8.1983    3.5607   23.6025 H   0  0  0  0  0  0  0  0  0  0  0  0
    9.2734    4.0498   22.2946 H   0  0  0  0  0  0  0  0  0  0  0  0
   10.1379    3.9723   24.2512 N   0  0  0  0  0  0  0  0  0  0  0  0
   11.5450    3.8683   23.8773 C   0  0  0  0  0  0  0  0  0  0  0  0
   11.7507    4.1496   22.8262 H   0  0  0  0  0  0  0  0  0  0  0  0
   11.9062    2.8461   24.0302 H   0  0  0  0  0  0  0  0  0  0  0  0
   12.1521    4.5170   24.5176 H   0  0  0  0  0  0  0  0  0  0  0  0
    9.7824    5.3233   24.6605 C   0  0  0  0  0  0  0  0  0  0  0  0
    9.9132    6.0926   23.8729 H   0  0  0  0  0  0  0  0  0  0  0  0
    8.7392    5.3561   24.9877 H   0  0  0  0  0  0  0  0  0  0  0  0
   10.3917    5.6179   25.5230 H   0  0  0  0  0  0  0  0  0  0  0  0
    8.5669   -2.0503   21.0086 C   0  0  0  0  0  0  0  0  0  0  0  0
    9.0313   -1.9694   20.0243 H   0  0  0  0  0  0  0  0  0  0  0  0
    9.3985   -2.0852   21.7276 H   0  0  0  0  0  0  0  0  0  0  0  0
    7.7373   -3.3363   21.1599 C   0  0  0  0  0  0  0  0  0  0  0  0
    6.9389   -3.3593   20.4027 H   0  0  0  0  0  0  0  0  0  0  0  0
    8.3806   -4.2099   20.9879 H   0  0  0  0  0  0  0  0  0  0  0  0
    7.0969   -3.4331   22.5436 C   0  0  0  0  0  0  0  0  0  0  0  0
    7.8664   -3.5706   23.3143 H   0  0  0  0  0  0  0  0  0  0  0  0
    6.4306   -4.3074   22.5869 H   0  0  0  0  0  0  0  0  0  0  0  0
    6.2979   -2.1611   22.8256 C   0  0  0  0  0  0  0  0  0  0  0  0
    5.4960   -2.1493   22.0756 H   0  0  0  0  0  0  0  0  0  0  0  0
    5.8300   -2.2132   23.8165 H   0  0  0  0  0  0  0  0  0  0  0  0
    7.1346   -0.8739   22.6856 C   0  0  0  0  0  0  0  0  0  0  0  0
    7.9419   -0.8850   23.4283 H   0  0  0  0  0  0  0  0  0  0  0  0
    6.5198    0.0140   22.8942 H   0  0  0  0  0  0  0  0  0  0  0  0
    5.5202    0.1884   20.4029 C   0  0  0  0  0  0  0  0  0  0  0  0
    5.0153    0.0462   21.3596 H   0  0  0  0  0  0  0  0  0  0  0  0
    4.8495    0.8675   19.3811 C   0  0  0  0  0  0  0  0  0  0  0  0
    3.8656    1.2975   19.5391 H   0  0  0  0  0  0  0  0  0  0  0  0
  1  2  1  0
  2  3  2  0
  3  4  1  0
  4  5  1  0
  4  6  2  0
  6  7  1  0
  7  8  1  0
  8  9  1  0
  9 10  1  0
  9 11  1  0
  9 12  1  0
 12 13  1  0
 12 14  1  0
 12 15  1  0
 15 16  1  0
 15 17  1  0
 15 18  1  0
 18 19  1  0
 19 20  1  0
 19 21  1  0
 19 22  1  0
 18 23  1  0
 23 24  1  0
 23 25  1  0
 23 26  1  0
  7 27  1  0
 27 28  1  0
 27 29  1  0
 27 30  1  0
 30 31  1  0
 30 32  1  0
 30 33  1  0
 33 34  1  0
 33 35  1  0
 33 36  1  0
 36 37  1  0
 36 38  1  0
 36 39  1  0
 39 40  1  0
 39 41  1  0
  6 42  1  0
 42 43  1  0
 42 44  2  0
 44 45  1  0
 44  2  1  0
 39  7  1  0
M  END
>  <cnnaffinity>  (1) 
-4.91253

>  <filename>  (1) 
CN(C)CCCOC1(c2cccnc2)CCCCC1

$$$$
