
     RDKit          3D

 36 37  0  0  0  0  0  0  0  0999 V2000
    4.9835    1.8660   17.0271 H   0  0  0  0  0  0  0  0  0  0  0  0
    5.4942    1.2986   17.8029 C   0  0  0  0  0  0  0  0  0  0  0  0
    6.6561    0.7203   17.4520 N   0  0  0  0  0  0  0  0  0  0  0  0
    7.3231    0.0484   18.4033 C   0  0  0  0  0  0  0  0  0  0  0  0
    8.2782   -0.3826   18.0935 H   0  0  0  0  0  0  0  0  0  0  0  0
    6.8521   -0.1161   19.7283 C   0  0  0  0  0  0  0  0  0  0  0  0
    7.5787   -0.8580   20.7837 C   0  0  0  0  0  0  0  0  0  0  0  0
    8.8759   -0.7260   21.1357 C   0  0  0  0  0  0  0  0  0  0  0  0
    9.6330   -0.1350   20.6401 H   0  0  0  0  0  0  0  0  0  0  0  0
    9.1735   -1.3663   22.3302 N   0  0  0  0  0  0  0  0  0  0  0  0
   10.0369   -1.9084   22.3841 H   0  0  0  0  0  0  0  0  0  0  0  0
    8.0176   -2.1017   22.6375 N   0  0  0  0  0  0  0  0  0  0  0  0
    7.8807   -2.6802   23.9608 C   0  0  0  0  0  0  0  0  0  0  0  0
    8.7795   -3.2806   24.1725 H   0  0  0  0  0  0  0  0  0  0  0  0
    7.0354   -3.3652   23.8904 H   0  0  0  0  0  0  0  0  0  0  0  0
    7.6372   -1.6733   25.0912 C   0  0  0  0  0  0  0  0  0  0  0  0
    6.7131   -1.1145   24.9040 H   0  0  0  0  0  0  0  0  0  0  0  0
    7.4764   -2.2287   26.0250 H   0  0  0  0  0  0  0  0  0  0  0  0
    8.7787   -0.6778   25.2904 C   0  0  0  0  0  0  0  0  0  0  0  0
    8.8797   -0.0725   24.3850 H   0  0  0  0  0  0  0  0  0  0  0  0
    9.7444   -1.2160   25.4126 H   0  0  0  0  0  0  0  0  0  0  0  0
    8.4942    0.2089   26.4167 N   0  0  0  0  0  0  0  0  0  0  0  0
    9.0745    1.5327   26.2595 C   0  0  0  0  0  0  0  0  0  0  0  0
    8.6916    2.1955   27.0451 H   0  0  0  0  0  0  0  0  0  0  0  0
    8.7834    1.9535   25.2896 H   0  0  0  0  0  0  0  0  0  0  0  0
   10.1819    1.5423   26.3080 H   0  0  0  0  0  0  0  0  0  0  0  0
    8.8372   -0.3674   27.7082 C   0  0  0  0  0  0  0  0  0  0  0  0
    9.9259   -0.5377   27.8468 H   0  0  0  0  0  0  0  0  0  0  0  0
    8.4915    0.2992   28.5073 H   0  0  0  0  0  0  0  0  0  0  0  0
    8.3297   -1.3279   27.8420 H   0  0  0  0  0  0  0  0  0  0  0  0
    6.9661   -1.8096   21.7620 C   0  0  0  0  0  0  0  0  0  0  0  0
    5.8622   -2.3290   21.8084 O   0  0  0  0  0  0  0  0  0  0  0  0
    5.6264    0.4864   20.0544 C   0  0  0  0  0  0  0  0  0  0  0  0
    5.2532    0.3850   21.0753 H   0  0  0  0  0  0  0  0  0  0  0  0
    4.9426    1.2163   19.0840 C   0  0  0  0  0  0  0  0  0  0  0  0
    4.0192    1.7364   19.3164 H   0  0  0  0  0  0  0  0  0  0  0  0
  1  2  1  0
  2  3  2  0
  3  4  1  0
  4  5  1  0
  4  6  2  0
  6  7  1  0
  7  8  2  0
  8  9  1  0
  8 10  1  0
 10 11  1  0
 10 12  1  0
 12 13  1  0
 13 14  1  0
 13 15  1  0
 13 16  1  0
 16 17  1  0
 16 18  1  0
 16 19  1  0
 19 20  1  0
 19 21  1  0
 19 22  1  0
 22 23  1  0
 23 24  1  0
 23 25  1  0
 23 26  1  0
 22 27  1  0
 27 28  1  0
 27 29  1  0
 27 30  1  0
 12 31  1  0
 31 32  2  0
  6 33  1  0
 33 34  1  0
 33 35  2  0
 35 36  1  0
 35  2  1  0
 31  7  1  0
M  END
>  <cnnaffinity>  (1) 
-4.53502

>  <filename>  (1) 
CN(C)CCCn1[nH]cc(-c2cccnc2)c1=O

$$$$
