
     RDKit          3D

 33 34  0  0  0  0  0  0  0  0999 V2000
    4.9470    1.7776   16.9980 H   0  0  0  0  0  0  0  0  0  0  0  0
    5.4202    1.2866   17.8453 C   0  0  0  0  0  0  0  0  0  0  0  0
    6.5797    0.6665   17.5920 N   0  0  0  0  0  0  0  0  0  0  0  0
    7.1986    0.0725   18.6171 C   0  0  0  0  0  0  0  0  0  0  0  0
    8.1280   -0.4314   18.3558 H   0  0  0  0  0  0  0  0  0  0  0  0
    6.6957    0.0501   19.9301 C   0  0  0  0  0  0  0  0  0  0  0  0
    7.4187   -0.7128   20.9915 C   0  0  0  0  0  0  0  0  0  0  0  0
    6.6611   -1.9534   21.7961 S   0  0  0  0  0  0  0  0  0  0  0  0
    8.6894   -0.3592   21.2535 N   0  0  0  0  0  0  0  0  0  0  0  0
    9.3277    0.9016   20.8355 C   0  0  0  0  0  0  0  0  0  0  0  0
    8.6491    1.7444   21.0108 H   0  0  0  0  0  0  0  0  0  0  0  0
    9.5337    0.8634   19.7655 H   0  0  0  0  0  0  0  0  0  0  0  0
   10.6048    0.9897   21.6685 C   0  0  0  0  0  0  0  0  0  0  0  0
   10.4635    1.6391   22.5394 H   0  0  0  0  0  0  0  0  0  0  0  0
   11.4576    1.3887   21.1113 H   0  0  0  0  0  0  0  0  0  0  0  0
   10.9032   -0.4376   22.1598 C   0  0  1  0  0  0  0  0  0  0  0  0
   11.5295   -0.9508   21.4138 H   0  0  0  0  0  0  0  0  0  0  0  0
   11.6162   -0.4735   23.4331 N   0  0  0  0  0  0  0  0  0  0  0  0
   11.0259    0.2432   24.5583 C   0  0  0  0  0  0  0  0  0  0  0  0
    9.9298    0.2272   24.5267 H   0  0  0  0  0  0  0  0  0  0  0  0
   11.3536    1.2992   24.6106 H   0  0  0  0  0  0  0  0  0  0  0  0
   11.3503   -0.2468   25.4850 H   0  0  0  0  0  0  0  0  0  0  0  0
   13.0317   -0.1626   23.2935 C   0  0  0  0  0  0  0  0  0  0  0  0
   13.2573    0.7974   22.7926 H   0  0  0  0  0  0  0  0  0  0  0  0
   13.4752   -0.1323   24.2952 H   0  0  0  0  0  0  0  0  0  0  0  0
   13.5199   -0.9656   22.7304 H   0  0  0  0  0  0  0  0  0  0  0  0
    9.5430   -1.1593   22.1490 C   0  0  0  0  0  0  0  0  0  0  0  0
    9.6268   -2.1841   21.7642 H   0  0  0  0  0  0  0  0  0  0  0  0
    9.0989   -1.2431   23.1480 H   0  0  0  0  0  0  0  0  0  0  0  0
    5.4626    0.6727   20.1740 C   0  0  0  0  0  0  0  0  0  0  0  0
    5.0085    0.6298   21.1672 H   0  0  0  0  0  0  0  0  0  0  0  0
    4.8264    1.3148   19.1138 C   0  0  0  0  0  0  0  0  0  0  0  0
    3.8814    1.8269   19.2491 H   0  0  0  0  0  0  0  0  0  0  0  0
  1  2  1  0
  2  3  2  0
  3  4  1  0
  4  5  1  0
  4  6  2  0
  6  7  1  0
  7  8  2  0
  7  9  1  0
  9 10  1  0
 10 11  1  0
 10 12  1  0
 10 13  1  0
 13 14  1  0
 13 15  1  0
 13 16  1  0
 16 17  1  6
 16 18  1  0
 18 19  1  0
 19 20  1  0
 19 21  1  0
 19 22  1  0
 18 23  1  0
 23 24  1  0
 23 25  1  0
 23 26  1  0
 16 27  1  0
 27 28  1  0
 27 29  1  0
  6 30  1  0
 30 31  1  0
 30 32  2  0
 32 33  1  0
 32  2  1  0
 27  9  1  0
M  END
>  <cnnaffinity>  (1) 
-4.54098

>  <filename>  (1) 
CN(C)[C@@H]1CCN(C(=S)c2cccnc2)C1

$$$$
