
     RDKit          3D

 34 35  0  0  0  0  0  0  0  0999 V2000
    5.0008    1.7875   16.9890 H   0  0  0  0  0  0  0  0  0  0  0  0
    5.4607    1.2830   17.8373 C   0  0  0  0  0  0  0  0  0  0  0  0
    6.6224    0.6521   17.6003 N   0  0  0  0  0  0  0  0  0  0  0  0
    7.2009   -0.0022   18.6166 C   0  0  0  0  0  0  0  0  0  0  0  0
    8.1466   -0.5028   18.4165 H   0  0  0  0  0  0  0  0  0  0  0  0
    6.6428   -0.0526   19.9070 C   0  0  0  0  0  0  0  0  0  0  0  0
    7.2633   -0.8818   20.8443 O   0  0  0  0  0  0  0  0  0  0  0  0
    7.3374   -0.5393   22.1558 C   0  0  0  0  0  0  0  0  0  0  0  0
    6.9679    0.5214   22.6061 O   0  0  0  0  0  0  0  0  0  0  0  0
    7.9212   -1.5561   22.8840 N   0  0  0  0  0  0  0  0  0  0  0  0
    7.9854   -1.2440   24.2633 C   0  0  0  0  0  0  0  0  0  0  0  0
    7.4503   -1.9467   25.0929 O   0  0  0  0  0  0  0  0  0  0  0  0
    8.6934   -0.1014   24.5766 N   0  0  0  0  0  0  0  0  0  0  0  0
    8.0870    0.8640   25.5100 C   0  0  0  0  0  0  0  0  0  0  0  0
    7.5307    1.6456   24.9664 H   0  0  0  0  0  0  0  0  0  0  0  0
    7.3865    0.3539   26.1843 H   0  0  0  0  0  0  0  0  0  0  0  0
    9.2178    1.4847   26.3252 C   0  0  0  0  0  0  0  0  0  0  0  0
    8.8363    2.2550   27.0012 H   0  0  0  0  0  0  0  0  0  0  0  0
    9.6567    0.6686   26.9195 H   0  0  0  0  0  0  0  0  0  0  0  0
   10.2098    2.0940   25.5146 O   0  0  0  0  0  0  0  0  0  0  0  0
   10.7636    1.1698   24.5946 C   0  0  0  0  0  0  0  0  0  0  0  0
   11.2849    0.3642   25.1328 H   0  0  0  0  0  0  0  0  0  0  0  0
   11.4979    1.7205   24.0043 H   0  0  0  0  0  0  0  0  0  0  0  0
    9.6963    0.5231   23.6989 C   0  0  0  0  0  0  0  0  0  0  0  0
    9.2164    1.2814   23.0643 H   0  0  0  0  0  0  0  0  0  0  0  0
   10.1627   -0.2271   23.0489 H   0  0  0  0  0  0  0  0  0  0  0  0
    7.8809   -2.9715   22.4708 C   0  0  0  0  0  0  0  0  0  0  0  0
    6.8552   -3.3612   22.4293 H   0  0  0  0  0  0  0  0  0  0  0  0
    8.3444   -3.0822   21.4847 H   0  0  0  0  0  0  0  0  0  0  0  0
    8.4449   -3.5671   23.1939 H   0  0  0  0  0  0  0  0  0  0  0  0
    5.4646    0.6468   20.1681 C   0  0  0  0  0  0  0  0  0  0  0  0
    5.0749    0.6971   21.1819 H   0  0  0  0  0  0  0  0  0  0  0  0
    4.8524    1.3074   19.0955 C   0  0  0  0  0  0  0  0  0  0  0  0
    3.9266    1.8534   19.2345 H   0  0  0  0  0  0  0  0  0  0  0  0
  1  2  1  0
  2  3  2  0
  3  4  1  0
  4  5  1  0
  4  6  2  0
  6  7  1  0
  7  8  1  0
  8  9  2  0
  8 10  1  0
 10 11  1  0
 11 12  2  0
 11 13  1  0
 13 14  1  0
 14 15  1  0
 14 16  1  0
 14 17  1  0
 17 18  1  0
 17 19  1  0
 17 20  1  0
 20 21  1  0
 21 22  1  0
 21 23  1  0
 21 24  1  0
 24 25  1  0
 24 26  1  0
 10 27  1  0
 27 28  1  0
 27 29  1  0
 27 30  1  0
  6 31  1  0
 31 32  1  0
 31 33  2  0
 33 34  1  0
 33  2  1  0
 24 13  1  0
M  END
>  <cnnaffinity>  (1) 
-4.8628

>  <filename>  (1) 
CN(C(=O)Oc1cccnc1)C(=O)N1CCOCC1

$$$$
