
     RDKit          3D

 33 35  0  0  0  0  0  0  0  0999 V2000
    4.8688    1.7215   16.9823 H   0  0  0  0  0  0  0  0  0  0  0  0
    5.3914    1.3020   17.8344 C   0  0  0  0  0  0  0  0  0  0  0  0
    6.5776    0.7340   17.5614 N   0  0  0  0  0  0  0  0  0  0  0  0
    7.2676    0.2152   18.5751 C   0  0  0  0  0  0  0  0  0  0  0  0
    8.2154   -0.2545   18.3066 H   0  0  0  0  0  0  0  0  0  0  0  0
    6.8235    0.2392   19.9405 C   0  0  0  0  0  0  0  0  0  0  0  0
    7.6320   -0.3357   20.9159 N   0  0  0  0  0  0  0  0  0  0  0  0
    7.6157   -0.1166   22.1860 C   0  0  0  0  0  0  0  0  0  0  0  0
    7.2865    1.0556   22.8896 N   0  0  0  0  0  0  0  0  0  0  0  0
    6.6195    1.0505   24.1458 C   0  0  0  0  0  0  0  0  0  0  0  0
    5.8302   -0.0488   24.5291 C   0  0  0  0  0  0  0  0  0  0  0  0
    5.9058   -0.9634   23.9519 H   0  0  0  0  0  0  0  0  0  0  0  0
    4.9906    0.0373   25.6409 C   0  0  0  0  0  0  0  0  0  0  0  0
    4.3163   -0.7883   25.8607 H   0  0  0  0  0  0  0  0  0  0  0  0
    5.0174    1.1675   26.4637 C   0  0  0  0  0  0  0  0  0  0  0  0
    4.3677    1.2189   27.3336 H   0  0  0  0  0  0  0  0  0  0  0  0
    5.8988    2.2114   26.1634 C   0  0  0  0  0  0  0  0  0  0  0  0
    5.9787    3.0645   26.8337 H   0  0  0  0  0  0  0  0  0  0  0  0
    6.6801    2.1677   25.0039 C   0  0  0  0  0  0  0  0  0  0  0  0
    7.3599    2.9830   24.7698 H   0  0  0  0  0  0  0  0  0  0  0  0
    7.7100    2.3289   22.3079 C   0  0  0  0  0  0  0  0  0  0  0  0
    8.6197    2.7198   22.7846 H   0  0  0  0  0  0  0  0  0  0  0  0
    7.9097    2.2303   21.2413 H   0  0  0  0  0  0  0  0  0  0  0  0
    6.9288    3.0881   22.4230 H   0  0  0  0  0  0  0  0  0  0  0  0
    8.1697   -1.1650   23.0164 N   0  0  0  0  0  0  0  0  0  0  0  0
    8.8358   -1.9612   22.3521 N   0  0  0  0  0  0  0  0  0  0  0  0
    8.8675   -2.8900   22.7929 H   0  0  0  0  0  0  0  0  0  0  0  0
    6.8868   -2.7149   21.0148 C   0  0  0  0  0  0  0  0  0  0  0  0
    6.6581   -3.0276   20.9122 O   0  0  0  0  0  0  0  0  0  0  0  0
    5.5507    0.7851   20.1812 C   0  0  0  0  0  0  0  0  0  0  0  0
    5.1493    0.7961   21.1968 H   0  0  0  0  0  0  0  0  0  0  0  0
    4.8325    1.3328   19.1139 C   0  0  0  0  0  0  0  0  0  0  0  0
    3.8616    1.7895   19.2642 H   0  0  0  0  0  0  0  0  0  0  0  0
  1  2  1  0
  2  3  2  0
  3  4  1  0
  4  5  1  0
  4  6  2  0
  6  7  1  0
  7  8  1  0
  8  9  1  0
  9 10  1  0
 10 11  2  0
 11 12  1  0
 11 13  1  0
 13 14  1  0
 13 15  2  0
 15 16  1  0
 15 17  1  0
 17 18  1  0
 17 19  2  0
 19 20  1  0
  9 21  1  0
 21 22  1  0
 21 23  1  0
 21 24  1  0
  8 25  2  0
 25 26  1  0
 26 27  1  0
 26 28  1  0
 28 29  2  0
  6 30  1  0
 30 31  1  0
 30 32  2  0
 32 33  1  0
 32  2  1  0
 28  7  1  0
 19 10  1  0
M  END
>  <cnnaffinity>  (1) 
-4.57042

>  <filename>  (1) 
CN(c1ccccc1)c1n[nH]c(=O)n1-c1cccnc1

$$$$
