
     RDKit          3D

 28 28  0  0  0  0  0  0  0  0999 V2000
    4.9918    1.7893   16.9965 H   0  0  0  0  0  0  0  0  0  0  0  0
    5.4363    1.2789   17.8490 C   0  0  0  0  0  0  0  0  0  0  0  0
    6.5958    0.6465   17.6142 N   0  0  0  0  0  0  0  0  0  0  0  0
    7.1818    0.0363   18.6500 C   0  0  0  0  0  0  0  0  0  0  0  0
    8.1224   -0.4727   18.4569 H   0  0  0  0  0  0  0  0  0  0  0  0
    6.6490    0.0171   19.9572 C   0  0  0  0  0  0  0  0  0  0  0  0
    7.3728   -0.6952   20.9822 C   0  0  0  0  0  0  0  0  0  0  0  0
    8.1181   -1.4053   21.6217 C   0  0  0  0  0  0  0  0  0  0  0  0
    8.7128   -2.0136   22.6186 O   0  0  0  0  0  0  0  0  0  0  0  0
    8.3377   -1.5724   23.9415 C   0  0  0  0  0  0  0  0  0  0  0  0
    8.5205   -0.4951   24.0705 H   0  0  0  0  0  0  0  0  0  0  0  0
    7.2734   -1.7762   24.1399 H   0  0  0  0  0  0  0  0  0  0  0  0
    9.2195   -2.3857   24.8886 C   0  0  0  0  0  0  0  0  0  0  0  0
   10.2730   -2.2116   24.6327 H   0  0  0  0  0  0  0  0  0  0  0  0
    9.0359   -3.4482   24.6733 H   0  0  0  0  0  0  0  0  0  0  0  0
    9.0109   -2.1752   26.3113 N   0  0  0  0  0  0  0  0  0  0  0  0
    9.4311   -0.9118   26.8921 C   0  0  0  0  0  0  0  0  0  0  0  0
   10.4318   -0.6296   26.5454 H   0  0  0  0  0  0  0  0  0  0  0  0
    8.7578   -0.0556   26.6961 H   0  0  0  0  0  0  0  0  0  0  0  0
    9.4906   -1.0315   27.9822 H   0  0  0  0  0  0  0  0  0  0  0  0
    7.7265   -2.6303   26.8027 C   0  0  0  0  0  0  0  0  0  0  0  0
    6.8738   -1.9534   26.5838 H   0  0  0  0  0  0  0  0  0  0  0  0
    7.7911   -2.7344   27.8803 H   0  0  0  0  0  0  0  0  0  0  0  0
    7.5011   -3.6281   26.4023 H   0  0  0  0  0  0  0  0  0  0  0  0
    5.4251    0.6703   20.1791 C   0  0  0  0  0  0  0  0  0  0  0  0
    4.9746    0.6790   21.1716 H   0  0  0  0  0  0  0  0  0  0  0  0
    4.8077    1.3079   19.1002 C   0  0  0  0  0  0  0  0  0  0  0  0
    3.8650    1.8344   19.2148 H   0  0  0  0  0  0  0  0  0  0  0  0
  1  2  1  0
  2  3  2  0
  3  4  1  0
  4  5  1  0
  4  6  2  0
  6  7  1  0
  7  8  3  0
  8  9  1  0
  9 10  1  0
 10 11  1  0
 10 12  1  0
 10 13  1  0
 13 14  1  0
 13 15  1  0
 13 16  1  0
 16 17  1  0
 17 18  1  0
 17 19  1  0
 17 20  1  0
 16 21  1  0
 21 22  1  0
 21 23  1  0
 21 24  1  0
  6 25  1  0
 25 26  1  0
 25 27  2  0
 27 28  1  0
 27  2  1  0
M  END
>  <cnnaffinity>  (1) 
-3.96172

>  <filename>  (1) 
CN(C)CCOC#Cc1cccnc1

$$$$
