
     RDKit          3D

 34 37  0  0  0  0  0  0  0  0999 V2000
    5.0447    1.7139   16.8360 H   0  0  0  0  0  0  0  0  0  0  0  0
    5.4930    1.2406   17.7079 C   0  0  0  0  0  0  0  0  0  0  0  0
    6.6147    0.5379   17.4859 N   0  0  0  0  0  0  0  0  0  0  0  0
    7.1880   -0.0557   18.5346 C   0  0  0  0  0  0  0  0  0  0  0  0
    8.0973   -0.6193   18.3298 H   0  0  0  0  0  0  0  0  0  0  0  0
    6.6801    0.0242   19.8444 C   0  0  0  0  0  0  0  0  0  0  0  0
    7.4068   -0.6664   20.9144 C   0  0  0  0  0  0  0  0  0  0  0  0
    8.3114   -1.6008   20.7372 N   0  0  0  0  0  0  0  0  0  0  0  0
    8.7964   -2.0017   21.9615 N   0  0  0  0  0  0  0  0  0  0  0  0
    8.1686   -1.2777   22.8494 C   0  0  0  0  0  0  0  0  0  0  0  0
    8.1998   -0.9893   24.5725 S   0  0  0  0  0  0  0  0  0  0  0  0
    6.9860    0.2782   24.3050 C   0  0  0  0  0  0  0  0  0  0  0  0
    6.4876    1.1062   25.3039 N   0  0  0  0  0  0  0  0  0  0  0  0
    6.7755    0.9478   26.6807 C   0  0  0  0  0  0  0  0  0  0  0  0
    6.3656   -0.2105   28.0407 C   0  0  0  0  0  0  0  0  0  0  0  0
    7.1771   -1.3766   27.5622 H   0  0  0  0  0  0  0  0  0  0  0  0
    6.4706   -0.5342   27.9626 C   0  0  0  0  0  0  0  0  0  0  0  0
    5.2787   -0.8727   28.0215 H   0  0  0  0  0  0  0  0  0  0  0  0
    7.1287    0.5111   29.2398 C   0  0  0  0  0  0  0  0  0  0  0  0
    6.6529    0.4098   30.2335 H   0  0  0  0  0  0  0  0  0  0  0  0
    7.6346    1.7553   28.8086 C   0  0  0  0  0  0  0  0  0  0  0  0
    8.1137    2.4947   29.4386 H   0  0  0  0  0  0  0  0  0  0  0  0
    7.3778    1.9541   27.3853 C   0  0  0  0  0  0  0  0  0  0  0  0
    7.6752    2.8781   26.8778 H   0  0  0  0  0  0  0  0  0  0  0  0
    5.8640    2.3732   24.8347 C   0  0  0  0  0  0  0  0  0  0  0  0
    5.4338    2.9021   25.6904 H   0  0  0  0  0  0  0  0  0  0  0  0
    5.0662    2.1872   24.1005 H   0  0  0  0  0  0  0  0  0  0  0  0
    6.5887    3.0390   24.3347 H   0  0  0  0  0  0  0  0  0  0  0  0
    6.6129    0.4544   23.0684 N   0  0  0  0  0  0  0  0  0  0  0  0
    7.2722   -0.4358   22.2700 N   0  0  0  0  0  0  0  0  0  0  0  0
    5.5081    0.7618   20.0665 C   0  0  0  0  0  0  0  0  0  0  0  0
    5.0991    0.8560   21.0731 H   0  0  0  0  0  0  0  0  0  0  0  0
    4.9054    1.3749   18.9702 C   0  0  0  0  0  0  0  0  0  0  0  0
    4.0053    1.9692   19.0806 H   0  0  0  0  0  0  0  0  0  0  0  0
  1  2  1  0
  2  3  2  0
  3  4  1  0
  4  5  1  0
  4  6  2  0
  6  7  1  0
  7  8  2  0
  8  9  1  0
  9 10  2  0
 10 11  1  0
 11 12  1  0
 12 13  1  0
 13 14  1  0
 14 15  2  0
 15 16  1  0
 15 17  1  0
 17 18  1  0
 17 19  2  0
 19 20  1  0
 19 21  1  0
 21 22  1  0
 21 23  2  0
 23 24  1  0
 13 25  1  0
 25 26  1  0
 25 27  1  0
 25 28  1  0
 12 29  2  0
 29 30  1  0
  6 31  1  0
 31 32  1  0
 31 33  2  0
 33 34  1  0
 33  2  1  0
 30  7  1  0
 30 10  1  0
 23 14  1  0
M  END
>  <cnnaffinity>  (1) 
-5.01991

>  <filename>  (1) 
CN(c1ccccc1)c1nn2c(-c3cccnc3)nnc2s1

$$$$
