
     RDKit          3D

 35 37  0  0  0  0  0  0  0  0999 V2000
    4.9298    1.7858   16.9920 H   0  0  0  0  0  0  0  0  0  0  0  0
    5.3967    1.2869   17.8391 C   0  0  0  0  0  0  0  0  0  0  0  0
    6.5632    0.6686   17.5980 N   0  0  0  0  0  0  0  0  0  0  0  0
    7.1760    0.0648   18.6246 C   0  0  0  0  0  0  0  0  0  0  0  0
    8.1273   -0.4053   18.3786 H   0  0  0  0  0  0  0  0  0  0  0  0
    6.6707    0.0506   19.9446 C   0  0  0  0  0  0  0  0  0  0  0  0
    7.3664   -0.6008   21.0203 N   0  0  0  0  0  0  0  0  0  0  0  0
    7.3275   -0.0224   22.2512 N   0  0  0  0  0  0  0  0  0  0  0  0
    7.9585   -0.5978   23.2574 C   0  0  0  0  0  0  0  0  0  0  0  0
    7.9385    0.0746   24.4822 N   0  0  0  0  0  0  0  0  0  0  0  0
    6.7979    0.8621   24.8224 C   0  0  0  0  0  0  0  0  0  0  0  0
    6.5360    2.0506   24.1277 C   0  0  0  0  0  0  0  0  0  0  0  0
    7.1950    2.3109   23.3067 H   0  0  0  0  0  0  0  0  0  0  0  0
    5.4313    2.8333   24.4708 C   0  0  0  0  0  0  0  0  0  0  0  0
    5.2277    3.7406   23.9056 H   0  0  0  0  0  0  0  0  0  0  0  0
    4.5857    2.4356   25.5126 C   0  0  0  0  0  0  0  0  0  0  0  0
    3.7236    3.0441   25.7704 H   0  0  0  0  0  0  0  0  0  0  0  0
    4.8552    1.2580   26.2210 C   0  0  0  0  0  0  0  0  0  0  0  0
    4.2114    0.9549   27.0436 H   0  0  0  0  0  0  0  0  0  0  0  0
    5.9655    0.4769   25.8825 C   0  0  0  0  0  0  0  0  0  0  0  0
    6.2031   -0.4352   26.4252 H   0  0  0  0  0  0  0  0  0  0  0  0
    8.9667   -0.1386   25.5035 C   0  0  0  0  0  0  0  0  0  0  0  0
    8.9912    0.7480   26.1425 H   0  0  0  0  0  0  0  0  0  0  0  0
    8.7804   -1.0390   26.1000 H   0  0  0  0  0  0  0  0  0  0  0  0
    9.9431   -0.2645   25.0227 H   0  0  0  0  0  0  0  0  0  0  0  0
    8.6650   -1.9507   23.1328 C   0  0  0  0  0  0  0  0  0  0  0  0
    9.2267   -2.5440   24.0528 O   0  0  0  0  0  0  0  0  0  0  0  0
    8.5944   -2.4930   21.7921 C   0  0  0  0  0  0  0  0  0  0  0  0
    9.0692   -3.4490   21.6350 H   0  0  0  0  0  0  0  0  0  0  0  0
    7.9485   -1.8109   20.8262 C   0  0  0  0  0  0  0  0  0  0  0  0
    7.7808   -2.1390   19.8192 H   0  0  0  0  0  0  0  0  0  0  0  0
    5.4390    0.6686   20.1727 C   0  0  0  0  0  0  0  0  0  0  0  0
    5.0377    0.6387   21.1840 H   0  0  0  0  0  0  0  0  0  0  0  0
    4.7990    1.3034   19.1047 C   0  0  0  0  0  0  0  0  0  0  0  0
    3.8685    1.8373   19.2508 H   0  0  0  0  0  0  0  0  0  0  0  0
  1  2  1  0
  2  3  2  0
  3  4  1  0
  4  5  1  0
  4  6  2  0
  6  7  1  0
  7  8  1  0
  8  9  2  0
  9 10  1  0
 10 11  1  0
 11 12  2  0
 12 13  1  0
 12 14  1  0
 14 15  1  0
 14 16  2  0
 16 17  1  0
 16 18  1  0
 18 19  1  0
 18 20  2  0
 20 21  1  0
 10 22  1  0
 22 23  1  0
 22 24  1  0
 22 25  1  0
  9 26  1  0
 26 27  2  0
 26 28  1  0
 28 29  1  0
 28 30  2  0
 30 31  1  0
  6 32  1  0
 32 33  1  0
 32 34  2  0
 34 35  1  0
 34  2  1  0
 30  7  1  0
 20 11  1  0
M  END
>  <cnnaffinity>  (1) 
-4.92992

>  <filename>  (1) 
CN(c1ccccc1)c1nn(-c2cccnc2)ccc1=O

$$$$
