
     RDKit          3D

 38 39  0  0  0  0  0  0  0  0999 V2000
    5.0090    1.8968   16.8776 H   0  0  0  0  0  0  0  0  0  0  0  0
    5.4186    1.3241   17.7083 C   0  0  0  0  0  0  0  0  0  0  0  0
    6.5394    0.6335   17.4519 N   0  0  0  0  0  0  0  0  0  0  0  0
    7.0708   -0.0722   18.4572 C   0  0  0  0  0  0  0  0  0  0  0  0
    7.9767   -0.6247   18.2105 H   0  0  0  0  0  0  0  0  0  0  0  0
    6.5348   -0.1391   19.7548 C   0  0  0  0  0  0  0  0  0  0  0  0
    7.2833   -0.8483   20.8690 C   0  0  0  0  0  0  0  0  0  0  0  0
    7.7534   -1.7618   20.4865 H   0  0  0  0  0  0  0  0  0  0  0  0
    6.5696   -1.1809   21.6373 H   0  0  0  0  0  0  0  0  0  0  0  0
    8.3354    0.0363   21.4986 C   0  0  0  0  0  0  0  0  0  0  0  0
    9.6902    0.2009   21.1168 C   0  0  0  0  0  0  0  0  0  0  0  0
   10.2621   -0.3834   20.4086 H   0  0  0  0  0  0  0  0  0  0  0  0
   10.2826    1.2029   21.7655 N   0  0  0  0  0  0  0  0  0  0  0  0
    9.3168    1.6579   22.5812 N   0  0  0  0  0  0  0  0  0  0  0  0
    9.5015    2.4199   23.2185 H   0  0  0  0  0  0  0  0  0  0  0  0
    8.1464    0.9796   22.4950 C   0  0  0  0  0  0  0  0  0  0  0  0
    7.0348    1.1670   23.4909 C   0  0  0  0  0  0  0  0  0  0  0  0
    6.0852    1.2855   22.9530 H   0  0  0  0  0  0  0  0  0  0  0  0
    7.2121    2.0997   24.0454 H   0  0  0  0  0  0  0  0  0  0  0  0
    6.9256    0.0128   24.5232 C   0  0  0  0  0  0  0  0  0  0  0  0
    6.5947   -0.9150   24.0389 H   0  0  0  0  0  0  0  0  0  0  0  0
    6.1366    0.2634   25.2437 H   0  0  0  0  0  0  0  0  0  0  0  0
    8.2411   -0.2865   25.2646 C   0  0  0  0  0  0  0  0  0  0  0  0
    8.0727   -1.0744   26.0263 H   0  0  0  0  0  0  0  0  0  0  0  0
    8.9506   -0.7188   24.5463 H   0  0  0  0  0  0  0  0  0  0  0  0
    8.8164    0.9313   25.8434 N   0  0  0  0  0  0  0  0  0  0  0  0
    8.1568    1.3178   27.0855 C   0  0  0  0  0  0  0  0  0  0  0  0
    7.0689    1.2564   26.9846 H   0  0  0  0  0  0  0  0  0  0  0  0
    8.4131    2.3542   27.3314 H   0  0  0  0  0  0  0  0  0  0  0  0
    8.4262    0.6688   27.9429 H   0  0  0  0  0  0  0  0  0  0  0  0
   10.2649    0.9189   25.9911 C   0  0  0  0  0  0  0  0  0  0  0  0
   10.6312    0.3120   26.8426 H   0  0  0  0  0  0  0  0  0  0  0  0
   10.7434    0.5526   25.0765 H   0  0  0  0  0  0  0  0  0  0  0  0
   10.6370    1.9373   26.1276 H   0  0  0  0  0  0  0  0  0  0  0  0
    5.3469    0.5672   19.9862 C   0  0  0  0  0  0  0  0  0  0  0  0
    4.8681    0.5359   20.9674 H   0  0  0  0  0  0  0  0  0  0  0  0
    4.7809    1.3115   18.9502 C   0  0  0  0  0  0  0  0  0  0  0  0
    3.8725    1.8870   19.0934 H   0  0  0  0  0  0  0  0  0  0  0  0
  1  2  1  0
  2  3  2  0
  3  4  1  0
  4  5  1  0
  4  6  2  0
  6  7  1  0
  7  8  1  0
  7  9  1  0
  7 10  1  0
 10 11  1  0
 11 12  1  0
 11 13  2  0
 13 14  1  0
 14 15  1  0
 14 16  1  0
 16 17  1  0
 17 18  1  0
 17 19  1  0
 17 20  1  0
 20 21  1  0
 20 22  1  0
 20 23  1  0
 23 24  1  0
 23 25  1  0
 23 26  1  0
 26 27  1  0
 27 28  1  0
 27 29  1  0
 27 30  1  0
 26 31  1  0
 31 32  1  0
 31 33  1  0
 31 34  1  0
  6 35  1  0
 35 36  1  0
 35 37  2  0
 37 38  1  0
 37  2  1  0
 16 10  2  0
M  END
>  <cnnaffinity>  (1) 
-4.88297

>  <filename>  (1) 
CN(C)CCCc1[nH]ncc1Cc1cccnc1

$$$$
