
     RDKit          3D

 32 33  0  0  0  0  0  0  0  0999 V2000
    5.1443    1.7525   17.0623 H   0  0  0  0  0  0  0  0  0  0  0  0
    5.6026    1.2806   17.9292 C   0  0  0  0  0  0  0  0  0  0  0  0
    6.7520    0.6275   17.7091 N   0  0  0  0  0  0  0  0  0  0  0  0
    7.3355    0.0260   18.7408 C   0  0  0  0  0  0  0  0  0  0  0  0
    8.2487   -0.5226   18.5221 H   0  0  0  0  0  0  0  0  0  0  0  0
    6.7986    0.0776   20.0229 C   0  0  0  0  0  0  0  0  0  0  0  0
    7.6576   -0.8412   21.2518 S   0  0  0  0  0  0  0  0  0  0  0  0
    8.3787   -1.8976   20.5477 O   0  0  0  0  0  0  0  0  0  0  0  0
    6.6923   -1.1426   22.3052 O   0  0  0  0  0  0  0  0  0  0  0  0
    8.9025    0.3247   21.9810 C   0  0  0  0  0  0  0  0  0  0  0  0
    9.4378    0.7401   21.1260 H   0  0  0  0  0  0  0  0  0  0  0  0
    8.2361    1.0779   22.4207 H   0  0  0  0  0  0  0  0  0  0  0  0
    9.8667   -0.1366   22.9407 N   0  0  0  0  0  0  0  0  0  0  0  0
   11.1874   -0.4811   22.5171 C   0  0  0  0  0  0  0  0  0  0  0  0
   12.2779   -0.0208   23.2731 C   0  0  0  0  0  0  0  0  0  0  0  0
   12.0772    0.6311   24.1172 H   0  0  0  0  0  0  0  0  0  0  0  0
   13.5831   -0.3875   22.9274 C   0  0  0  0  0  0  0  0  0  0  0  0
   14.4300   -0.0565   23.5268 H   0  0  0  0  0  0  0  0  0  0  0  0
   13.7861   -1.2583   21.8545 C   0  0  0  0  0  0  0  0  0  0  0  0
   14.7851   -1.6006   21.6132 H   0  0  0  0  0  0  0  0  0  0  0  0
   12.7065   -1.7236   21.1001 C   0  0  0  0  0  0  0  0  0  0  0  0
   12.8865   -2.4075   20.2735 H   0  0  0  0  0  0  0  0  0  0  0  0
   11.4008   -1.3345   21.4203 C   0  0  0  0  0  0  0  0  0  0  0  0
   10.5376   -1.6953   20.8681 H   0  0  0  0  0  0  0  0  0  0  0  0
    9.4146   -0.7812   24.1751 C   0  0  0  0  0  0  0  0  0  0  0  0
    9.8404   -0.2957   25.0638 H   0  0  0  0  0  0  0  0  0  0  0  0
    8.3197   -0.7509   24.2244 H   0  0  0  0  0  0  0  0  0  0  0  0
    9.7385   -1.8314   24.1957 H   0  0  0  0  0  0  0  0  0  0  0  0
    5.5882    0.7323   20.2712 C   0  0  0  0  0  0  0  0  0  0  0  0
    5.1152    0.7372   21.2572 H   0  0  0  0  0  0  0  0  0  0  0  0
    4.9858    1.3537   19.1830 C   0  0  0  0  0  0  0  0  0  0  0  0
    4.0536    1.8979   19.2873 H   0  0  0  0  0  0  0  0  0  0  0  0
  1  2  1  0
  2  3  2  0
  3  4  1  0
  4  5  1  0
  4  6  2  0
  6  7  1  0
  7  8  2  0
  7  9  2  0
  7 10  1  0
 10 11  1  0
 10 12  1  0
 10 13  1  0
 13 14  1  0
 14 15  2  0
 15 16  1  0
 15 17  1  0
 17 18  1  0
 17 19  2  0
 19 20  1  0
 19 21  1  0
 21 22  1  0
 21 23  2  0
 23 24  1  0
 13 25  1  0
 25 26  1  0
 25 27  1  0
 25 28  1  0
  6 29  1  0
 29 30  1  0
 29 31  2  0
 31 32  1  0
 31  2  1  0
 23 14  1  0
M  END
>  <cnnaffinity>  (1) 
-4.88729

>  <filename>  (1) 
CN(CS(=O)(=O)c1cccnc1)c1ccccc1

$$$$
