
     RDKit          3D

 26 27  0  0  0  0  0  0  0  0999 V2000
    5.0050    1.7452   17.0434 H   0  0  0  0  0  0  0  0  0  0  0  0
    5.4584    1.2475   17.8938 C   0  0  0  0  0  0  0  0  0  0  0  0
    6.6237    0.6160   17.6626 N   0  0  0  0  0  0  0  0  0  0  0  0
    7.2185    0.0065   18.6962 C   0  0  0  0  0  0  0  0  0  0  0  0
    8.1651   -0.4971   18.4945 H   0  0  0  0  0  0  0  0  0  0  0  0
    6.6766    0.0140   19.9967 C   0  0  0  0  0  0  0  0  0  0  0  0
    7.3611   -0.6836   20.9978 O   0  0  0  0  0  0  0  0  0  0  0  0
    7.2892   -0.3277   22.3124 C   0  0  0  0  0  0  0  0  0  0  0  0
    6.8026    0.7025   22.7251 O   0  0  0  0  0  0  0  0  0  0  0  0
    7.8109   -1.3244   23.1081 N   0  0  0  0  0  0  0  0  0  0  0  0
    7.7546   -1.1290   24.4854 C   0  0  0  0  0  0  0  0  0  0  0  0
    8.6443   -1.5764   25.3231 N   0  0  0  0  0  0  0  0  0  0  0  0
    8.1930   -1.1881   26.5594 C   0  0  0  0  0  0  0  0  0  0  0  0
    8.7428   -1.4341   27.4580 H   0  0  0  0  0  0  0  0  0  0  0  0
    7.0051   -0.5210   26.4508 C   0  0  0  0  0  0  0  0  0  0  0  0
    6.3546   -0.0870   27.1955 H   0  0  0  0  0  0  0  0  0  0  0  0
    6.7227   -0.5067   25.0982 N   0  0  0  0  0  0  0  0  0  0  0  0
    6.0760    0.0316   24.5458 H   0  0  0  0  0  0  0  0  0  0  0  0
    8.6239   -2.4525   22.6286 C   0  0  0  0  0  0  0  0  0  0  0  0
    8.6664   -3.2058   23.4218 H   0  0  0  0  0  0  0  0  0  0  0  0
    9.6469   -2.1298   22.4069 H   0  0  0  0  0  0  0  0  0  0  0  0
    8.1783   -2.9042   21.7418 H   0  0  0  0  0  0  0  0  0  0  0  0
    5.4524    0.6501   20.2266 C   0  0  0  0  0  0  0  0  0  0  0  0
    5.0345    0.6661   21.2301 H   0  0  0  0  0  0  0  0  0  0  0  0
    4.8305    1.2767   19.1441 C   0  0  0  0  0  0  0  0  0  0  0  0
    3.8873    1.8063   19.2754 H   0  0  0  0  0  0  0  0  0  0  0  0
  1  2  1  0
  2  3  2  0
  3  4  1  0
  4  5  1  0
  4  6  2  0
  6  7  1  0
  7  8  1  0
  8  9  2  0
  8 10  1  0
 10 11  1  0
 11 12  2  0
 12 13  1  0
 13 14  1  0
 13 15  2  0
 15 16  1  0
 15 17  1  0
 17 18  1  0
 10 19  1  0
 19 20  1  0
 19 21  1  0
 19 22  1  0
  6 23  1  0
 23 24  1  0
 23 25  2  0
 25 26  1  0
 25  2  1  0
 17 11  1  0
M  END
>  <cnnaffinity>  (1) 
-4.03599

>  <filename>  (1) 
CN(C(=O)Oc1cccnc1)c1ncc[nH]1

$$$$
