
     RDKit          3D

 38 39  0  0  0  0  0  0  0  0999 V2000
    5.6585   -1.6490   21.7159 H   0  0  0  0  0  0  0  0  0  0  0  0
    6.7304   -1.6084   21.6519 C   0  0  0  0  0  0  0  0  0  0  0  0
    7.3717   -0.7846   20.8184 C   0  0  0  0  0  0  0  0  0  0  0  0
    6.7101    0.0494   19.8095 C   0  0  0  0  0  0  0  0  0  0  0  0
    7.2368    0.1250   18.5079 C   0  0  0  0  0  0  0  0  0  0  0  0
    8.1801   -0.3679   18.2728 H   0  0  0  0  0  0  0  0  0  0  0  0
    6.6256    0.7464   17.4955 N   0  0  0  0  0  0  0  0  0  0  0  0
    5.4624    1.3611   17.7595 C   0  0  0  0  0  0  0  0  0  0  0  0
    4.9893    1.8607   16.9186 H   0  0  0  0  0  0  0  0  0  0  0  0
    4.8602    1.3730   19.0237 C   0  0  0  0  0  0  0  0  0  0  0  0
    3.9196    1.8910   19.1676 H   0  0  0  0  0  0  0  0  0  0  0  0
    5.4906    0.7008   20.0701 C   0  0  0  0  0  0  0  0  0  0  0  0
    5.0604    0.6855   21.0742 H   0  0  0  0  0  0  0  0  0  0  0  0
    8.7716   -0.7512   20.8647 N   0  0  0  0  0  0  0  0  0  0  0  0
    9.2838    0.0328   20.5013 H   0  0  0  0  0  0  0  0  0  0  0  0
    9.5094   -1.4092   21.7913 C   0  0  0  0  0  0  0  0  0  0  0  0
   11.0917   -1.0333   22.0818 S   0  0  0  0  0  0  0  0  0  0  0  0
    8.8812   -2.3927   22.4824 N   0  0  0  0  0  0  0  0  0  0  0  0
    9.4047   -2.5412   23.3281 H   0  0  0  0  0  0  0  0  0  0  0  0
    7.4547   -2.2879   22.7493 C   0  0  1  0  0  0  0  0  0  0  0  0
    7.0475   -3.2981   22.9040 H   0  0  0  0  0  0  0  0  0  0  0  0
    7.3436   -1.4780   23.9357 N   0  0  0  0  0  0  0  0  0  0  0  0
    8.1127   -0.8267   23.8897 H   0  0  0  0  0  0  0  0  0  0  0  0
    7.2328   -2.1618   25.2175 C   0  0  0  0  0  0  0  0  0  0  0  0
    7.3089   -1.4009   26.0009 H   0  0  0  0  0  0  0  0  0  0  0  0
    8.0488   -2.8854   25.4185 H   0  0  0  0  0  0  0  0  0  0  0  0
    5.8704   -2.8927   25.3528 C   0  0  0  0  0  0  0  0  0  0  0  0
    5.7435   -3.5761   24.4983 H   0  0  0  0  0  0  0  0  0  0  0  0
    5.0703   -2.1465   25.2484 H   0  0  0  0  0  0  0  0  0  0  0  0
    5.6724   -3.6608   26.5798 N   0  0  0  0  0  0  0  0  0  0  0  0
    5.5436   -2.8387   27.7662 C   0  0  0  0  0  0  0  0  0  0  0  0
    4.6431   -2.2192   27.6834 H   0  0  0  0  0  0  0  0  0  0  0  0
    5.4194   -3.4762   28.6488 H   0  0  0  0  0  0  0  0  0  0  0  0
    6.3911   -2.1548   27.9466 H   0  0  0  0  0  0  0  0  0  0  0  0
    6.5715   -4.7943   26.7010 C   0  0  0  0  0  0  0  0  0  0  0  0
    6.4755   -5.4078   25.7976 H   0  0  0  0  0  0  0  0  0  0  0  0
    6.2814   -5.4142   27.5562 H   0  0  0  0  0  0  0  0  0  0  0  0
    7.6403   -4.5376   26.8196 H   0  0  0  0  0  0  0  0  0  0  0  0
  1  2  1  0
  2  3  2  0
  3  4  1  0
  4  5  2  0
  5  6  1  0
  5  7  1  0
  7  8  2  0
  8  9  1  0
  8 10  1  0
 10 11  1  0
 10 12  2  0
 12 13  1  0
  3 14  1  0
 14 15  1  0
 14 16  1  0
 16 17  2  0
 16 18  1  0
 18 19  1  0
 18 20  1  0
 20 21  1  1
 20 22  1  0
 22 23  1  0
 22 24  1  0
 24 25  1  0
 24 26  1  0
 24 27  1  0
 27 28  1  0
 27 29  1  0
 27 30  1  0
 30 31  1  0
 31 32  1  0
 31 33  1  0
 31 34  1  0
 30 35  1  0
 35 36  1  0
 35 37  1  0
 35 38  1  0
 20  2  1  0
 12  4  1  0
M  END
>  <cnnaffinity>  (1) 
-4.75221

>  <filename>  (1) 
CN(C)CCN[C@H]1C=C(c2cccnc2)NC(=S)N1

$$$$
