
     RDKit          3D

 35 37  0  0  0  0  0  0  0  0999 V2000
    4.9147    1.7769   17.0005 H   0  0  0  0  0  0  0  0  0  0  0  0
    5.4023    1.2923   17.8453 C   0  0  0  0  0  0  0  0  0  0  0  0
    6.5651    0.6715   17.5881 N   0  0  0  0  0  0  0  0  0  0  0  0
    7.1721    0.0479   18.6050 C   0  0  0  0  0  0  0  0  0  0  0  0
    8.1243   -0.4266   18.3818 H   0  0  0  0  0  0  0  0  0  0  0  0
    6.6413   -0.0227   19.9088 C   0  0  0  0  0  0  0  0  0  0  0  0
    7.3249   -0.7249   20.9540 N   0  0  0  0  0  0  0  0  0  0  0  0
    6.5571   -1.6416   21.6638 N   0  0  0  0  0  0  0  0  0  0  0  0
    7.1252   -2.3073   22.6524 C   0  0  0  0  0  0  0  0  0  0  0  0
    6.3709   -3.2568   23.3502 N   0  0  0  0  0  0  0  0  0  0  0  0
    6.6742   -3.6251   24.7012 C   0  0  0  0  0  0  0  0  0  0  0  0
    6.8693   -2.6497   25.6952 C   0  0  0  0  0  0  0  0  0  0  0  0
    6.7948   -1.5988   25.4292 H   0  0  0  0  0  0  0  0  0  0  0  0
    7.1678   -3.0245   27.0093 C   0  0  0  0  0  0  0  0  0  0  0  0
    7.3318   -2.2477   27.7498 H   0  0  0  0  0  0  0  0  0  0  0  0
    7.2675   -4.3756   27.3601 C   0  0  0  0  0  0  0  0  0  0  0  0
    7.5012   -4.6628   28.3839 H   0  0  0  0  0  0  0  0  0  0  0  0
    7.0611   -5.3543   26.3813 C   0  0  0  0  0  0  0  0  0  0  0  0
    7.1303   -6.4078   26.6496 H   0  0  0  0  0  0  0  0  0  0  0  0
    6.7564   -4.9826   25.0645 C   0  0  0  0  0  0  0  0  0  0  0  0
    6.5993   -5.7459   24.3088 H   0  0  0  0  0  0  0  0  0  0  0  0
    5.1138   -3.7124   22.7632 C   0  0  0  0  0  0  0  0  0  0  0  0
    5.2644   -4.0397   21.7316 H   0  0  0  0  0  0  0  0  0  0  0  0
    4.6936   -4.5435   23.3355 H   0  0  0  0  0  0  0  0  0  0  0  0
    4.3576   -2.9271   22.7393 H   0  0  0  0  0  0  0  0  0  0  0  0
    8.5281   -2.1205   22.9695 C   0  0  0  0  0  0  0  0  0  0  0  0
    8.9696   -2.7174   23.7650 H   0  0  0  0  0  0  0  0  0  0  0  0
    9.2707   -1.2171   22.2808 C   0  0  0  0  0  0  0  0  0  0  0  0
   10.3180   -1.0121   22.4727 H   0  0  0  0  0  0  0  0  0  0  0  0
    8.7073   -0.4070   21.2064 C   0  0  0  0  0  0  0  0  0  0  0  0
    9.3259    0.4321   20.5713 O   0  0  0  0  0  0  0  0  0  0  0  0
    5.4361    0.6393   20.1678 C   0  0  0  0  0  0  0  0  0  0  0  0
    5.0143    0.6126   21.1717 H   0  0  0  0  0  0  0  0  0  0  0  0
    4.8099    1.3142   19.1136 C   0  0  0  0  0  0  0  0  0  0  0  0
    3.8749    1.8453   19.2647 H   0  0  0  0  0  0  0  0  0  0  0  0
  1  2  1  0
  2  3  2  0
  3  4  1  0
  4  5  1  0
  4  6  2  0
  6  7  1  0
  7  8  1  0
  8  9  2  0
  9 10  1  0
 10 11  1  0
 11 12  2  0
 12 13  1  0
 12 14  1  0
 14 15  1  0
 14 16  2  0
 16 17  1  0
 16 18  1  0
 18 19  1  0
 18 20  2  0
 20 21  1  0
 10 22  1  0
 22 23  1  0
 22 24  1  0
 22 25  1  0
  9 26  1  0
 26 27  1  0
 26 28  2  0
 28 29  1  0
 28 30  1  0
 30 31  2  0
  6 32  1  0
 32 33  1  0
 32 34  2  0
 34 35  1  0
 34  2  1  0
 30  7  1  0
 20 11  1  0
M  END
>  <cnnaffinity>  (1) 
-5.20134

>  <filename>  (1) 
CN(c1ccccc1)c1ccc(=O)n(-c2cccnc2)n1

$$$$
