
     RDKit          3D

 32 33  0  0  0  0  0  0  0  0999 V2000
    4.9806    1.7597   16.9852 H   0  0  0  0  0  0  0  0  0  0  0  0
    5.4256    1.2793   17.8559 C   0  0  0  0  0  0  0  0  0  0  0  0
    6.5955    0.6531   17.6486 N   0  0  0  0  0  0  0  0  0  0  0  0
    7.1813    0.0606   18.7004 C   0  0  0  0  0  0  0  0  0  0  0  0
    8.1272   -0.4461   18.5027 H   0  0  0  0  0  0  0  0  0  0  0  0
    6.6326    0.0653   19.9880 C   0  0  0  0  0  0  0  0  0  0  0  0
    7.3004   -0.6359   21.1042 C   0  0  0  0  0  0  0  0  0  0  0  0
    8.0954   -2.0642   21.0082 S   0  0  0  0  0  0  0  0  0  0  0  0
    7.1814   -0.0585   22.3442 N   0  0  0  0  0  0  0  0  0  0  0  0
    7.5685   -0.6477   23.0617 H   0  0  0  0  0  0  0  0  0  0  0  0
    7.4079    1.3079   22.5699 C   0  0  0  0  0  0  0  0  0  0  0  0
    7.7909    2.0430   21.6878 O   0  0  0  0  0  0  0  0  0  0  0  0
    7.1323    1.6970   23.8661 N   0  0  0  0  0  0  0  0  0  0  0  0
    7.1056    3.1028   24.1472 C   0  0  0  0  0  0  0  0  0  0  0  0
    6.3511    3.9828   23.3558 C   0  0  0  0  0  0  0  0  0  0  0  0
    5.8006    3.5970   22.5047 H   0  0  0  0  0  0  0  0  0  0  0  0
    6.3360    5.3486   23.6496 C   0  0  0  0  0  0  0  0  0  0  0  0
    5.7560    6.0276   23.0255 H   0  0  0  0  0  0  0  0  0  0  0  0
    7.0809    5.8415   24.7280 C   0  0  0  0  0  0  0  0  0  0  0  0
    7.0858    6.9062   24.9404 H   0  0  0  0  0  0  0  0  0  0  0  0
    7.8276    4.9650   25.5245 C   0  0  0  0  0  0  0  0  0  0  0  0
    8.4013    5.3388   26.3690 H   0  0  0  0  0  0  0  0  0  0  0  0
    7.8245    3.5962   25.2405 C   0  0  0  0  0  0  0  0  0  0  0  0
    8.3774    2.8898   25.8523 H   0  0  0  0  0  0  0  0  0  0  0  0
    6.7814    0.7645   24.9380 C   0  0  0  0  0  0  0  0  0  0  0  0
    6.0064    0.0594   24.6168 H   0  0  0  0  0  0  0  0  0  0  0  0
    6.3817    1.3421   25.7749 H   0  0  0  0  0  0  0  0  0  0  0  0
    7.6433    0.1800   25.2923 H   0  0  0  0  0  0  0  0  0  0  0  0
    5.3953    0.7065   20.1785 C   0  0  0  0  0  0  0  0  0  0  0  0
    4.9167    0.6970   21.1589 H   0  0  0  0  0  0  0  0  0  0  0  0
    4.7823    1.3319   19.0971 C   0  0  0  0  0  0  0  0  0  0  0  0
    3.8317    1.8468   19.2025 H   0  0  0  0  0  0  0  0  0  0  0  0
  1  2  1  0
  2  3  2  0
  3  4  1  0
  4  5  1  0
  4  6  2  0
  6  7  1  0
  7  8  2  0
  7  9  1  0
  9 10  1  0
  9 11  1  0
 11 12  2  0
 11 13  1  0
 13 14  1  0
 14 15  2  0
 15 16  1  0
 15 17  1  0
 17 18  1  0
 17 19  2  0
 19 20  1  0
 19 21  1  0
 21 22  1  0
 21 23  2  0
 23 24  1  0
 13 25  1  0
 25 26  1  0
 25 27  1  0
 25 28  1  0
  6 29  1  0
 29 30  1  0
 29 31  2  0
 31 32  1  0
 31  2  1  0
 23 14  1  0
M  END
>  <cnnaffinity>  (1) 
-4.79286

>  <filename>  (1) 
CN(C(=O)NC(=S)c1cccnc1)c1ccccc1

$$$$
