
     RDKit          3D

 37 39  0  0  0  0  0  0  0  0999 V2000
    4.9565    1.9785   16.7040 H   0  0  0  0  0  0  0  0  0  0  0  0
    5.3715    1.5020   17.5895 C   0  0  0  0  0  0  0  0  0  0  0  0
    6.5391    0.8690   17.4164 N   0  0  0  0  0  0  0  0  0  0  0  0
    7.0850    0.2781   18.4804 C   0  0  0  0  0  0  0  0  0  0  0  0
    8.0292   -0.2201   18.2674 H   0  0  0  0  0  0  0  0  0  0  0  0
    6.5237    0.2778   19.7731 C   0  0  0  0  0  0  0  0  0  0  0  0
    7.1923   -0.4327   20.8994 C   0  0  0  0  0  0  0  0  0  0  0  0
    6.9245   -0.1136   22.1334 N   0  0  0  0  0  0  0  0  0  0  0  0
    7.4785   -0.8891   23.1429 N   0  0  0  0  0  0  0  0  0  0  0  0
    7.2555   -0.4221   24.4060 N   0  0  0  0  0  0  0  0  0  0  0  0
    8.3539   -0.3201   25.2961 C   0  0  0  0  0  0  0  0  0  0  0  0
    8.2551   -0.7751   26.6255 C   0  0  0  0  0  0  0  0  0  0  0  0
    7.3250   -1.2318   26.9613 H   0  0  0  0  0  0  0  0  0  0  0  0
    9.3505   -0.6441   27.4822 C   0  0  0  0  0  0  0  0  0  0  0  0
    9.2884   -0.9669   28.5180 H   0  0  0  0  0  0  0  0  0  0  0  0
   10.5219   -0.0438   27.0180 C   0  0  0  0  0  0  0  0  0  0  0  0
   11.3235    0.1811   27.7100 H   0  0  0  0  0  0  0  0  0  0  0  0
   10.6263    0.4181   25.7072 C   0  0  0  0  0  0  0  0  0  0  0  0
   11.5364    0.9141   25.3855 H   0  0  0  0  0  0  0  0  0  0  0  0
    9.5485    0.2695   24.8396 C   0  0  0  0  0  0  0  0  0  0  0  0
    9.5923    0.6327   23.8175 H   0  0  0  0  0  0  0  0  0  0  0  0
    5.9217    0.0217   24.7750 C   0  0  0  0  0  0  0  0  0  0  0  0
    5.4762    0.5851   23.9518 H   0  0  0  0  0  0  0  0  0  0  0  0
    6.0235    0.6853   25.6371 H   0  0  0  0  0  0  0  0  0  0  0  0
    5.2788   -0.8256   25.0493 H   0  0  0  0  0  0  0  0  0  0  0  0
    8.2590   -2.1245   22.9962 C   0  0  0  0  0  0  0  0  0  0  0  0
    8.3247   -2.9666   23.8541 O   0  0  0  0  0  0  0  0  0  0  0  0
    8.9832   -2.0824   21.6882 C   0  0  0  0  0  0  0  0  0  0  0  0
    9.8505   -1.4146   21.7993 H   0  0  0  0  0  0  0  0  0  0  0  0
    9.3814   -3.0760   21.4895 H   0  0  0  0  0  0  0  0  0  0  0  0
    8.0593   -1.6167   20.5733 C   0  0  0  0  0  0  0  0  0  0  0  0
    7.3710   -2.4321   20.3124 H   0  0  0  0  0  0  0  0  0  0  0  0
    8.6607   -1.4173   19.6811 H   0  0  0  0  0  0  0  0  0  0  0  0
    5.2860    0.9345   19.9260 C   0  0  0  0  0  0  0  0  0  0  0  0
    4.7837    0.9519   20.8932 H   0  0  0  0  0  0  0  0  0  0  0  0
    4.7089    1.5527   18.8182 C   0  0  0  0  0  0  0  0  0  0  0  0
    3.7700    2.0896   18.8885 H   0  0  0  0  0  0  0  0  0  0  0  0
  1  2  1  0
  2  3  2  0
  3  4  1  0
  4  5  1  0
  4  6  2  0
  6  7  1  0
  7  8  2  0
  8  9  1  0
  9 10  1  0
 10 11  1  0
 11 12  2  0
 12 13  1  0
 12 14  1  0
 14 15  1  0
 14 16  2  0
 16 17  1  0
 16 18  1  0
 18 19  1  0
 18 20  2  0
 20 21  1  0
 10 22  1  0
 22 23  1  0
 22 24  1  0
 22 25  1  0
  9 26  1  0
 26 27  2  0
 26 28  1  0
 28 29  1  0
 28 30  1  0
 28 31  1  0
 31 32  1  0
 31 33  1  0
  6 34  1  0
 34 35  1  0
 34 36  2  0
 36 37  1  0
 36  2  1  0
 31  7  1  0
 20 11  1  0
M  END
>  <cnnaffinity>  (1) 
-5.11255

>  <filename>  (1) 
CN(c1ccccc1)N1N=C(c2cccnc2)CCC1=O

$$$$
