
     RDKit          3D

 34 34  0  0  0  0  0  0  0  0999 V2000
    5.0176    1.7388   16.9785 H   0  0  0  0  0  0  0  0  0  0  0  0
    5.4541    1.2525   17.8498 C   0  0  0  0  0  0  0  0  0  0  0  0
    6.6070    0.6079   17.6324 N   0  0  0  0  0  0  0  0  0  0  0  0
    7.1659   -0.0051   18.6774 C   0  0  0  0  0  0  0  0  0  0  0  0
    8.1055   -0.5201   18.4883 H   0  0  0  0  0  0  0  0  0  0  0  0
    6.6203   -0.0128   19.9599 C   0  0  0  0  0  0  0  0  0  0  0  0
    7.4429   -0.6184   21.0165 C   0  0  0  0  0  0  0  0  0  0  0  0
    9.0610   -0.4311   21.1692 S   0  0  0  0  0  0  0  0  0  0  0  0
    6.7500   -1.3784   21.9231 N   0  0  0  0  0  0  0  0  0  0  0  0
    7.2329   -1.5082   22.7951 H   0  0  0  0  0  0  0  0  0  0  0  0
    5.9349   -2.4459   21.5500 C   0  0  0  0  0  0  0  0  0  0  0  0
    5.7361   -2.7424   20.3964 O   0  0  0  0  0  0  0  0  0  0  0  0
    5.2966   -3.1492   22.7368 C   0  0  0  0  0  0  0  0  0  0  0  0
    5.4797   -2.5419   23.6321 H   0  0  0  0  0  0  0  0  0  0  0  0
    4.2200   -3.1335   22.5274 H   0  0  0  0  0  0  0  0  0  0  0  0
    5.6982   -4.6007   23.0607 C   0  0  0  0  0  0  0  0  0  0  0  0
    5.5775   -5.2490   22.1862 H   0  0  0  0  0  0  0  0  0  0  0  0
    6.7555   -4.6639   23.3575 H   0  0  0  0  0  0  0  0  0  0  0  0
    4.8276   -5.1233   24.2147 C   0  0  0  0  0  0  0  0  0  0  0  0
    4.9104   -4.4090   25.0432 H   0  0  0  0  0  0  0  0  0  0  0  0
    3.7538   -5.1063   23.9218 H   0  0  0  0  0  0  0  0  0  0  0  0
    5.2437   -6.4326   24.6920 N   0  0  0  0  0  0  0  0  0  0  0  0
    4.9373   -6.6742   26.0933 C   0  0  0  0  0  0  0  0  0  0  0  0
    3.8620   -6.7955   26.3243 H   0  0  0  0  0  0  0  0  0  0  0  0
    5.3096   -5.8448   26.7048 H   0  0  0  0  0  0  0  0  0  0  0  0
    5.4572   -7.5690   26.4486 H   0  0  0  0  0  0  0  0  0  0  0  0
    4.8263   -7.5073   23.8102 C   0  0  0  0  0  0  0  0  0  0  0  0
    5.2752   -8.4532   24.1265 H   0  0  0  0  0  0  0  0  0  0  0  0
    3.7287   -7.6464   23.7615 H   0  0  0  0  0  0  0  0  0  0  0  0
    5.1766   -7.3024   22.7934 H   0  0  0  0  0  0  0  0  0  0  0  0
    5.3865    0.6261   20.1746 C   0  0  0  0  0  0  0  0  0  0  0  0
    4.9018    0.6202   21.1570 H   0  0  0  0  0  0  0  0  0  0  0  0
    4.8043    1.2839   19.0914 C   0  0  0  0  0  0  0  0  0  0  0  0
    3.8693    1.8235   19.1809 H   0  0  0  0  0  0  0  0  0  0  0  0
  1  2  1  0
  2  3  2  0
  3  4  1  0
  4  5  1  0
  4  6  2  0
  6  7  1  0
  7  8  2  0
  7  9  1  0
  9 10  1  0
  9 11  1  0
 11 12  2  0
 11 13  1  0
 13 14  1  0
 13 15  1  0
 13 16  1  0
 16 17  1  0
 16 18  1  0
 16 19  1  0
 19 20  1  0
 19 21  1  0
 19 22  1  0
 22 23  1  0
 23 24  1  0
 23 25  1  0
 23 26  1  0
 22 27  1  0
 27 28  1  0
 27 29  1  0
 27 30  1  0
  6 31  1  0
 31 32  1  0
 31 33  2  0
 33 34  1  0
 33  2  1  0
M  END
>  <cnnaffinity>  (1) 
-4.54814

>  <filename>  (1) 
CN(C)CCCC(=O)NC(=S)c1cccnc1

$$$$
