
     RDKit          3D

 40 42  0  0  0  0  0  0  0  0999 V2000
    4.9246    1.8016   17.0309 H   0  0  0  0  0  0  0  0  0  0  0  0
    5.4085    1.2876   17.8583 C   0  0  0  0  0  0  0  0  0  0  0  0
    6.5681    0.6737   17.5663 N   0  0  0  0  0  0  0  0  0  0  0  0
    7.2033    0.0487   18.5642 C   0  0  0  0  0  0  0  0  0  0  0  0
    8.1598   -0.4158   18.3418 H   0  0  0  0  0  0  0  0  0  0  0  0
    6.7121   -0.0326   19.8926 C   0  0  0  0  0  0  0  0  0  0  0  0
    7.4006   -0.7307   20.9156 N   0  0  0  0  0  0  0  0  0  0  0  0
    6.8698   -1.1287   21.6748 H   0  0  0  0  0  0  0  0  0  0  0  0
    8.7680   -0.7615   21.0978 C   0  0  0  0  0  0  0  0  0  0  0  0
    9.5210   -0.0245   20.4872 O   0  0  0  0  0  0  0  0  0  0  0  0
    9.2155   -1.7158   22.0126 N   0  0  0  0  0  0  0  0  0  0  0  0
    8.4759   -2.8831   22.3828 C   0  0  0  0  0  0  0  0  0  0  0  0
    7.7190   -3.6009   21.4407 C   0  0  0  0  0  0  0  0  0  0  0  0
    7.5439   -3.1505   20.4787 H   0  0  0  0  0  0  0  0  0  0  0  0
    7.1212   -4.8134   21.7896 C   0  0  0  0  0  0  0  0  0  0  0  0
    6.5993   -5.4123   21.0459 H   0  0  0  0  0  0  0  0  0  0  0  0
    7.1364   -5.2338   23.1177 C   0  0  0  0  0  0  0  0  0  0  0  0
    6.6010   -6.1272   23.4239 H   0  0  0  0  0  0  0  0  0  0  0  0
    7.8141   -4.4863   24.0921 C   0  0  0  0  0  0  0  0  0  0  0  0
    7.7615   -4.8943   25.5186 C   0  0  0  0  0  0  0  0  0  0  0  0
    6.5593   -5.3320   26.1041 C   0  0  0  0  0  0  0  0  0  0  0  0
    5.6524   -5.3542   25.5033 H   0  0  0  0  0  0  0  0  0  0  0  0
    6.5168   -5.7102   27.4485 C   0  0  0  0  0  0  0  0  0  0  0  0
    5.5808   -6.0564   27.8856 H   0  0  0  0  0  0  0  0  0  0  0  0
    7.6828   -5.6630   28.2244 C   0  0  0  0  0  0  0  0  0  0  0  0
    7.6536   -5.9711   29.2672 H   0  0  0  0  0  0  0  0  0  0  0  0
    8.8853   -5.2272   27.6522 C   0  0  0  0  0  0  0  0  0  0  0  0
    9.7986   -5.1872   28.2421 H   0  0  0  0  0  0  0  0  0  0  0  0
    8.9178   -4.8413   26.3106 C   0  0  0  0  0  0  0  0  0  0  0  0
    9.8453   -4.5089   25.8500 H   0  0  0  0  0  0  0  0  0  0  0  0
    8.5256   -3.3436   23.6986 C   0  0  0  0  0  0  0  0  0  0  0  0
    9.0845   -2.7776   24.4348 H   0  0  0  0  0  0  0  0  0  0  0  0
   10.6208   -1.6021   22.4119 C   0  0  0  0  0  0  0  0  0  0  0  0
   10.7562   -0.8555   23.2004 H   0  0  0  0  0  0  0  0  0  0  0  0
   10.9899   -2.5648   22.7628 H   0  0  0  0  0  0  0  0  0  0  0  0
   11.2187   -1.2925   21.5537 H   0  0  0  0  0  0  0  0  0  0  0  0
    5.4909    0.5956   20.1710 C   0  0  0  0  0  0  0  0  0  0  0  0
    5.0780    0.5830   21.1796 H   0  0  0  0  0  0  0  0  0  0  0  0
    4.8360    1.2764   19.1346 C   0  0  0  0  0  0  0  0  0  0  0  0
    3.9013    1.8056   19.3009 H   0  0  0  0  0  0  0  0  0  0  0  0
  1  2  1  0
  2  3  2  0
  3  4  1  0
  4  5  1  0
  4  6  2  0
  6  7  1  0
  7  8  1  0
  7  9  1  0
  9 10  2  0
  9 11  1  0
 11 12  1  0
 12 13  2  0
 13 14  1  0
 13 15  1  0
 15 16  1  0
 15 17  2  0
 17 18  1  0
 17 19  1  0
 19 20  1  0
 20 21  2  0
 21 22  1  0
 21 23  1  0
 23 24  1  0
 23 25  2  0
 25 26  1  0
 25 27  1  0
 27 28  1  0
 27 29  2  0
 29 30  1  0
 19 31  2  0
 31 32  1  0
 11 33  1  0
 33 34  1  0
 33 35  1  0
 33 36  1  0
  6 37  1  0
 37 38  1  0
 37 39  2  0
 39 40  1  0
 39  2  1  0
 31 12  1  0
 29 20  1  0
M  END
>  <cnnaffinity>  (1) 
-5.26896

>  <filename>  (1) 
CN(C(=O)Nc1cccnc1)c1cccc(-c2ccccc2)c1

$$$$
