
     RDKit          3D

 33 33  0  0  0  0  0  0  0  0999 V2000
    5.0387    1.7541   16.8941 H   0  0  0  0  0  0  0  0  0  0  0  0
    5.4983    1.2622   17.7477 C   0  0  0  0  0  0  0  0  0  0  0  0
    6.6662    0.6367   17.5161 N   0  0  0  0  0  0  0  0  0  0  0  0
    7.2530    0.0304   18.5551 C   0  0  0  0  0  0  0  0  0  0  0  0
    8.1960   -0.4714   18.3556 H   0  0  0  0  0  0  0  0  0  0  0  0
    6.7157   -0.0036   19.8683 C   0  0  0  0  0  0  0  0  0  0  0  0
    7.3741   -0.6594   20.9098 N   0  0  0  0  0  0  0  0  0  0  0  0
    8.7586   -0.6729   20.8673 N   0  0  0  0  0  0  0  0  0  0  0  0
    9.2255    0.1745   21.1845 H   0  0  0  0  0  0  0  0  0  0  0  0
    9.5315   -1.7845   21.1030 C   0  0  0  0  0  0  0  0  0  0  0  0
    9.1098   -2.9196   21.2049 O   0  0  0  0  0  0  0  0  0  0  0  0
   10.9824   -1.4340   21.3245 C   0  0  0  0  0  0  0  0  0  0  0  0
   11.5431   -2.3424   21.5209 H   0  0  0  0  0  0  0  0  0  0  0  0
   11.3967   -0.8739   20.4907 H   0  0  0  0  0  0  0  0  0  0  0  0
   10.9187   -0.5148   22.5109 C   0  0  0  0  0  0  0  0  0  0  0  0
   10.7661    0.6855   22.3090 O   0  0  0  0  0  0  0  0  0  0  0  0
   10.8612   -1.0669   23.7550 N   0  0  0  0  0  0  0  0  0  0  0  0
   10.5299   -2.4796   23.9852 C   0  0  0  0  0  0  0  0  0  0  0  0
   10.3219   -2.6325   25.0445 H   0  0  0  0  0  0  0  0  0  0  0  0
   11.3405   -3.1663   23.7063 H   0  0  0  0  0  0  0  0  0  0  0  0
    9.6353   -2.7650   23.4307 H   0  0  0  0  0  0  0  0  0  0  0  0
   11.0984   -0.1724   24.8930 C   0  0  0  0  0  0  0  0  0  0  0  0
   12.1727   -0.0227   25.0937 H   0  0  0  0  0  0  0  0  0  0  0  0
   10.6277   -0.5784   25.7938 H   0  0  0  0  0  0  0  0  0  0  0  0
   10.6475    0.7999   24.6628 H   0  0  0  0  0  0  0  0  0  0  0  0
    6.7034   -1.1450   22.1037 C   0  0  0  0  0  0  0  0  0  0  0  0
    7.3150   -1.9363   22.5488 H   0  0  0  0  0  0  0  0  0  0  0  0
    5.7430   -1.5842   21.8188 H   0  0  0  0  0  0  0  0  0  0  0  0
    6.5348   -0.3497   22.8466 H   0  0  0  0  0  0  0  0  0  0  0  0
    5.4908    0.6539   20.0829 C   0  0  0  0  0  0  0  0  0  0  0  0
    5.0470    0.6590   21.0792 H   0  0  0  0  0  0  0  0  0  0  0  0
    4.8807    1.2996   19.0019 C   0  0  0  0  0  0  0  0  0  0  0  0
    3.9387    1.8255   19.1323 H   0  0  0  0  0  0  0  0  0  0  0  0
  1  2  1  0
  2  3  2  0
  3  4  1  0
  4  5  1  0
  4  6  2  0
  6  7  1  0
  7  8  1  0
  8  9  1  0
  8 10  1  0
 10 11  2  0
 10 12  1  0
 12 13  1  0
 12 14  1  0
 12 15  1  0
 15 16  2  0
 15 17  1  0
 17 18  1  0
 18 19  1  0
 18 20  1  0
 18 21  1  0
 17 22  1  0
 22 23  1  0
 22 24  1  0
 22 25  1  0
  7 26  1  0
 26 27  1  0
 26 28  1  0
 26 29  1  0
  6 30  1  0
 30 31  1  0
 30 32  2  0
 32 33  1  0
 32  2  1  0
M  END
>  <cnnaffinity>  (1) 
-4.75277

>  <filename>  (1) 
CN(C)C(=O)CC(=O)NN(C)c1cccnc1

$$$$
