
     RDKit          3D

 32 33  0  0  0  0  0  0  0  0999 V2000
    5.1173    2.2025   16.7328 H   0  0  0  0  0  0  0  0  0  0  0  0
    5.4996    1.5388   17.5064 C   0  0  0  0  0  0  0  0  0  0  0  0
    6.6584    0.9133   17.2361 N   0  0  0  0  0  0  0  0  0  0  0  0
    7.1715    0.1238   18.1886 C   0  0  0  0  0  0  0  0  0  0  0  0
    8.1200   -0.3675   17.9679 H   0  0  0  0  0  0  0  0  0  0  0  0
    6.5593   -0.1096   19.4430 C   0  0  0  0  0  0  0  0  0  0  0  0
    7.2145   -0.9003   20.4239 N   0  0  0  0  0  0  0  0  0  0  0  0
    8.2150   -0.8394   20.5794 H   0  0  0  0  0  0  0  0  0  0  0  0
    6.6091   -1.5730   21.4458 C   0  0  0  0  0  0  0  0  0  0  0  0
    5.4936   -2.0436   21.4179 O   0  0  0  0  0  0  0  0  0  0  0  0
    7.4265   -1.6716   22.6038 N   0  0  0  0  0  0  0  0  0  0  0  0
    8.6878   -2.2329   22.4135 C   0  0  0  0  0  0  0  0  0  0  0  0
    9.4347   -1.7894   21.5501 O   0  0  0  0  0  0  0  0  0  0  0  0
    9.0804   -3.3893   23.2793 C   0  0  0  0  0  0  0  0  0  0  0  0
    8.1418   -4.3901   23.6018 C   0  0  0  0  0  0  0  0  0  0  0  0
    7.1191   -4.3378   23.2333 H   0  0  0  0  0  0  0  0  0  0  0  0
    8.5113   -5.4588   24.4087 C   0  0  0  0  0  0  0  0  0  0  0  0
    7.8150   -6.2477   24.6545 H   0  0  0  0  0  0  0  0  0  0  0  0
    9.8064   -5.5178   24.9179 C   0  0  0  0  0  0  0  0  0  0  0  0
   10.1864   -6.8475   25.9507 Cl  0  0  0  0  0  0  0  0  0  0  0  0
   10.7659   -4.5548   24.5970 C   0  0  0  0  0  0  0  0  0  0  0  0
   11.7734   -4.6533   24.9893 H   0  0  0  0  0  0  0  0  0  0  0  0
   10.4020   -3.5059   23.7497 C   0  0  0  0  0  0  0  0  0  0  0  0
   11.1548   -2.7914   23.4252 H   0  0  0  0  0  0  0  0  0  0  0  0
    6.7543   -1.6401   23.9152 C   0  0  0  0  0  0  0  0  0  0  0  0
    7.4163   -2.0352   24.6913 H   0  0  0  0  0  0  0  0  0  0  0  0
    5.8390   -2.2411   23.8931 H   0  0  0  0  0  0  0  0  0  0  0  0
    6.4911   -0.6105   24.1928 H   0  0  0  0  0  0  0  0  0  0  0  0
    5.3232    0.5091   19.6877 C   0  0  0  0  0  0  0  0  0  0  0  0
    4.7937    0.3376   20.6238 H   0  0  0  0  0  0  0  0  0  0  0  0
    4.8006    1.3609   18.7046 C   0  0  0  0  0  0  0  0  0  0  0  0
    3.8732    1.9021   18.8613 H   0  0  0  0  0  0  0  0  0  0  0  0
  1  2  1  0
  2  3  2  0
  3  4  1  0
  4  5  1  0
  4  6  2  0
  6  7  1  0
  7  8  1  0
  7  9  1  0
  9 10  2  0
  9 11  1  0
 11 12  1  0
 12 13  2  0
 12 14  1  0
 14 15  2  0
 15 16  1  0
 15 17  1  0
 17 18  1  0
 17 19  2  0
 19 20  1  0
 19 21  1  0
 21 22  1  0
 21 23  2  0
 23 24  1  0
 11 25  1  0
 25 26  1  0
 25 27  1  0
 25 28  1  0
  6 29  1  0
 29 30  1  0
 29 31  2  0
 31 32  1  0
 31  2  1  0
 23 14  1  0
M  END
>  <cnnaffinity>  (1) 
-5.13986

>  <filename>  (1) 
CN(C(=O)Nc1cccnc1)C(=O)c1ccc(Cl)cc1

$$$$
