
     RDKit          3D

 35 36  0  0  0  0  0  0  0  0999 V2000
    5.0869    2.2283   16.5789 H   0  0  0  0  0  0  0  0  0  0  0  0
    5.4992    1.6470   17.4008 C   0  0  0  0  0  0  0  0  0  0  0  0
    6.7026    1.0871   17.1787 N   0  0  0  0  0  0  0  0  0  0  0  0
    7.2498    0.3868   18.1764 C   0  0  0  0  0  0  0  0  0  0  0  0
    8.2479   -0.0084   18.0132 H   0  0  0  0  0  0  0  0  0  0  0  0
    6.6009    0.1441   19.4026 C   0  0  0  0  0  0  0  0  0  0  0  0
    7.2401   -0.6580   20.4046 N   0  0  0  0  0  0  0  0  0  0  0  0
    8.5337   -0.3090   20.6750 N   0  0  0  0  0  0  0  0  0  0  0  0
    9.0826   -0.7997   21.7435 C   0  0  0  0  0  0  0  0  0  0  0  0
   10.1068   -0.4989   21.9295 H   0  0  0  0  0  0  0  0  0  0  0  0
    8.3883   -1.7118   22.6415 C   0  0  0  0  0  0  0  0  0  0  0  0
    9.0165   -2.0473   23.7825 O   0  0  0  0  0  0  0  0  0  0  0  0
    8.5204   -3.1679   24.5390 C   0  0  0  0  0  0  0  0  0  0  0  0
    8.4527   -4.0554   23.8973 H   0  0  0  0  0  0  0  0  0  0  0  0
    7.5163   -2.9540   24.9245 H   0  0  0  0  0  0  0  0  0  0  0  0
    9.4804   -3.4483   25.6966 C   0  0  0  0  0  0  0  0  0  0  0  0
   10.4977   -3.3715   25.2986 H   0  0  0  0  0  0  0  0  0  0  0  0
    9.3812   -2.6632   26.4668 H   0  0  0  0  0  0  0  0  0  0  0  0
    9.2750   -4.7913   26.2330 N   0  0  0  0  0  0  0  0  0  0  0  0
   10.4722   -5.5949   26.4280 C   0  0  0  0  0  0  0  0  0  0  0  0
   11.0100   -5.3668   27.3676 H   0  0  0  0  0  0  0  0  0  0  0  0
   10.2173   -6.6590   26.4195 H   0  0  0  0  0  0  0  0  0  0  0  0
   11.1763   -5.4328   25.6044 H   0  0  0  0  0  0  0  0  0  0  0  0
    8.3552   -4.9259   27.3523 C   0  0  0  0  0  0  0  0  0  0  0  0
    8.8190   -4.6925   28.3246 H   0  0  0  0  0  0  0  0  0  0  0  0
    7.4743   -4.2848   27.2408 H   0  0  0  0  0  0  0  0  0  0  0  0
    7.9818   -5.9552   27.4021 H   0  0  0  0  0  0  0  0  0  0  0  0
    7.1626   -2.1812   22.2717 C   0  0  0  0  0  0  0  0  0  0  0  0
    6.6131   -2.9234   22.8327 H   0  0  0  0  0  0  0  0  0  0  0  0
    6.5672   -1.7936   21.0188 C   0  0  0  0  0  0  0  0  0  0  0  0
    5.6199   -2.3539   20.5034 O   0  0  0  0  0  0  0  0  0  0  0  0
    5.3522    0.7373   19.6317 C   0  0  0  0  0  0  0  0  0  0  0  0
    4.8435    0.6109   20.5883 H   0  0  0  0  0  0  0  0  0  0  0  0
    4.7982    1.5118   18.6037 C   0  0  0  0  0  0  0  0  0  0  0  0
    3.8396    2.0098   18.7198 H   0  0  0  0  0  0  0  0  0  0  0  0
  1  2  1  0
  2  3  2  0
  3  4  1  0
  4  5  1  0
  4  6  2  0
  6  7  1  0
  7  8  1  0
  8  9  2  0
  9 10  1  0
  9 11  1  0
 11 12  1  0
 12 13  1  0
 13 14  1  0
 13 15  1  0
 13 16  1  0
 16 17  1  0
 16 18  1  0
 16 19  1  0
 19 20  1  0
 20 21  1  0
 20 22  1  0
 20 23  1  0
 19 24  1  0
 24 25  1  0
 24 26  1  0
 24 27  1  0
 11 28  2  0
 28 29  1  0
 28 30  1  0
 30 31  2  0
  6 32  1  0
 32 33  1  0
 32 34  2  0
 34 35  1  0
 34  2  1  0
 30  7  1  0
M  END
>  <cnnaffinity>  (1) 
-4.35252

>  <filename>  (1) 
CN(C)CCOc1cnn(-c2cccnc2)c(=O)c1

$$$$
