
     RDKit          3D

 36 38  0  0  0  0  0  0  0  0999 V2000
   10.6515   -1.9847   21.9322 C   0  0  0  0  0  0  0  0  0  0  0  0
    9.2048   -1.7502   21.9153 N   0  0  0  0  0  0  0  0  0  0  0  0
    8.7465   -0.6362   21.2235 C   0  0  0  0  0  0  0  0  0  0  0  0
    9.6880    0.6472   20.7632 S   0  0  0  0  0  0  0  0  0  0  0  0
    7.4154   -0.6991   20.9303 N   0  0  0  0  0  0  0  0  0  0  0  0
    6.7246   -0.0483   19.8732 C   0  0  0  0  0  0  0  0  0  0  0  0
    5.5078    0.5628   20.1690 C   0  0  0  0  0  0  0  0  0  0  0  0
    4.8443    1.2490   19.1485 C   0  0  0  0  0  0  0  0  0  0  0  0
    5.4115    1.2752   17.8682 C   0  0  0  0  0  0  0  0  0  0  0  0
    6.5584    0.6478   17.5562 N   0  0  0  0  0  0  0  0  0  0  0  0
    7.1989    0.0066   18.5391 C   0  0  0  0  0  0  0  0  0  0  0  0
    8.1283   -0.5021   18.2886 H   0  0  0  0  0  0  0  0  0  0  0  0
    4.9305    1.8257   17.0644 H   0  0  0  0  0  0  0  0  0  0  0  0
    3.9163    1.7737   19.3444 H   0  0  0  0  0  0  0  0  0  0  0  0
    5.1285    0.5216   21.1916 H   0  0  0  0  0  0  0  0  0  0  0  0
    6.8938   -1.3597   21.4839 H   0  0  0  0  0  0  0  0  0  0  0  0
    8.4685   -2.2949   23.0334 C   0  0  0  0  0  0  0  0  0  0  0  0
    7.9611   -1.3867   24.0107 C   0  0  0  0  0  0  0  0  0  0  0  0
    7.2833   -1.8639   25.1011 C   0  0  0  0  0  0  0  0  0  0  0  0
    7.0861   -3.2592   25.3001 C   0  0  0  0  0  0  0  0  0  0  0  0
    6.3651   -3.7445   26.4280 C   0  0  0  0  0  0  0  0  0  0  0  0
    6.2924   -5.0916   26.6748 C   0  0  0  0  0  0  0  0  0  0  0  0
    6.9235   -6.0212   25.7997 C   0  0  0  0  0  0  0  0  0  0  0  0
    7.5673   -5.5866   24.6592 C   0  0  0  0  0  0  0  0  0  0  0  0
    7.6604   -4.1869   24.3663 C   0  0  0  0  0  0  0  0  0  0  0  0
    8.3394   -3.6625   23.2115 C   0  0  0  0  0  0  0  0  0  0  0  0
    8.7757   -4.3436   22.4831 H   0  0  0  0  0  0  0  0  0  0  0  0
    8.0188   -6.3098   23.9810 H   0  0  0  0  0  0  0  0  0  0  0  0
    6.8940   -7.0700   26.0749 H   0  0  0  0  0  0  0  0  0  0  0  0
    5.7509   -5.4531   27.5404 H   0  0  0  0  0  0  0  0  0  0  0  0
    5.8999   -3.0200   27.0939 H   0  0  0  0  0  0  0  0  0  0  0  0
    6.8974   -1.1784   25.8450 H   0  0  0  0  0  0  0  0  0  0  0  0
    8.1394   -0.3184   23.8820 H   0  0  0  0  0  0  0  0  0  0  0  0
   10.8610   -2.9343   22.4294 H   0  0  0  0  0  0  0  0  0  0  0  0
   11.1809   -1.1800   22.4574 H   0  0  0  0  0  0  0  0  0  0  0  0
   11.0313   -2.0410   20.9098 H   0  0  0  0  0  0  0  0  0  0  0  0
  1  2  1  0
  2  3  1  0
  3  4  2  0
  3  5  1  0
  5  6  1  0
  6  7  2  0
  7  8  1  0
  8  9  2  0
  9 10  1  0
 10 11  2  0
 11 12  1  0
  9 13  1  0
  8 14  1  0
  7 15  1  0
  5 16  1  0
  2 17  1  0
 17 18  2  0
 18 19  1  0
 19 20  2  0
 20 21  1  0
 21 22  2  0
 22 23  1  0
 23 24  2  0
 24 25  1  0
 25 26  2  0
 26 27  1  0
 24 28  1  0
 23 29  1  0
 22 30  1  0
 21 31  1  0
 19 32  1  0
 18 33  1  0
  1 34  1  0
  1 35  1  0
  1 36  1  0
 11  6  1  0
 26 17  1  0
 25 20  1  0
M  END
>  <cnnaffinity>  (1) 
-5.36631

>  <filename>  (1) 
CN(C(=S)Nc1cccnc1)c1ccc2ccccc2c1

$$$$
