
     RDKit          3D

 24 25  0  0  0  0  0  0  0  0999 V2000
    7.8928   -5.5694   24.1653 H   0  0  0  0  0  0  0  0  0  0  0  0
    7.8297   -4.7420   23.4619 C   0  0  0  0  0  0  0  0  0  0  0  0
    8.6414   -4.5712   22.4706 N   0  0  0  0  0  0  0  0  0  0  0  0
    8.3207   -3.4261   21.7815 C   0  0  0  0  0  0  0  0  0  0  0  0
    8.9246   -3.1322   20.9287 H   0  0  0  0  0  0  0  0  0  0  0  0
    7.2438   -2.7271   22.2513 C   0  0  0  0  0  0  0  0  0  0  0  0
    6.7232   -1.5162   21.8410 N   0  0  0  0  0  0  0  0  0  0  0  0
    5.7185   -1.3817   21.9495 H   0  0  0  0  0  0  0  0  0  0  0  0
    7.3954   -0.7986   20.8663 N   0  0  0  0  0  0  0  0  0  0  0  0
    6.6390   -0.0730   19.9101 C   0  0  0  0  0  0  0  0  0  0  0  0
    7.1537    0.0207   18.6021 C   0  0  0  0  0  0  0  0  0  0  0  0
    8.1105   -0.4486   18.3863 H   0  0  0  0  0  0  0  0  0  0  0  0
    6.5603    0.6596   17.5869 N   0  0  0  0  0  0  0  0  0  0  0  0
    5.4019    1.2852   17.8454 C   0  0  0  0  0  0  0  0  0  0  0  0
    4.9497    1.7995   17.0007 H   0  0  0  0  0  0  0  0  0  0  0  0
    4.8049    1.2907   19.1131 C   0  0  0  0  0  0  0  0  0  0  0  0
    3.8785    1.8415   19.2567 H   0  0  0  0  0  0  0  0  0  0  0  0
    5.4281    0.6085   20.1688 C   0  0  0  0  0  0  0  0  0  0  0  0
    5.0153    0.6419   21.1787 H   0  0  0  0  0  0  0  0  0  0  0  0
    8.7650   -0.3658   21.1876 C   0  0  0  0  0  0  0  0  0  0  0  0
    9.4950   -0.8271   20.5062 H   0  0  0  0  0  0  0  0  0  0  0  0
    9.0243   -0.6593   22.2143 H   0  0  0  0  0  0  0  0  0  0  0  0
    8.8519    0.7212   21.0975 H   0  0  0  0  0  0  0  0  0  0  0  0
    6.5684   -3.5451   23.6257 S   0  0  0  0  0  0  0  0  0  0  0  0
  1  2  1  0
  2  3  2  0
  3  4  1  0
  4  5  1  0
  4  6  2  0
  6  7  1  0
  7  8  1  0
  7  9  1  0
  9 10  1  0
 10 11  2  0
 11 12  1  0
 11 13  1  0
 13 14  2  0
 14 15  1  0
 14 16  1  0
 16 17  1  0
 16 18  2  0
 18 19  1  0
  9 20  1  0
 20 21  1  0
 20 22  1  0
 20 23  1  0
  6 24  1  0
 24  2  1  0
 18 10  1  0
M  END
>  <cnnaffinity>  (1) 
-4.49551

>  <filename>  (1) 
CN(Nc1cncs1)c1cccnc1

$$$$
