
     RDKit          3D

 42 44  0  0  0  0  0  0  0  0999 V2000
    4.9344    1.7893   16.9528 H   0  0  0  0  0  0  0  0  0  0  0  0
    5.4098    1.2886   17.7958 C   0  0  0  0  0  0  0  0  0  0  0  0
    6.5638    0.6460   17.5516 N   0  0  0  0  0  0  0  0  0  0  0  0
    7.1601    0.0331   18.5818 C   0  0  0  0  0  0  0  0  0  0  0  0
    8.0913   -0.4822   18.3593 H   0  0  0  0  0  0  0  0  0  0  0  0
    6.6862    0.0266   19.9143 C   0  0  0  0  0  0  0  0  0  0  0  0
    7.4437   -0.5735   20.9501 N   0  0  0  0  0  0  0  0  0  0  0  0
    7.1802   -0.2031   22.2806 N   0  0  0  0  0  0  0  0  0  0  0  0
    6.1899   -0.3729   22.4957 H   0  0  0  0  0  0  0  0  0  0  0  0
    7.5122    1.1590   22.4704 N   0  0  0  0  0  0  0  0  0  0  0  0
    8.9886    1.2891   22.4424 C   0  0  0  0  0  0  0  0  0  0  0  0
    9.4551    0.7545   23.2884 H   0  0  0  0  0  0  0  0  0  0  0  0
    9.3689    0.8498   21.5160 H   0  0  0  0  0  0  0  0  0  0  0  0
    9.3628    2.7653   22.4724 C   0  0  0  0  0  0  0  0  0  0  0  0
    8.9938    3.2490   21.5510 H   0  0  0  0  0  0  0  0  0  0  0  0
   10.4528    2.8683   22.4669 H   0  0  0  0  0  0  0  0  0  0  0  0
    8.8025    3.4017   23.6698 N   0  0  0  0  0  0  0  0  0  0  0  0
    9.4280    4.5574   24.1673 C   0  0  0  0  0  0  0  0  0  0  0  0
    8.7416    5.7718   24.3666 C   0  0  0  0  0  0  0  0  0  0  0  0
    7.7347    5.8851   23.9752 H   0  0  0  0  0  0  0  0  0  0  0  0
    9.3606    6.8267   25.0450 C   0  0  0  0  0  0  0  0  0  0  0  0
    8.8197    7.7601   25.1854 H   0  0  0  0  0  0  0  0  0  0  0  0
   10.6730    6.6966   25.5147 C   0  0  0  0  0  0  0  0  0  0  0  0
   11.1330    7.4985   26.0864 H   0  0  0  0  0  0  0  0  0  0  0  0
   11.3917    5.5287   25.2370 C   0  0  0  0  0  0  0  0  0  0  0  0
   12.4233    5.4092   25.5712 H   0  0  0  0  0  0  0  0  0  0  0  0
   10.7849    4.4843   24.5388 C   0  0  0  0  0  0  0  0  0  0  0  0
   11.3391    3.5801   24.3058 H   0  0  0  0  0  0  0  0  0  0  0  0
    7.3425    3.2424   23.7346 C   0  0  0  0  0  0  0  0  0  0  0  0
    6.9587    3.7068   24.6500 H   0  0  0  0  0  0  0  0  0  0  0  0
    6.8343    3.7324   22.8826 H   0  0  0  0  0  0  0  0  0  0  0  0
    6.9737    1.7508   23.7114 C   0  0  0  0  0  0  0  0  0  0  0  0
    7.3592    1.2448   24.6136 H   0  0  0  0  0  0  0  0  0  0  0  0
    5.8804    1.6672   23.7311 H   0  0  0  0  0  0  0  0  0  0  0  0
    8.0795   -1.8732   20.8099 C   0  0  0  0  0  0  0  0  0  0  0  0
    8.9086   -1.8179   20.0909 H   0  0  0  0  0  0  0  0  0  0  0  0
    8.5038   -2.1505   21.7809 H   0  0  0  0  0  0  0  0  0  0  0  0
    7.3732   -2.6578   20.5018 H   0  0  0  0  0  0  0  0  0  0  0  0
    5.4720    0.7115   20.1424 C   0  0  0  0  0  0  0  0  0  0  0  0
    5.0563    0.7611   21.1480 H   0  0  0  0  0  0  0  0  0  0  0  0
    4.8261    1.3271   19.0684 C   0  0  0  0  0  0  0  0  0  0  0  0
    3.8788    1.8413   19.2075 H   0  0  0  0  0  0  0  0  0  0  0  0
  1  2  1  0
  2  3  2  0
  3  4  1  0
  4  5  1  0
  4  6  2  0
  6  7  1  0
  7  8  1  0
  8  9  1  0
  8 10  1  0
 10 11  1  0
 11 12  1  0
 11 13  1  0
 11 14  1  0
 14 15  1  0
 14 16  1  0
 14 17  1  0
 17 18  1  0
 18 19  2  0
 19 20  1  0
 19 21  1  0
 21 22  1  0
 21 23  2  0
 23 24  1  0
 23 25  1  0
 25 26  1  0
 25 27  2  0
 27 28  1  0
 17 29  1  0
 29 30  1  0
 29 31  1  0
 29 32  1  0
 32 33  1  0
 32 34  1  0
  7 35  1  0
 35 36  1  0
 35 37  1  0
 35 38  1  0
  6 39  1  0
 39 40  1  0
 39 41  2  0
 41 42  1  0
 41  2  1  0
 32 10  1  0
 27 18  1  0
M  END
>  <cnnaffinity>  (1) 
-4.78105

>  <filename>  (1) 
CN(NN1CCN(c2ccccc2)CC1)c1cccnc1

$$$$
