
     RDKit          3D

 41 43  0  0  0  0  0  0  0  0999 V2000
   13.5437    4.2168   22.9935 H   0  0  0  0  0  0  0  0  0  0  0  0
   12.6098    4.3042   23.5542 C   0  0  0  0  0  0  0  0  0  0  0  0
   11.7555    3.2953   23.3873 N   0  0  0  0  0  0  0  0  0  0  0  0
   10.5550    3.3931   23.9724 C   0  0  0  0  0  0  0  0  0  0  0  0
    9.6683    2.3696   23.6960 N   0  0  0  0  0  0  0  0  0  0  0  0
   10.1206    0.9726   23.6511 C   0  0  0  0  0  0  0  0  0  0  0  0
   10.0334    0.5144   24.6528 H   0  0  0  0  0  0  0  0  0  0  0  0
   11.1761    0.9543   23.3587 H   0  0  0  0  0  0  0  0  0  0  0  0
    9.2972    0.1480   22.6502 C   0  0  0  0  0  0  0  0  0  0  0  0
    9.6383   -0.8929   22.7193 H   0  0  0  0  0  0  0  0  0  0  0  0
    9.4775    0.5337   21.6321 H   0  0  0  0  0  0  0  0  0  0  0  0
    7.8561    0.2291   22.9915 N   0  0  0  0  0  0  0  0  0  0  0  0
    6.9551   -0.6137   22.2400 N   0  0  0  0  0  0  0  0  0  0  0  0
    7.2986   -0.7698   20.8998 N   0  0  0  0  0  0  0  0  0  0  0  0
    8.2249   -1.1423   20.7478 H   0  0  0  0  0  0  0  0  0  0  0  0
    6.6602   -0.0093   19.9091 C   0  0  0  0  0  0  0  0  0  0  0  0
    7.1688    0.0584   18.5907 C   0  0  0  0  0  0  0  0  0  0  0  0
    8.1191   -0.4204   18.3508 H   0  0  0  0  0  0  0  0  0  0  0  0
    6.5626    0.6852   17.5747 N   0  0  0  0  0  0  0  0  0  0  0  0
    5.3976    1.3045   17.8309 C   0  0  0  0  0  0  0  0  0  0  0  0
    4.9305    1.8043   16.9844 H   0  0  0  0  0  0  0  0  0  0  0  0
    4.8097    1.3201   19.1011 C   0  0  0  0  0  0  0  0  0  0  0  0
    3.8700    1.8443   19.2452 H   0  0  0  0  0  0  0  0  0  0  0  0
    5.4497    0.6577   20.1558 C   0  0  0  0  0  0  0  0  0  0  0  0
    5.0528    0.6162   21.1688 H   0  0  0  0  0  0  0  0  0  0  0  0
    6.8997   -1.9483   22.8556 C   0  0  0  0  0  0  0  0  0  0  0  0
    7.8551   -2.5082   22.8051 H   0  0  0  0  0  0  0  0  0  0  0  0
    6.1341   -2.5409   22.3420 H   0  0  0  0  0  0  0  0  0  0  0  0
    6.6225   -1.8084   23.9008 H   0  0  0  0  0  0  0  0  0  0  0  0
    7.4228    1.6395   22.9021 C   0  0  0  0  0  0  0  0  0  0  0  0
    6.3702    1.7053   23.1956 H   0  0  0  0  0  0  0  0  0  0  0  0
    7.5340    2.0336   21.8733 H   0  0  0  0  0  0  0  0  0  0  0  0
    8.2253    2.5192   23.8862 C   0  0  0  0  0  0  0  0  0  0  0  0
    7.9453    3.5698   23.7234 H   0  0  0  0  0  0  0  0  0  0  0  0
    7.9427    2.2380   24.9164 H   0  0  0  0  0  0  0  0  0  0  0  0
   10.2132    4.4662   24.8278 C   0  0  0  0  0  0  0  0  0  0  0  0
    9.2583    4.4099   25.3337 H   0  0  0  0  0  0  0  0  0  0  0  0
   11.1457    5.4766   25.0562 C   0  0  0  0  0  0  0  0  0  0  0  0
   10.9306    6.2930   25.7539 H   0  0  0  0  0  0  0  0  0  0  0  0
   12.3743    5.4022   24.3832 C   0  0  0  0  0  0  0  0  0  0  0  0
   13.1526    6.1487   24.4914 H   0  0  0  0  0  0  0  0  0  0  0  0
  1  2  1  0
  2  3  2  0
  3  4  1  0
  4  5  1  0
  5  6  1  0
  6  7  1  0
  6  8  1  0
  6  9  1  0
  9 10  1  0
  9 11  1  0
  9 12  1  0
 12 13  1  0
 13 14  1  0
 14 15  1  0
 14 16  1  0
 16 17  2  0
 17 18  1  0
 17 19  1  0
 19 20  2  0
 20 21  1  0
 20 22  1  0
 22 23  1  0
 22 24  2  0
 24 25  1  0
 13 26  1  0
 26 27  1  0
 26 28  1  0
 26 29  1  0
 12 30  1  0
 30 31  1  0
 30 32  1  0
 30 33  1  0
 33 34  1  0
 33 35  1  0
  4 36  2  0
 36 37  1  0
 36 38  1  0
 38 39  1  0
 38 40  2  0
 40 41  1  0
 40  2  1  0
 33  5  1  0
 24 16  1  0
M  END
>  <cnnaffinity>  (1) 
-5.01325

>  <filename>  (1) 
CN(Nc1cccnc1)N1CCN(c2ccccn2)CC1

$$$$
