
     RDKit          3D

 36 37  0  0  0  0  0  0  0  0999 V2000
    4.9599    1.7434   17.0370 H   0  0  0  0  0  0  0  0  0  0  0  0
    5.4191    1.2663   17.8998 C   0  0  0  0  0  0  0  0  0  0  0  0
    6.5887    0.6446   17.6834 N   0  0  0  0  0  0  0  0  0  0  0  0
    7.1812    0.0775   18.7392 C   0  0  0  0  0  0  0  0  0  0  0  0
    8.1193   -0.4381   18.5434 H   0  0  0  0  0  0  0  0  0  0  0  0
    6.6877    0.0952   20.0613 C   0  0  0  0  0  0  0  0  0  0  0  0
    7.4897   -0.4255   21.1032 N   0  0  0  0  0  0  0  0  0  0  0  0
    7.0757   -0.1878   22.4008 N   0  0  0  0  0  0  0  0  0  0  0  0
    7.3021    0.7095   22.7889 H   0  0  0  0  0  0  0  0  0  0  0  0
    6.6191   -1.0619   23.3461 C   0  0  0  0  0  0  0  0  0  0  0  0
    6.2905   -2.2235   23.2170 O   0  0  0  0  0  0  0  0  0  0  0  0
    6.5899   -0.3848   24.5608 N   0  0  0  0  0  0  0  0  0  0  0  0
    7.4049    0.1764   24.7296 H   0  0  0  0  0  0  0  0  0  0  0  0
    6.2359   -1.0030   25.7441 C   0  0  0  0  0  0  0  0  0  0  0  0
    7.2192   -0.7453   27.0422 S   0  0  0  0  0  0  0  0  0  0  0  0
    5.1022   -1.7179   25.6625 N   0  0  0  0  0  0  0  0  0  0  0  0
    4.8805   -2.0439   24.7307 H   0  0  0  0  0  0  0  0  0  0  0  0
    4.3278   -2.1946   26.7496 C   0  0  0  0  0  0  0  0  0  0  0  0
    3.8133   -3.4926   26.6791 C   0  0  0  0  0  0  0  0  0  0  0  0
    4.0481   -4.1005   25.8112 H   0  0  0  0  0  0  0  0  0  0  0  0
    3.0230   -3.9851   27.7249 C   0  0  0  0  0  0  0  0  0  0  0  0
    2.6381   -5.0008   27.6739 H   0  0  0  0  0  0  0  0  0  0  0  0
    2.7370   -3.1811   28.8304 C   0  0  0  0  0  0  0  0  0  0  0  0
    2.1291   -3.5654   29.6454 H   0  0  0  0  0  0  0  0  0  0  0  0
    3.2440   -1.8781   28.8877 C   0  0  0  0  0  0  0  0  0  0  0  0
    3.0264   -1.2473   29.7449 H   0  0  0  0  0  0  0  0  0  0  0  0
    4.0456   -1.3827   27.8536 C   0  0  0  0  0  0  0  0  0  0  0  0
    4.4505   -0.3769   27.8915 H   0  0  0  0  0  0  0  0  0  0  0  0
    8.2385   -1.6610   20.8547 C   0  0  0  0  0  0  0  0  0  0  0  0
    8.4583   -2.1749   21.7931 H   0  0  0  0  0  0  0  0  0  0  0  0
    9.1767   -1.4384   20.3272 H   0  0  0  0  0  0  0  0  0  0  0  0
    7.6107   -2.3236   20.2564 H   0  0  0  0  0  0  0  0  0  0  0  0
    5.4259    0.7000   20.2531 C   0  0  0  0  0  0  0  0  0  0  0  0
    4.9669    0.6899   21.2410 H   0  0  0  0  0  0  0  0  0  0  0  0
    4.8015    1.2992   19.1558 C   0  0  0  0  0  0  0  0  0  0  0  0
    3.8483    1.8074   19.2633 H   0  0  0  0  0  0  0  0  0  0  0  0
  1  2  1  0
  2  3  2  0
  3  4  1  0
  4  5  1  0
  4  6  2  0
  6  7  1  0
  7  8  1  0
  8  9  1  0
  8 10  1  0
 10 11  2  0
 10 12  1  0
 12 13  1  0
 12 14  1  0
 14 15  2  0
 14 16  1  0
 16 17  1  0
 16 18  1  0
 18 19  2  0
 19 20  1  0
 19 21  1  0
 21 22  1  0
 21 23  2  0
 23 24  1  0
 23 25  1  0
 25 26  1  0
 25 27  2  0
 27 28  1  0
  7 29  1  0
 29 30  1  0
 29 31  1  0
 29 32  1  0
  6 33  1  0
 33 34  1  0
 33 35  2  0
 35 36  1  0
 35  2  1  0
 27 18  1  0
M  END
>  <cnnaffinity>  (1) 
-5.20446

>  <filename>  (1) 
CN(NC(=O)NC(=S)Nc1ccccc1)c1cccnc1

$$$$
