
     RDKit          3D

 32 33  0  0  0  0  0  0  0  0999 V2000
    7.0602   -6.3517   22.9369 H   0  0  0  0  0  0  0  0  0  0  0  0
    6.4912   -6.0632   22.2137 O   0  0  0  0  0  0  0  0  0  0  0  0
    5.4977   -5.2092   22.7724 C   0  0  0  0  0  0  0  0  0  0  0  0
    4.8277   -4.9731   21.9388 H   0  0  0  0  0  0  0  0  0  0  0  0
    4.9080   -5.7482   23.5321 H   0  0  0  0  0  0  0  0  0  0  0  0
    6.0552   -3.9268   23.3758 C   0  0  0  0  0  0  0  0  0  0  0  0
    6.3564   -3.8514   24.7481 C   0  0  0  0  0  0  0  0  0  0  0  0
    6.1681   -4.7070   25.3937 H   0  0  0  0  0  0  0  0  0  0  0  0
    6.9025   -2.6882   25.2944 C   0  0  0  0  0  0  0  0  0  0  0  0
    7.1393   -2.6390   26.3573 H   0  0  0  0  0  0  0  0  0  0  0  0
    7.1466   -1.5766   24.4849 C   0  0  0  0  0  0  0  0  0  0  0  0
    7.5609   -0.6676   24.9097 H   0  0  0  0  0  0  0  0  0  0  0  0
    6.8524   -1.6187   23.1035 C   0  0  0  0  0  0  0  0  0  0  0  0
    7.0601   -0.4972   22.2824 N   0  0  0  0  0  0  0  0  0  0  0  0
    7.3768   -0.6571   20.9485 N   0  0  0  0  0  0  0  0  0  0  0  0
    8.0500   -1.3821   20.7254 H   0  0  0  0  0  0  0  0  0  0  0  0
    6.6546   -0.0214   19.9363 C   0  0  0  0  0  0  0  0  0  0  0  0
    7.1602    0.0292   18.6144 C   0  0  0  0  0  0  0  0  0  0  0  0
    8.1161   -0.4415   18.3868 H   0  0  0  0  0  0  0  0  0  0  0  0
    6.5625    0.6559   17.5937 N   0  0  0  0  0  0  0  0  0  0  0  0
    5.4033    1.2855   17.8421 C   0  0  0  0  0  0  0  0  0  0  0  0
    4.9463    1.7919   16.9945 H   0  0  0  0  0  0  0  0  0  0  0  0
    4.8066    1.2973   19.1072 C   0  0  0  0  0  0  0  0  0  0  0  0
    3.8787    1.8368   19.2537 H   0  0  0  0  0  0  0  0  0  0  0  0
    5.4321    0.6340   20.1677 C   0  0  0  0  0  0  0  0  0  0  0  0
    5.0201    0.6156   21.1761 H   0  0  0  0  0  0  0  0  0  0  0  0
    7.3314    0.8138   22.8456 C   0  0  0  0  0  0  0  0  0  0  0  0
    6.5513    1.0552   23.5812 H   0  0  0  0  0  0  0  0  0  0  0  0
    7.2961    1.5442   22.0311 H   0  0  0  0  0  0  0  0  0  0  0  0
    8.3243    0.8800   23.3236 H   0  0  0  0  0  0  0  0  0  0  0  0
    6.3034   -2.8050   22.5722 C   0  0  0  0  0  0  0  0  0  0  0  0
    6.0734   -2.8117   21.5112 H   0  0  0  0  0  0  0  0  0  0  0  0
  1  2  1  0
  2  3  1  0
  3  4  1  0
  3  5  1  0
  3  6  1  0
  6  7  2  0
  7  8  1  0
  7  9  1  0
  9 10  1  0
  9 11  2  0
 11 12  1  0
 11 13  1  0
 13 14  1  0
 14 15  1  0
 15 16  1  0
 15 17  1  0
 17 18  2  0
 18 19  1  0
 18 20  1  0
 20 21  2  0
 21 22  1  0
 21 23  1  0
 23 24  1  0
 23 25  2  0
 25 26  1  0
 14 27  1  0
 27 28  1  0
 27 29  1  0
 27 30  1  0
 13 31  2  0
 31 32  1  0
 31  6  1  0
 25 17  1  0
M  END
>  <cnnaffinity>  (1) 
-4.39729

>  <filename>  (1) 
CN(Nc1cccnc1)c1cccc(CO)c1

$$$$
