
     RDKit          3D

 39 41  0  0  0  0  0  0  0  0999 V2000
    4.9522    1.8261   16.9666 H   0  0  0  0  0  0  0  0  0  0  0  0
    5.4431    1.3218   17.7984 C   0  0  0  0  0  0  0  0  0  0  0  0
    6.6221    0.7474   17.5239 N   0  0  0  0  0  0  0  0  0  0  0  0
    7.2428    0.1106   18.5265 C   0  0  0  0  0  0  0  0  0  0  0  0
    8.2144   -0.3260   18.2999 H   0  0  0  0  0  0  0  0  0  0  0  0
    6.7225   -0.0306   19.8383 C   0  0  0  0  0  0  0  0  0  0  0  0
    7.4474   -0.7966   20.8883 C   0  0  0  0  0  0  0  0  0  0  0  0
    6.9570   -1.6994   21.7916 C   0  0  0  0  0  0  0  0  0  0  0  0
    5.7187   -2.1975   21.7425 O   0  0  0  0  0  0  0  0  0  0  0  0
    5.2255   -3.2733   22.5633 C   0  0  0  0  0  0  0  0  0  0  0  0
    4.1586   -3.1995   22.3748 H   0  0  0  0  0  0  0  0  0  0  0  0
    5.4223   -3.1806   24.0852 C   0  0  0  0  0  0  0  0  0  0  0  0
    6.4200   -3.5302   24.3783 H   0  0  0  0  0  0  0  0  0  0  0  0
    5.3185   -2.1604   24.4605 H   0  0  0  0  0  0  0  0  0  0  0  0
    4.3743   -4.1070   24.7435 C   0  0  0  0  0  0  0  0  0  0  0  0
    4.6903   -4.3775   25.7693 H   0  0  0  0  0  0  0  0  0  0  0  0
    3.4320   -3.5512   24.8477 H   0  0  0  0  0  0  0  0  0  0  0  0
    4.0944   -5.2936   23.9113 N   0  0  0  0  0  0  0  0  0  0  0  0
    3.4291   -6.3509   24.6478 C   0  0  0  0  0  0  0  0  0  0  0  0
    3.0766   -7.1343   23.9653 H   0  0  0  0  0  0  0  0  0  0  0  0
    2.5421   -5.9634   25.1643 H   0  0  0  0  0  0  0  0  0  0  0  0
    4.0691   -6.8332   25.4111 H   0  0  0  0  0  0  0  0  0  0  0  0
    5.2477   -5.7517   23.1319 C   0  0  0  0  0  0  0  0  0  0  0  0
    4.9640   -6.6686   22.6030 H   0  0  0  0  0  0  0  0  0  0  0  0
    6.1040   -6.0118   23.7893 H   0  0  0  0  0  0  0  0  0  0  0  0
    5.6802   -4.6703   22.1037 C   0  0  0  0  0  0  0  0  0  0  0  0
    5.2386   -4.8783   21.1256 H   0  0  0  0  0  0  0  0  0  0  0  0
    6.7682   -4.7009   21.9803 H   0  0  0  0  0  0  0  0  0  0  0  0
    7.9908   -2.1020   22.8087 C   0  0  0  0  0  0  0  0  0  0  0  0
    7.7389   -1.7289   23.8125 H   0  0  0  0  0  0  0  0  0  0  0  0
    8.0940   -3.1919   22.8784 H   0  0  0  0  0  0  0  0  0  0  0  0
    9.1643   -1.4700   22.2666 N   0  0  0  0  0  0  0  0  0  0  0  0
   10.0960   -1.4776   22.6407 H   0  0  0  0  0  0  0  0  0  0  0  0
    8.9097   -0.6819   21.1775 C   0  0  0  0  0  0  0  0  0  0  0  0
    9.7698   -0.0343   20.6118 O   0  0  0  0  0  0  0  0  0  0  0  0
    5.4876    0.5965   20.0926 C   0  0  0  0  0  0  0  0  0  0  0  0
    5.0519    0.5577   21.0902 H   0  0  0  0  0  0  0  0  0  0  0  0
    4.8455    1.2860   19.0607 C   0  0  0  0  0  0  0  0  0  0  0  0
    3.9034    1.7962   19.2177 H   0  0  0  0  0  0  0  0  0  0  0  0
  1  2  1  0
  2  3  2  0
  3  4  1  0
  4  5  1  0
  4  6  2  0
  6  7  1  0
  7  8  2  0
  8  9  1  0
  9 10  1  0
 10 11  1  0
 10 12  1  0
 12 13  1  0
 12 14  1  0
 12 15  1  0
 15 16  1  0
 15 17  1  0
 15 18  1  0
 18 19  1  0
 19 20  1  0
 19 21  1  0
 19 22  1  0
 18 23  1  0
 23 24  1  0
 23 25  1  0
 23 26  1  0
 26 27  1  0
 26 28  1  0
  8 29  1  0
 29 30  1  0
 29 31  1  0
 29 32  1  0
 32 33  1  0
 32 34  1  0
 34 35  2  0
  6 36  1  0
 36 37  1  0
 36 38  2  0
 38 39  1  0
 38  2  1  0
 34  7  1  0
 26 10  1  0
M  END
>  <cnnaffinity>  (1) 
-4.6399

>  <filename>  (1) 
CN1CCC(OC2=C(c3cccnc3)C(=O)NC2)CC1

$$$$
