
     RDKit          3D

 41 44  0  0  0  0  0  0  0  0999 V2000
    5.1447    1.6978   17.0698 H   0  0  0  0  0  0  0  0  0  0  0  0
    5.5735    1.1766   17.9240 C   0  0  0  0  0  0  0  0  0  0  0  0
    6.7251    0.5321   17.7004 N   0  0  0  0  0  0  0  0  0  0  0  0
    7.2818   -0.0965   18.7394 C   0  0  0  0  0  0  0  0  0  0  0  0
    8.2328   -0.5818   18.5510 H   0  0  0  0  0  0  0  0  0  0  0  0
    6.7132   -0.1570   20.0200 C   0  0  0  0  0  0  0  0  0  0  0  0
    7.4689   -0.8865   21.0687 C   0  0  0  0  0  0  0  0  0  0  0  0
    8.7718   -0.8091   20.9725 N   0  0  0  0  0  0  0  0  0  0  0  0
    9.5211   -1.3942   21.9482 C   0  0  0  0  0  0  0  0  0  0  0  0
   10.7307   -1.4060   21.9924 O   0  0  0  0  0  0  0  0  0  0  0  0
    8.8733   -2.0415   22.9926 N   0  0  0  0  0  0  0  0  0  0  0  0
    9.5444   -2.3577   23.6656 H   0  0  0  0  0  0  0  0  0  0  0  0
    7.5352   -2.1997   23.0585 C   0  0  0  0  0  0  0  0  0  0  0  0
    7.0429   -2.8931   24.1078 N   0  0  0  0  0  0  0  0  0  0  0  0
    7.8423   -3.5139   25.1740 C   0  0  0  0  0  0  0  0  0  0  0  0
    8.7147   -4.0391   24.7660 H   0  0  0  0  0  0  0  0  0  0  0  0
    8.2016   -2.7496   25.8823 H   0  0  0  0  0  0  0  0  0  0  0  0
    6.8618   -4.4827   25.8509 C   0  0  0  0  0  0  0  0  0  0  0  0
    6.8504   -5.4478   25.3224 H   0  0  0  0  0  0  0  0  0  0  0  0
    7.1264   -4.6665   26.8991 H   0  0  0  0  0  0  0  0  0  0  0  0
    5.5022   -3.7784   25.7076 C   0  0  2  0  0  0  0  0  0  0  0  0
    5.3975   -3.0563   26.5243 H   0  0  0  0  0  0  0  0  0  0  0  0
    4.2269   -4.6451   25.5884 C   0  0  0  0  0  0  0  0  0  0  0  0
    3.4176   -4.2385   26.2175 H   0  0  0  0  0  0  0  0  0  0  0  0
    4.4071   -5.6664   25.9609 H   0  0  0  0  0  0  0  0  0  0  0  0
    3.8178   -4.6157   24.1726 N   0  0  0  0  0  0  0  0  0  0  0  0
    3.4237   -5.8675   23.5585 C   0  0  0  0  0  0  0  0  0  0  0  0
    2.5579   -6.3036   24.0675 H   0  0  0  0  0  0  0  0  0  0  0  0
    3.1199   -5.6684   22.5239 H   0  0  0  0  0  0  0  0  0  0  0  0
    4.2334   -6.6239   23.5281 H   0  0  0  0  0  0  0  0  0  0  0  0
    4.8106   -3.8924   23.3820 C   0  0  0  0  0  0  0  0  0  0  0  0
    5.5187   -4.5561   22.8520 H   0  0  0  0  0  0  0  0  0  0  0  0
    4.3074   -3.2983   22.6066 H   0  0  0  0  0  0  0  0  0  0  0  0
    5.5995   -3.0208   24.3757 C   0  0  2  0  0  0  0  0  0  0  0  0
    5.1099   -2.0448   24.4826 H   0  0  0  0  0  0  0  0  0  0  0  0
    6.7807   -1.6240   22.0498 C   0  0  0  0  0  0  0  0  0  0  0  0
    5.7155   -1.7744   22.0120 H   0  0  0  0  0  0  0  0  0  0  0  0
    5.4990    0.5070   20.2350 C   0  0  0  0  0  0  0  0  0  0  0  0
    5.0088    0.4970   21.2117 H   0  0  0  0  0  0  0  0  0  0  0  0
    4.9298    1.2049   19.1668 C   0  0  0  0  0  0  0  0  0  0  0  0
    4.0102    1.7709   19.2784 H   0  0  0  0  0  0  0  0  0  0  0  0
  1  2  1  0
  2  3  2  0
  3  4  1  0
  4  5  1  0
  4  6  2  0
  6  7  1  0
  7  8  2  0
  8  9  1  0
  9 10  2  0
  9 11  1  0
 11 12  1  0
 11 13  1  0
 13 14  1  0
 14 15  1  0
 15 16  1  0
 15 17  1  0
 15 18  1  0
 18 19  1  0
 18 20  1  0
 18 21  1  0
 21 22  1  1
 21 23  1  0
 23 24  1  0
 23 25  1  0
 23 26  1  0
 26 27  1  0
 27 28  1  0
 27 29  1  0
 27 30  1  0
 26 31  1  0
 31 32  1  0
 31 33  1  0
 31 34  1  0
 34 35  1  1
 13 36  2  0
 36 37  1  0
  6 38  1  0
 38 39  1  0
 38 40  2  0
 40 41  1  0
 40  2  1  0
 36  7  1  0
 34 14  1  0
 34 21  1  0
M  END
>  <cnnaffinity>  (1) 
-5.32704

>  <filename>  (1) 
CN1C[C@H]2CCN(c3cc(-c4cccnc4)nc(=O)[nH]3)[C@H]2C1

$$$$
