
     RDKit          3D

 41 44  0  0  0  0  0  0  0  0999 V2000
    5.1210    1.7820   16.9912 H   0  0  0  0  0  0  0  0  0  0  0  0
    5.6105    1.3155   17.8442 C   0  0  0  0  0  0  0  0  0  0  0  0
    6.7946    0.7206   17.6071 N   0  0  0  0  0  0  0  0  0  0  0  0
    7.4198    0.1333   18.6414 C   0  0  0  0  0  0  0  0  0  0  0  0
    8.3888   -0.3212   18.4287 H   0  0  0  0  0  0  0  0  0  0  0  0
    6.8898    0.0701   19.9546 C   0  0  0  0  0  0  0  0  0  0  0  0
    7.4330   -0.6869   21.0360 N   0  0  0  0  0  0  0  0  0  0  0  0
    8.7501   -0.8476   21.4648 C   0  0  0  0  0  0  0  0  0  0  0  0
    9.6411    0.1957   21.3604 N   0  0  0  0  0  0  0  0  0  0  0  0
   10.9377   -0.0406   22.0184 C   0  0  0  0  0  0  0  0  0  0  0  0
   10.7687   -0.4587   23.0199 H   0  0  0  0  0  0  0  0  0  0  0  0
   11.5216   -0.7810   21.4588 H   0  0  0  0  0  0  0  0  0  0  0  0
   11.6306    1.3188   22.0503 C   0  0  0  0  0  0  0  0  0  0  0  0
   12.1529    1.4900   22.9970 H   0  0  0  0  0  0  0  0  0  0  0  0
   12.3867    1.3835   21.2696 H   0  0  0  0  0  0  0  0  0  0  0  0
   10.5308    2.3573   21.8093 C   0  0  2  0  0  0  0  0  0  0  0  0
   10.7941    2.9636   20.9483 H   0  0  0  0  0  0  0  0  0  0  0  0
   10.2200    3.2379   23.0371 C   0  0  0  0  0  0  0  0  0  0  0  0
   10.5989    2.7496   23.9466 H   0  0  0  0  0  0  0  0  0  0  0  0
   10.6889    4.2318   22.9789 H   0  0  0  0  0  0  0  0  0  0  0  0
    8.7632    3.3266   23.1764 N   0  0  0  0  0  0  0  0  0  0  0  0
    8.1772    4.4715   22.4904 C   0  0  0  0  0  0  0  0  0  0  0  0
    7.1396    4.6036   22.8228 H   0  0  0  0  0  0  0  0  0  0  0  0
    8.1930    4.4079   21.3878 H   0  0  0  0  0  0  0  0  0  0  0  0
    8.7347    5.3715   22.7788 H   0  0  0  0  0  0  0  0  0  0  0  0
    8.2949    2.0049   22.7027 C   0  0  0  0  0  0  0  0  0  0  0  0
    8.4271    1.2560   23.4981 H   0  0  0  0  0  0  0  0  0  0  0  0
    7.2300    2.0262   22.4325 H   0  0  0  0  0  0  0  0  0  0  0  0
    9.2158    1.5989   21.5050 C   0  0  2  0  0  0  0  0  0  0  0  0
    8.7467    1.9411   20.5730 H   0  0  0  0  0  0  0  0  0  0  0  0
    9.0383   -1.9771   21.9974 N   0  0  0  0  0  0  0  0  0  0  0  0
    7.8129   -2.7663   22.0452 C   0  0  0  0  0  0  0  0  0  0  0  0
    7.9016   -3.6657   21.4164 H   0  0  0  0  0  0  0  0  0  0  0  0
    7.6160   -3.1124   23.0714 H   0  0  0  0  0  0  0  0  0  0  0  0
    6.6841   -1.8413   21.5405 C   0  0  0  0  0  0  0  0  0  0  0  0
    6.0834   -2.2871   20.7375 H   0  0  0  0  0  0  0  0  0  0  0  0
    5.9893   -1.5571   22.3424 H   0  0  0  0  0  0  0  0  0  0  0  0
    5.6671    0.7212   20.1762 C   0  0  0  0  0  0  0  0  0  0  0  0
    5.2530    0.6988   21.1847 H   0  0  0  0  0  0  0  0  0  0  0  0
    5.0220    1.3529   19.1120 C   0  0  0  0  0  0  0  0  0  0  0  0
    4.0776    1.8701   19.2523 H   0  0  0  0  0  0  0  0  0  0  0  0
  1  2  1  0
  2  3  2  0
  3  4  1  0
  4  5  1  0
  4  6  2  0
  6  7  1  0
  7  8  1  0
  8  9  1  0
  9 10  1  0
 10 11  1  0
 10 12  1  0
 10 13  1  0
 13 14  1  0
 13 15  1  0
 13 16  1  0
 16 17  1  6
 16 18  1  0
 18 19  1  0
 18 20  1  0
 18 21  1  0
 21 22  1  0
 22 23  1  0
 22 24  1  0
 22 25  1  0
 21 26  1  0
 26 27  1  0
 26 28  1  0
 26 29  1  0
 29 30  1  6
  8 31  2  0
 31 32  1  0
 32 33  1  0
 32 34  1  0
 32 35  1  0
 35 36  1  0
 35 37  1  0
  6 38  1  0
 38 39  1  0
 38 40  2  0
 40 41  1  0
 40  2  1  0
 35  7  1  0
 29  9  1  0
 29 16  1  0
M  END
>  <cnnaffinity>  (1) 
-5.26852

>  <filename>  (1) 
CN1C[C@H]2CCN(C3=NCCN3c3cccnc3)[C@H]2C1

$$$$
