
     RDKit          3D

 46 48  0  0  0  0  0  0  0  0999 V2000
    4.9215    1.8168   16.9851 H   0  0  0  0  0  0  0  0  0  0  0  0
    5.3900    1.3061   17.8252 C   0  0  0  0  0  0  0  0  0  0  0  0
    6.5456    0.6770   17.5597 N   0  0  0  0  0  0  0  0  0  0  0  0
    7.1597    0.0628   18.5787 C   0  0  0  0  0  0  0  0  0  0  0  0
    8.1043   -0.4202   18.3195 H   0  0  0  0  0  0  0  0  0  0  0  0
    6.6776    0.0079   19.9052 C   0  0  0  0  0  0  0  0  0  0  0  0
    7.5160   -0.7454   20.9513 C   0  0  1  0  0  0  0  0  0  0  0  0
    7.7640   -1.7179   20.5026 H   0  0  0  0  0  0  0  0  0  0  0  0
    8.8591   -0.0323   21.2708 C   0  0  0  0  0  0  0  0  0  0  0  0
    9.5439   -0.7747   21.7038 H   0  0  0  0  0  0  0  0  0  0  0  0
    9.3127    0.3016   20.3301 H   0  0  0  0  0  0  0  0  0  0  0  0
    8.6837    1.1406   22.2474 C   0  0  0  0  0  0  0  0  0  0  0  0
    8.0321    1.9008   21.7876 H   0  0  0  0  0  0  0  0  0  0  0  0
    9.6488    1.6311   22.4300 H   0  0  0  0  0  0  0  0  0  0  0  0
    8.0585    0.6444   23.5631 C   0  0  0  0  0  0  0  0  0  0  0  0
    7.9674    1.4577   24.2951 H   0  0  0  0  0  0  0  0  0  0  0  0
    8.7158   -0.1110   24.0195 H   0  0  0  0  0  0  0  0  0  0  0  0
    6.6817    0.0028   23.2972 C   0  0  0  0  0  0  0  0  0  0  0  0
    5.9658    0.7686   22.9764 H   0  0  0  0  0  0  0  0  0  0  0  0
    6.2776   -0.4304   24.2214 H   0  0  0  0  0  0  0  0  0  0  0  0
    6.7402   -1.1160   22.2381 C   0  0  2  0  0  0  0  0  0  0  0  0
    5.7284   -1.3935   21.9035 H   0  0  0  0  0  0  0  0  0  0  0  0
    7.3743   -2.2595   22.8241 O   0  0  0  0  0  0  0  0  0  0  0  0
    6.5090   -3.2127   23.4237 C   0  0  0  0  0  0  0  0  0  0  0  0
    5.5979   -2.7268   23.8271 H   0  0  0  0  0  0  0  0  0  0  0  0
    7.2471   -3.8752   24.5841 C   0  0  0  0  0  0  0  0  0  0  0  0
    8.1982   -4.2820   24.2161 H   0  0  0  0  0  0  0  0  0  0  0  0
    7.4804   -3.1168   25.3435 H   0  0  0  0  0  0  0  0  0  0  0  0
    6.3759   -4.9793   25.1935 C   0  0  0  0  0  0  0  0  0  0  0  0
    5.4939   -4.5097   25.6838 H   0  0  0  0  0  0  0  0  0  0  0  0
    6.9351   -5.5183   25.9732 H   0  0  0  0  0  0  0  0  0  0  0  0
    5.9584   -5.9583   24.1875 N   0  0  0  0  0  0  0  0  0  0  0  0
    5.1676   -7.0290   24.7798 C   0  0  0  0  0  0  0  0  0  0  0  0
    5.7065   -7.4582   25.6356 H   0  0  0  0  0  0  0  0  0  0  0  0
    5.0277   -7.8252   24.0380 H   0  0  0  0  0  0  0  0  0  0  0  0
    4.1690   -6.6972   25.1280 H   0  0  0  0  0  0  0  0  0  0  0  0
    5.2562   -5.3574   23.0522 C   0  0  0  0  0  0  0  0  0  0  0  0
    5.0358   -6.1597   22.3330 H   0  0  0  0  0  0  0  0  0  0  0  0
    4.2800   -4.9275   23.3714 H   0  0  0  0  0  0  0  0  0  0  0  0
    6.0899   -4.2608   22.3859 C   0  0  0  0  0  0  0  0  0  0  0  0
    6.9985   -4.6796   21.9323 H   0  0  0  0  0  0  0  0  0  0  0  0
    5.5093   -3.7805   21.5857 H   0  0  0  0  0  0  0  0  0  0  0  0
    5.4537    0.6587   20.1421 C   0  0  0  0  0  0  0  0  0  0  0  0
    4.9882    0.6522   21.1268 H   0  0  0  0  0  0  0  0  0  0  0  0
    4.8055    1.3217   19.0918 C   0  0  0  0  0  0  0  0  0  0  0  0
    3.8647    1.8465   19.2441 H   0  0  0  0  0  0  0  0  0  0  0  0
  1  2  1  0
  2  3  2  0
  3  4  1  0
  4  5  1  0
  4  6  2  0
  6  7  1  0
  7  8  1  6
  7  9  1  0
  9 10  1  0
  9 11  1  0
  9 12  1  0
 12 13  1  0
 12 14  1  0
 12 15  1  0
 15 16  1  0
 15 17  1  0
 15 18  1  0
 18 19  1  0
 18 20  1  0
 18 21  1  0
 21 22  1  6
 21 23  1  0
 23 24  1  0
 24 25  1  0
 24 26  1  0
 26 27  1  0
 26 28  1  0
 26 29  1  0
 29 30  1  0
 29 31  1  0
 29 32  1  0
 32 33  1  0
 33 34  1  0
 33 35  1  0
 33 36  1  0
 32 37  1  0
 37 38  1  0
 37 39  1  0
 37 40  1  0
 40 41  1  0
 40 42  1  0
  6 43  1  0
 43 44  1  0
 43 45  2  0
 45 46  1  0
 45  2  1  0
 21  7  1  0
 40 24  1  0
M  END
>  <cnnaffinity>  (1) 
-5.16402

>  <filename>  (1) 
CN1CCC(O[C@H]2CCCC[C@@H]2c2cccnc2)CC1

$$$$
