
     RDKit          3D

 44 48  0  0  0  0  0  0  0  0999 V2000
   10.3022    6.1305   25.2018 C   0  0  0  0  0  0  0  0  0  0  0  0
    9.6963    4.8459   24.9171 N   0  0  0  0  0  0  0  0  0  0  0  0
    9.9385    4.0700   23.8173 C   0  0  0  0  0  0  0  0  0  0  0  0
    9.1486    2.9372   23.8364 C   0  0  0  0  0  0  0  0  0  0  0  0
    9.0422    1.8414   22.8887 C   0  0  0  0  0  0  0  0  0  0  0  0
    7.9796    1.0652   22.6833 N   0  0  0  0  0  0  0  0  0  0  0  0
    8.3599    0.2867   21.6487 C   0  0  0  0  0  0  0  0  0  0  0  0
    7.4315   -0.6873   20.9973 C   0  0  0  0  0  0  0  0  0  0  0  0
    6.6385   -0.0358   19.8678 C   0  0  0  0  0  0  0  0  0  0  0  0
    5.4364    0.6370   20.1263 C   0  0  0  0  0  0  0  0  0  0  0  0
    4.7932    1.3104   19.0824 C   0  0  0  0  0  0  0  0  0  0  0  0
    5.3862    1.3015   17.8163 C   0  0  0  0  0  0  0  0  0  0  0  0
    6.5442    0.6787   17.5482 N   0  0  0  0  0  0  0  0  0  0  0  0
    7.1478    0.0445   18.5602 C   0  0  0  0  0  0  0  0  0  0  0  0
    8.1062   -0.4209   18.3269 H   0  0  0  0  0  0  0  0  0  0  0  0
    4.9185    1.8166   16.9777 H   0  0  0  0  0  0  0  0  0  0  0  0
    3.8649    1.8541   19.2369 H   0  0  0  0  0  0  0  0  0  0  0  0
    5.0224    0.6425   21.1360 H   0  0  0  0  0  0  0  0  0  0  0  0
    8.0285   -1.5299   20.6311 H   0  0  0  0  0  0  0  0  0  0  0  0
    6.7630   -1.0592   21.7802 H   0  0  0  0  0  0  0  0  0  0  0  0
    9.5863    0.4873   21.2161 N   0  0  0  0  0  0  0  0  0  0  0  0
   10.0344    1.4722   22.0337 N   0  0  0  0  0  0  0  0  0  0  0  0
   11.4156    1.9150   22.0069 C   0  0  0  0  0  0  0  0  0  0  0  0
   12.2248    1.7448   23.2812 C   0  0  0  0  0  0  0  0  0  0  0  0
   12.4842    0.8636   22.1064 C   0  0  0  0  0  0  0  0  0  0  0  0
   13.4245    1.0285   21.6077 H   0  0  0  0  0  0  0  0  0  0  0  0
   12.1446   -0.1667   22.0876 H   0  0  0  0  0  0  0  0  0  0  0  0
   12.9709    2.5021   23.5053 H   0  0  0  0  0  0  0  0  0  0  0  0
   11.7361    1.3212   24.1558 H   0  0  0  0  0  0  0  0  0  0  0  0
   11.5612    2.7740   21.3452 H   0  0  0  0  0  0  0  0  0  0  0  0
    8.3563    3.0315   25.0383 C   0  0  0  0  0  0  0  0  0  0  0  0
    7.3694    2.2100   25.6285 C   0  0  0  0  0  0  0  0  0  0  0  0
    6.7676    2.6158   26.8097 C   0  0  0  0  0  0  0  0  0  0  0  0
    7.1340    3.8347   27.4278 C   0  0  0  0  0  0  0  0  0  0  0  0
    8.1077    4.6522   26.8728 C   0  0  0  0  0  0  0  0  0  0  0  0
    8.7219    4.2349   25.6772 C   0  0  0  0  0  0  0  0  0  0  0  0
    8.3818    5.5937   27.3424 H   0  0  0  0  0  0  0  0  0  0  0  0
    6.6397    4.1316   28.3473 H   0  0  0  0  0  0  0  0  0  0  0  0
    6.0010    1.9993   27.2665 H   0  0  0  0  0  0  0  0  0  0  0  0
    7.0866    1.2805   25.1423 H   0  0  0  0  0  0  0  0  0  0  0  0
   10.6707    4.4224   23.0947 H   0  0  0  0  0  0  0  0  0  0  0  0
   11.1076    6.3150   24.4856 H   0  0  0  0  0  0  0  0  0  0  0  0
   10.7210    6.1288   26.2138 H   0  0  0  0  0  0  0  0  0  0  0  0
    9.5613    6.9344   25.1208 H   0  0  0  0  0  0  0  0  0  0  0  0
  1  2  1  0
  2  3  1  0
  3  4  2  0
  4  5  1  0
  5  6  2  0
  6  7  1  0
  7  8  1  0
  8  9  1  0
  9 10  2  0
 10 11  1  0
 11 12  2  0
 12 13  1  0
 13 14  2  0
 14 15  1  0
 12 16  1  0
 11 17  1  0
 10 18  1  0
  8 19  1  0
  8 20  1  0
  7 21  2  0
 21 22  1  0
 22 23  1  0
 23 24  1  0
 24 25  1  0
 25 26  1  0
 25 27  1  0
 24 28  1  0
 24 29  1  0
 23 30  1  0
  4 31  1  0
 31 32  2  0
 32 33  1  0
 33 34  2  0
 34 35  1  0
 35 36  2  0
 35 37  1  0
 34 38  1  0
 33 39  1  0
 32 40  1  0
  3 41  1  0
  1 42  1  0
  1 43  1  0
  1 44  1  0
 36  2  1  0
 22  5  1  0
 25 23  1  0
 36 31  1  0
 14  9  1  0
M  END
>  <cnnaffinity>  (1) 
-5.60273

>  <filename>  (1) 
Cn1cc(-c2nc(Cc3cccnc3)nn2C2CC2)c2ccccc21

$$$$
