
     RDKit          3D

 25 26  0  0  0  0  0  0  0  0999 V2000
    5.6640   -1.6857   21.6053 H   0  0  0  0  0  0  0  0  0  0  0  0
    6.7188   -1.5202   21.7843 C   0  0  0  0  0  0  0  0  0  0  0  0
    7.3954   -0.6778   20.9449 C   0  0  0  0  0  0  0  0  0  0  0  0
    9.2844   -0.4109   21.0720 Br  0  0  0  0  0  0  0  0  0  0  0  0
    6.6606    0.0098   19.8977 C   0  0  0  0  0  0  0  0  0  0  0  0
    7.1911    0.0622   18.6022 C   0  0  0  0  0  0  0  0  0  0  0  0
    8.1341   -0.4390   18.3935 H   0  0  0  0  0  0  0  0  0  0  0  0
    6.5689    0.6805   17.5835 N   0  0  0  0  0  0  0  0  0  0  0  0
    5.3998    1.2932   17.8391 C   0  0  0  0  0  0  0  0  0  0  0  0
    4.8930    1.7795   17.0133 H   0  0  0  0  0  0  0  0  0  0  0  0
    4.8107    1.3080   19.1105 C   0  0  0  0  0  0  0  0  0  0  0  0
    3.8763    1.8404   19.2668 H   0  0  0  0  0  0  0  0  0  0  0  0
    5.4418    0.6417   20.1590 C   0  0  0  0  0  0  0  0  0  0  0  0
    5.0102    0.6303   21.1566 H   0  0  0  0  0  0  0  0  0  0  0  0
    7.3171   -2.2266   22.8993 C   0  0  0  0  0  0  0  0  0  0  0  0
    8.4798   -1.9539   23.4549 N   0  0  0  0  0  0  0  0  0  0  0  0
    8.6108   -2.8494   24.5075 C   0  0  0  0  0  0  0  0  0  0  0  0
    9.4602   -2.8851   25.1883 H   0  0  0  0  0  0  0  0  0  0  0  0
    7.5173   -3.6714   24.5674 C   0  0  0  0  0  0  0  0  0  0  0  0
    7.3213   -4.4645   25.2772 H   0  0  0  0  0  0  0  0  0  0  0  0
    6.6921   -3.2840   23.5419 N   0  0  0  0  0  0  0  0  0  0  0  0
    5.3794   -3.8685   23.2363 C   0  0  0  0  0  0  0  0  0  0  0  0
    5.2077   -4.7646   23.8421 H   0  0  0  0  0  0  0  0  0  0  0  0
    5.3301   -4.1496   22.1808 H   0  0  0  0  0  0  0  0  0  0  0  0
    4.5905   -3.1450   23.4567 H   0  0  0  0  0  0  0  0  0  0  0  0
  1  2  1  0
  2  3  2  3
  3  4  1  0
  3  5  1  0
  5  6  2  0
  6  7  1  0
  6  8  1  0
  8  9  2  0
  9 10  1  0
  9 11  1  0
 11 12  1  0
 11 13  2  0
 13 14  1  0
  2 15  1  0
 15 16  2  0
 16 17  1  0
 17 18  1  0
 17 19  2  0
 19 20  1  0
 19 21  1  0
 21 22  1  0
 22 23  1  0
 22 24  1  0
 22 25  1  0
 13  5  1  0
 21 15  1  0
M  END
>  <cnnaffinity>  (1) 
-4.61544

>  <filename>  (1) 
Cn1ccnc1C=C(Br)c1cccnc1

$$$$
