
     RDKit          3D

 36 38  0  0  0  0  0  0  0  0999 V2000
    9.2079   -3.1924   21.7809 H   0  0  0  0  0  0  0  0  0  0  0  0
    8.6354   -2.2727   21.7838 C   0  0  0  0  0  0  0  0  0  0  0  0
    8.1010   -1.7858   20.7213 N   0  0  0  0  0  0  0  0  0  0  0  0
    7.3866   -0.6389   20.9994 C   0  0  0  0  0  0  0  0  0  0  0  0
    6.6454    0.0199   19.9201 C   0  0  0  0  0  0  0  0  0  0  0  0
    7.1616    0.0351   18.6083 C   0  0  0  0  0  0  0  0  0  0  0  0
    8.1084   -0.4445   18.3746 H   0  0  0  0  0  0  0  0  0  0  0  0
    6.5639    0.6532   17.5850 N   0  0  0  0  0  0  0  0  0  0  0  0
    5.4037    1.2835   17.8293 C   0  0  0  0  0  0  0  0  0  0  0  0
    4.9553    1.7966   16.9815 H   0  0  0  0  0  0  0  0  0  0  0  0
    4.7921    1.3040   19.0863 C   0  0  0  0  0  0  0  0  0  0  0  0
    3.8628    1.8430   19.2223 H   0  0  0  0  0  0  0  0  0  0  0  0
    5.4197    0.6666   20.1523 C   0  0  0  0  0  0  0  0  0  0  0  0
    4.9962    0.6760   21.1552 H   0  0  0  0  0  0  0  0  0  0  0  0
    7.4477   -0.2459   22.3083 C   0  0  0  0  0  0  0  0  0  0  0  0
    6.8879    0.8682   22.7894 O   0  0  0  0  0  0  0  0  0  0  0  0
    6.9121    1.1700   24.1959 C   0  0  0  0  0  0  0  0  0  0  0  0
    7.9222    0.9648   24.5851 H   0  0  0  0  0  0  0  0  0  0  0  0
    6.5820    2.6581   24.3010 C   0  0  0  0  0  0  0  0  0  0  0  0
    5.6374    2.8541   23.7727 H   0  0  0  0  0  0  0  0  0  0  0  0
    7.3615    3.2515   23.8078 H   0  0  0  0  0  0  0  0  0  0  0  0
    6.4458    3.0695   25.7692 C   0  0  0  0  0  0  0  0  0  0  0  0
    7.4364    2.9822   26.2701 H   0  0  0  0  0  0  0  0  0  0  0  0
    6.1379    4.1204   25.8425 H   0  0  0  0  0  0  0  0  0  0  0  0
    5.4330    2.2599   26.4481 N   0  0  0  0  0  0  0  0  0  0  0  0
    5.2279    2.6951   27.8234 C   0  0  0  0  0  0  0  0  0  0  0  0
    4.4221    2.1111   28.2832 H   0  0  0  0  0  0  0  0  0  0  0  0
    4.9297    3.7497   27.8476 H   0  0  0  0  0  0  0  0  0  0  0  0
    6.1309    2.5830   28.4578 H   0  0  0  0  0  0  0  0  0  0  0  0
    5.7465    0.8318   26.3871 C   0  0  0  0  0  0  0  0  0  0  0  0
    4.9415    0.2913   26.9007 H   0  0  0  0  0  0  0  0  0  0  0  0
    6.6933    0.6046   26.9277 H   0  0  0  0  0  0  0  0  0  0  0  0
    5.8537    0.3504   24.9390 C   0  0  0  0  0  0  0  0  0  0  0  0
    6.0922   -0.7196   24.9147 H   0  0  0  0  0  0  0  0  0  0  0  0
    4.8880    0.4925   24.4363 H   0  0  0  0  0  0  0  0  0  0  0  0
    8.3823   -1.3718   23.2512 S   0  0  0  0  0  0  0  0  0  0  0  0
  1  2  1  0
  2  3  2  0
  3  4  1  0
  4  5  1  0
  5  6  2  0
  6  7  1  0
  6  8  1  0
  8  9  2  0
  9 10  1  0
  9 11  1  0
 11 12  1  0
 11 13  2  0
 13 14  1  0
  4 15  2  0
 15 16  1  0
 16 17  1  0
 17 18  1  0
 17 19  1  0
 19 20  1  0
 19 21  1  0
 19 22  1  0
 22 23  1  0
 22 24  1  0
 22 25  1  0
 25 26  1  0
 26 27  1  0
 26 28  1  0
 26 29  1  0
 25 30  1  0
 30 31  1  0
 30 32  1  0
 30 33  1  0
 33 34  1  0
 33 35  1  0
 15 36  1  0
 36  2  1  0
 13  5  1  0
 33 17  1  0
M  END
>  <cnnaffinity>  (1) 
-4.71529

>  <filename>  (1) 
CN1CCC(Oc2scnc2-c2cccnc2)CC1

$$$$
