
     RDKit          3D

 41 44  0  0  0  0  0  0  0  0999 V2000
    4.9561    1.9118   16.8350 H   0  0  0  0  0  0  0  0  0  0  0  0
    5.3898    1.3859   17.6809 C   0  0  0  0  0  0  0  0  0  0  0  0
    6.5380    0.7293   17.4458 N   0  0  0  0  0  0  0  0  0  0  0  0
    7.1213    0.1013   18.4803 C   0  0  0  0  0  0  0  0  0  0  0  0
    8.0203   -0.4673   18.2441 H   0  0  0  0  0  0  0  0  0  0  0  0
    6.6090    0.1175   19.8032 C   0  0  0  0  0  0  0  0  0  0  0  0
    7.2122   -0.4779   20.9212 N   0  0  0  0  0  0  0  0  0  0  0  0
    6.6564   -0.4054   21.7651 H   0  0  0  0  0  0  0  0  0  0  0  0
    8.6034   -0.6097   21.1703 C   0  0  0  0  0  0  0  0  0  0  0  0
    9.6700    0.2802   20.8707 C   0  0  0  0  0  0  0  0  0  0  0  0
    9.6282    1.2487   20.3869 H   0  0  0  0  0  0  0  0  0  0  0  0
   10.8458   -0.1885   21.2666 N   0  0  0  0  0  0  0  0  0  0  0  0
   10.5456   -1.3732   21.8529 N   0  0  0  0  0  0  0  0  0  0  0  0
   11.2795   -2.0218   22.0951 H   0  0  0  0  0  0  0  0  0  0  0  0
    9.2196   -1.6729   21.8348 C   0  0  0  0  0  0  0  0  0  0  0  0
    8.7194   -2.8425   22.3732 N   0  0  0  0  0  0  0  0  0  0  0  0
    7.3702   -3.3227   22.0833 C   0  0  0  0  0  0  0  0  0  0  0  0
    7.1091   -3.1431   21.0330 H   0  0  0  0  0  0  0  0  0  0  0  0
    6.6071   -2.8270   22.7052 H   0  0  0  0  0  0  0  0  0  0  0  0
    7.4665   -4.8140   22.4063 C   0  0  0  0  0  0  0  0  0  0  0  0
    6.4960   -5.2571   22.6579 H   0  0  0  0  0  0  0  0  0  0  0  0
    7.8527   -5.3269   21.5206 H   0  0  0  0  0  0  0  0  0  0  0  0
    8.5078   -4.9266   23.5188 C   0  0  2  0  0  0  0  0  0  0  0  0
    9.1078   -5.8244   23.3912 H   0  0  0  0  0  0  0  0  0  0  0  0
    8.0248   -4.9266   24.9752 C   0  0  0  0  0  0  0  0  0  0  0  0
    7.0495   -4.4111   25.0842 H   0  0  0  0  0  0  0  0  0  0  0  0
    7.9079   -5.9434   25.3774 H   0  0  0  0  0  0  0  0  0  0  0  0
    9.1079   -4.2476   25.6737 N   0  0  0  0  0  0  0  0  0  0  0  0
    8.8406   -3.9238   27.0586 C   0  0  0  0  0  0  0  0  0  0  0  0
    7.9654   -3.2652   27.2209 H   0  0  0  0  0  0  0  0  0  0  0  0
    9.7155   -3.4158   27.4656 H   0  0  0  0  0  0  0  0  0  0  0  0
    8.6809   -4.8385   27.6432 H   0  0  0  0  0  0  0  0  0  0  0  0
    9.4970   -3.1146   24.8235 C   0  0  0  0  0  0  0  0  0  0  0  0
   10.5296   -2.8198   25.0331 H   0  0  0  0  0  0  0  0  0  0  0  0
    8.8512   -2.2277   24.9404 H   0  0  0  0  0  0  0  0  0  0  0  0
    9.3913   -3.6621   23.3857 C   0  0  2  0  0  0  0  0  0  0  0  0
   10.3955   -3.9169   23.0472 H   0  0  0  0  0  0  0  0  0  0  0  0
    5.3628    0.7305   19.9991 C   0  0  0  0  0  0  0  0  0  0  0  0
    4.8961    0.6760   20.9852 H   0  0  0  0  0  0  0  0  0  0  0  0
    4.7568    1.3906   18.9317 C   0  0  0  0  0  0  0  0  0  0  0  0
    3.8131    1.9119   19.0594 H   0  0  0  0  0  0  0  0  0  0  0  0
  1  2  1  0
  2  3  2  0
  3  4  1  0
  4  5  1  0
  4  6  2  0
  6  7  1  0
  7  8  1  0
  7  9  1  0
  9 10  1  0
 10 11  1  0
 10 12  2  0
 12 13  1  0
 13 14  1  0
 13 15  1  0
 15 16  1  0
 16 17  1  0
 17 18  1  0
 17 19  1  0
 17 20  1  0
 20 21  1  0
 20 22  1  0
 20 23  1  0
 23 24  1  6
 23 25  1  0
 25 26  1  0
 25 27  1  0
 25 28  1  0
 28 29  1  0
 29 30  1  0
 29 31  1  0
 29 32  1  0
 28 33  1  0
 33 34  1  0
 33 35  1  0
 33 36  1  0
 36 37  1  6
  6 38  1  0
 38 39  1  0
 38 40  2  0
 40 41  1  0
 40  2  1  0
 15  9  2  0
 36 16  1  0
 36 23  1  0
M  END
>  <cnnaffinity>  (1) 
-5.59805

>  <filename>  (1) 
CN1C[C@H]2CCN(c3[nH]ncc3Nc3cccnc3)[C@H]2C1

$$$$
