
     RDKit          3D

 40 42  0  0  0  0  0  0  0  0999 V2000
    5.1173    1.7100   17.3514 H   0  0  0  0  0  0  0  0  0  0  0  0
    5.5136    1.0569   18.1265 C   0  0  0  0  0  0  0  0  0  0  0  0
    6.6171    0.3704   17.7943 N   0  0  0  0  0  0  0  0  0  0  0  0
    7.1609   -0.4003   18.7390 C   0  0  0  0  0  0  0  0  0  0  0  0
    8.0984   -0.9021   18.4984 H   0  0  0  0  0  0  0  0  0  0  0  0
    6.6370   -0.5273   20.0359 C   0  0  0  0  0  0  0  0  0  0  0  0
    7.4078   -1.2526   21.0792 C   0  0  0  0  0  0  0  0  0  0  0  0
    6.7485   -2.1206   21.8027 N   0  0  0  0  0  0  0  0  0  0  0  0
    7.4118   -2.7431   22.8183 N   0  0  0  0  0  0  0  0  0  0  0  0
    6.6489   -3.6080   23.5379 N   0  0  0  0  0  0  0  0  0  0  0  0
    7.3133   -4.6945   24.2686 C   0  0  0  0  0  0  0  0  0  0  0  0
    8.2889   -4.8688   23.7980 H   0  0  0  0  0  0  0  0  0  0  0  0
    6.7271   -5.6034   24.0903 H   0  0  0  0  0  0  0  0  0  0  0  0
    7.5033   -4.4670   25.7909 C   0  0  0  0  0  0  0  0  0  0  0  0
    8.2501   -5.1861   26.1568 H   0  0  0  0  0  0  0  0  0  0  0  0
    7.9256   -3.4601   25.9516 H   0  0  0  0  0  0  0  0  0  0  0  0
    6.3205   -4.6120   26.6354 N   0  0  0  0  0  0  0  0  0  0  0  0
    5.8340   -5.9766   26.7701 C   0  0  0  0  0  0  0  0  0  0  0  0
    5.3691   -6.4018   25.8611 H   0  0  0  0  0  0  0  0  0  0  0  0
    5.0934   -6.0336   27.5788 H   0  0  0  0  0  0  0  0  0  0  0  0
    6.6723   -6.6300   27.0422 H   0  0  0  0  0  0  0  0  0  0  0  0
    5.2910   -3.5965   26.4345 C   0  0  0  0  0  0  0  0  0  0  0  0
    5.7706   -2.6101   26.5467 H   0  0  0  0  0  0  0  0  0  0  0  0
    4.5636   -3.6711   27.2544 H   0  0  0  0  0  0  0  0  0  0  0  0
    4.5506   -3.6544   25.0921 C   0  0  0  0  0  0  0  0  0  0  0  0
    3.6206   -3.0724   25.1635 H   0  0  0  0  0  0  0  0  0  0  0  0
    4.2544   -4.6850   24.8714 H   0  0  0  0  0  0  0  0  0  0  0  0
    5.3359   -3.0357   23.9380 C   0  0  0  0  0  0  0  0  0  0  0  0
    4.7180   -3.0069   23.0314 H   0  0  0  0  0  0  0  0  0  0  0  0
    5.5537   -1.9879   24.2041 H   0  0  0  0  0  0  0  0  0  0  0  0
    8.6919   -2.4107   23.1813 C   0  0  0  0  0  0  0  0  0  0  0  0
    9.0184   -2.9504   24.0671 H   0  0  0  0  0  0  0  0  0  0  0  0
    9.4158   -1.5147   22.5065 C   0  0  0  0  0  0  0  0  0  0  0  0
   10.4229   -1.2219   22.7644 H   0  0  0  0  0  0  0  0  0  0  0  0
    8.8313   -0.8752   21.3512 C   0  0  0  0  0  0  0  0  0  0  0  0
    9.4696   -0.0640   20.6781 O   0  0  0  0  0  0  0  0  0  0  0  0
    5.4462    0.1395   20.3488 C   0  0  0  0  0  0  0  0  0  0  0  0
    5.0116    0.0374   21.3457 H   0  0  0  0  0  0  0  0  0  0  0  0
    4.8859    0.9612   19.3728 C   0  0  0  0  0  0  0  0  0  0  0  0
    3.9929    1.5469   19.5623 H   0  0  0  0  0  0  0  0  0  0  0  0
  1  2  1  0
  2  3  2  0
  3  4  1  0
  4  5  1  0
  4  6  2  0
  6  7  1  0
  7  8  2  0
  8  9  1  0
  9 10  1  0
 10 11  1  0
 11 12  1  0
 11 13  1  0
 11 14  1  0
 14 15  1  0
 14 16  1  0
 14 17  1  0
 17 18  1  0
 18 19  1  0
 18 20  1  0
 18 21  1  0
 17 22  1  0
 22 23  1  0
 22 24  1  0
 22 25  1  0
 25 26  1  0
 25 27  1  0
 25 28  1  0
 28 29  1  0
 28 30  1  0
  9 31  1  0
 31 32  1  0
 31 33  2  0
 33 34  1  0
 33 35  1  0
 35 36  2  0
  6 37  1  0
 37 38  1  0
 37 39  2  0
 39 40  1  0
 39  2  1  0
 35  7  1  0
 28 10  1  0
M  END
>  <cnnaffinity>  (1) 
-5.23142

>  <filename>  (1) 
CN1CCCN(n2ccc(=O)c(-c3cccnc3)n2)CC1

$$$$
