
     RDKit          3D

 35 36  0  0  0  0  0  0  0  0999 V2000
    5.0416    1.7135   17.0417 H   0  0  0  0  0  0  0  0  0  0  0  0
    5.4671    1.2000   17.9007 C   0  0  0  0  0  0  0  0  0  0  0  0
    6.6152    0.5420   17.6887 N   0  0  0  0  0  0  0  0  0  0  0  0
    7.1742   -0.0858   18.7157 C   0  0  0  0  0  0  0  0  0  0  0  0
    8.1199   -0.5828   18.5014 H   0  0  0  0  0  0  0  0  0  0  0  0
    6.5992   -0.0968   19.9850 C   0  0  0  0  0  0  0  0  0  0  0  0
    7.5702   -0.9008   21.1866 S   0  0  0  0  0  0  0  0  0  0  0  0
    8.8810   -1.1344   20.5949 O   0  0  0  0  0  0  0  0  0  0  0  0
    7.3468   -0.2644   22.4667 O   0  0  0  0  0  0  0  0  0  0  0  0
    6.9780   -2.5506   21.1500 N   0  0  0  0  0  0  0  0  0  0  0  0
    7.6335   -2.7100   20.3804 H   0  0  0  0  0  0  0  0  0  0  0  0
    7.6291   -3.2975   22.2081 O   0  0  0  0  0  0  0  0  0  0  0  0
    6.6367   -3.9335   23.0372 C   0  0  0  0  0  0  0  0  0  0  0  0
    5.8739   -4.3782   22.3772 H   0  0  0  0  0  0  0  0  0  0  0  0
    6.0336   -2.8836   23.9577 C   0  0  0  0  0  0  0  0  0  0  0  0
    6.8265   -2.5209   24.6210 H   0  0  0  0  0  0  0  0  0  0  0  0
    5.7388   -2.0395   23.3551 H   0  0  0  0  0  0  0  0  0  0  0  0
    4.9264   -3.4917   24.7974 C   0  0  0  0  0  0  0  0  0  0  0  0
    4.1121   -3.8560   24.1356 H   0  0  0  0  0  0  0  0  0  0  0  0
    4.4947   -2.7226   25.4502 H   0  0  0  0  0  0  0  0  0  0  0  0
    5.5070   -4.5519   25.6230 N   0  0  0  0  0  0  0  0  0  0  0  0
    4.5690   -5.1039   26.5841 C   0  0  0  0  0  0  0  0  0  0  0  0
    4.1513   -4.3030   27.2032 H   0  0  0  0  0  0  0  0  0  0  0  0
    5.0869   -5.7956   27.2583 H   0  0  0  0  0  0  0  0  0  0  0  0
    3.7183   -5.6515   26.1322 H   0  0  0  0  0  0  0  0  0  0  0  0
    6.1908   -5.5929   24.8464 C   0  0  0  0  0  0  0  0  0  0  0  0
    5.4808   -6.1944   24.2372 H   0  0  0  0  0  0  0  0  0  0  0  0
    6.6688   -6.2837   25.5528 H   0  0  0  0  0  0  0  0  0  0  0  0
    7.2703   -4.9984   23.9254 C   0  0  0  0  0  0  0  0  0  0  0  0
    7.7624   -5.7859   23.3441 H   0  0  0  0  0  0  0  0  0  0  0  0
    8.0323   -4.5160   24.5526 H   0  0  0  0  0  0  0  0  0  0  0  0
    5.3995    0.5950   20.2339 C   0  0  0  0  0  0  0  0  0  0  0  0
    4.9087    0.6334   21.2113 H   0  0  0  0  0  0  0  0  0  0  0  0
    4.8308    1.2498   19.1442 C   0  0  0  0  0  0  0  0  0  0  0  0
    3.9071    1.8122   19.2343 H   0  0  0  0  0  0  0  0  0  0  0  0
  1  2  1  0
  2  3  2  0
  3  4  1  0
  4  5  1  0
  4  6  2  0
  6  7  1  0
  7  8  2  0
  7  9  2  0
  7 10  1  0
 10 11  1  0
 10 12  1  0
 12 13  1  0
 13 14  1  0
 13 15  1  0
 15 16  1  0
 15 17  1  0
 15 18  1  0
 18 19  1  0
 18 20  1  0
 18 21  1  0
 21 22  1  0
 22 23  1  0
 22 24  1  0
 22 25  1  0
 21 26  1  0
 26 27  1  0
 26 28  1  0
 26 29  1  0
 29 30  1  0
 29 31  1  0
  6 32  1  0
 32 33  1  0
 32 34  2  0
 34 35  1  0
 34  2  1  0
 29 13  1  0
M  END
>  <cnnaffinity>  (1) 
-4.6223

>  <filename>  (1) 
CN1CCC(ONS(=O)(=O)c2cccnc2)CC1

$$$$
