
     RDKit          3D

 40 42  0  0  0  0  0  0  0  0999 V2000
    4.9127    1.7823   16.9955 H   0  0  0  0  0  0  0  0  0  0  0  0
    5.4005    1.2961   17.8350 C   0  0  0  0  0  0  0  0  0  0  0  0
    6.5611    0.6768   17.5670 N   0  0  0  0  0  0  0  0  0  0  0  0
    7.1690    0.0690   18.5922 C   0  0  0  0  0  0  0  0  0  0  0  0
    8.1175   -0.4286   18.3760 H   0  0  0  0  0  0  0  0  0  0  0  0
    6.6580    0.0275   19.8955 C   0  0  0  0  0  0  0  0  0  0  0  0
    7.3523   -0.7333   20.9495 C   0  0  0  0  0  0  0  0  0  0  0  0
    6.7461   -1.8867   21.4493 C   0  0  0  0  0  0  0  0  0  0  0  0
    5.7781   -2.1926   21.0681 H   0  0  0  0  0  0  0  0  0  0  0  0
    7.4149   -2.6308   22.4112 C   0  0  0  0  0  0  0  0  0  0  0  0
    6.9636   -3.5348   22.8027 H   0  0  0  0  0  0  0  0  0  0  0  0
    8.6174   -2.2973   22.8956 N   0  0  0  0  0  0  0  0  0  0  0  0
    9.1793   -1.1769   22.4209 C   0  0  0  0  0  0  0  0  0  0  0  0
   10.1581   -0.9394   22.8271 H   0  0  0  0  0  0  0  0  0  0  0  0
    8.6125   -0.3495   21.4506 C   0  0  0  0  0  0  0  0  0  0  0  0
    9.2951    0.9499   21.0696 C   0  0  0  0  0  0  0  0  0  0  0  0
   10.3788    0.7942   20.9828 H   0  0  0  0  0  0  0  0  0  0  0  0
    8.9582    1.2584   20.0788 H   0  0  0  0  0  0  0  0  0  0  0  0
    9.0831    2.0802   21.9637 N   0  0  0  0  0  0  0  0  0  0  0  0
    7.6601    2.4586   22.1384 C   0  0  0  0  0  0  0  0  0  0  0  0
    7.2699    2.8887   21.2103 H   0  0  0  0  0  0  0  0  0  0  0  0
    7.0193    1.5916   22.3661 H   0  0  0  0  0  0  0  0  0  0  0  0
    7.4775    3.4653   23.2858 C   0  0  0  0  0  0  0  0  0  0  0  0
    6.4291    3.7833   23.3398 H   0  0  0  0  0  0  0  0  0  0  0  0
    8.0628    4.3678   23.0285 H   0  0  0  0  0  0  0  0  0  0  0  0
    7.8672    2.9022   24.6056 N   0  0  0  0  0  0  0  0  0  0  0  0
    8.2548    3.9580   25.5285 C   0  0  0  0  0  0  0  0  0  0  0  0
    8.3868    3.5417   26.5324 H   0  0  0  0  0  0  0  0  0  0  0  0
    7.4628    4.7111   25.5870 H   0  0  0  0  0  0  0  0  0  0  0  0
    9.1924    4.4715   25.2404 H   0  0  0  0  0  0  0  0  0  0  0  0
    8.9092    1.8553   24.4720 C   0  0  0  0  0  0  0  0  0  0  0  0
    9.5192    1.8149   25.3804 H   0  0  0  0  0  0  0  0  0  0  0  0
    8.4256    0.8723   24.3850 H   0  0  0  0  0  0  0  0  0  0  0  0
    9.8247    2.0577   23.2407 C   0  0  0  0  0  0  0  0  0  0  0  0
   10.3568    3.0147   23.3701 H   0  0  0  0  0  0  0  0  0  0  0  0
   10.5990    1.2833   23.2230 H   0  0  0  0  0  0  0  0  0  0  0  0
    5.4340    0.6569   20.1539 C   0  0  0  0  0  0  0  0  0  0  0  0
    5.0084    0.6306   21.1623 H   0  0  0  0  0  0  0  0  0  0  0  0
    4.8017    1.3157   19.1015 C   0  0  0  0  0  0  0  0  0  0  0  0
    3.8687    1.8464   19.2575 H   0  0  0  0  0  0  0  0  0  0  0  0
  1  2  1  0
  2  3  2  0
  3  4  1  0
  4  5  1  0
  4  6  2  0
  6  7  1  0
  7  8  2  0
  8  9  1  0
  8 10  1  0
 10 11  1  0
 10 12  2  0
 12 13  1  0
 13 14  1  0
 13 15  2  0
 15 16  1  0
 16 17  1  0
 16 18  1  0
 16 19  1  0
 19 20  1  0
 20 21  1  0
 20 22  1  0
 20 23  1  0
 23 24  1  0
 23 25  1  0
 23 26  1  0
 26 27  1  0
 27 28  1  0
 27 29  1  0
 27 30  1  0
 26 31  1  0
 31 32  1  0
 31 33  1  0
 31 34  1  0
 34 35  1  0
 34 36  1  0
  6 37  1  0
 37 38  1  0
 37 39  2  0
 39 40  1  0
 39  2  1  0
 15  7  1  0
 34 19  1  0
M  END
>  <cnnaffinity>  (1) 
-4.99351

>  <filename>  (1) 
CN1CCN(Cc2cnccc2-c2cccnc2)CC1

$$$$
