
     RDKit          3D

 49 52  0  0  0  0  0  0  0  0999 V2000
   12.6348    5.6256   21.9219 C   0  0  0  0  0  0  0  0  0  0  0  0
   12.3676    4.2242   22.2376 N   0  0  0  0  0  0  0  0  0  0  0  0
   11.0895    3.7353   22.2863 C   0  0  0  0  0  0  0  0  0  0  0  0
   10.8328    2.3952   22.2289 C   0  0  0  0  0  0  0  0  0  0  0  0
    9.4557    1.8571   22.1255 C   0  0  0  0  0  0  0  0  0  0  0  0
    9.0597    1.0039   21.1919 N   0  0  0  0  0  0  0  0  0  0  0  0
    7.9068    0.5014   21.7026 C   0  0  0  0  0  0  0  0  0  0  0  0
    7.1916   -0.5921   20.9716 C   0  0  0  0  0  0  0  0  0  0  0  0
    6.4582   -0.0476   19.7581 C   0  0  0  0  0  0  0  0  0  0  0  0
    5.2743    0.6749   19.9401 C   0  0  0  0  0  0  0  0  0  0  0  0
    4.7186    1.3556   18.8573 C   0  0  0  0  0  0  0  0  0  0  0  0
    5.3659    1.2833   17.6201 C   0  0  0  0  0  0  0  0  0  0  0  0
    6.4727    0.5568   17.4083 N   0  0  0  0  0  0  0  0  0  0  0  0
    6.9945   -0.0913   18.4589 C   0  0  0  0  0  0  0  0  0  0  0  0
    7.8972   -0.6725   18.2612 H   0  0  0  0  0  0  0  0  0  0  0  0
    4.9728    1.8254   16.7611 H   0  0  0  0  0  0  0  0  0  0  0  0
    3.8212    1.9529   18.9645 H   0  0  0  0  0  0  0  0  0  0  0  0
    4.8049    0.7123   20.9249 H   0  0  0  0  0  0  0  0  0  0  0  0
    7.9542   -1.3210   20.6797 H   0  0  0  0  0  0  0  0  0  0  0  0
    6.5103   -1.0818   21.6726 H   0  0  0  0  0  0  0  0  0  0  0  0
    7.5281    1.0335   22.8453 N   0  0  0  0  0  0  0  0  0  0  0  0
    8.5228    1.9245   23.1098 N   0  0  0  0  0  0  0  0  0  0  0  0
    8.4565    2.7515   24.3033 C   0  0  0  0  0  0  0  0  0  0  0  0
    7.7240    4.0636   24.0349 C   0  0  0  0  0  0  0  0  0  0  0  0
    7.8666    4.8799   25.1419 F   0  0  0  0  0  0  0  0  0  0  0  0
    8.1329    4.5899   23.1633 H   0  0  0  0  0  0  0  0  0  0  0  0
    6.6603    3.8730   23.8583 H   0  0  0  0  0  0  0  0  0  0  0  0
    7.9215    2.1874   25.0723 H   0  0  0  0  0  0  0  0  0  0  0  0
    9.4671    2.9423   24.6769 H   0  0  0  0  0  0  0  0  0  0  0  0
   11.9393    1.4746   22.2052 C   0  0  0  0  0  0  0  0  0  0  0  0
   13.2058    1.9528   22.4614 C   0  0  0  0  0  0  0  0  0  0  0  0
   14.3756    1.0638   22.7829 C   0  0  0  0  0  0  0  0  0  0  0  0
   14.2261   -0.3575   22.2337 C   0  0  0  0  0  0  0  0  0  0  0  0
   12.8229   -0.8414   22.5786 C   0  0  0  0  0  0  0  0  0  0  0  0
   11.7343   -0.0116   21.9195 C   0  0  0  0  0  0  0  0  0  0  0  0
   11.6591   -0.1628   20.8338 H   0  0  0  0  0  0  0  0  0  0  0  0
   10.7626   -0.3406   22.3032 H   0  0  0  0  0  0  0  0  0  0  0  0
   12.6752   -1.9107   22.3748 H   0  0  0  0  0  0  0  0  0  0  0  0
   12.7111   -0.6260   23.6522 H   0  0  0  0  0  0  0  0  0  0  0  0
   14.4009   -0.3783   21.1542 H   0  0  0  0  0  0  0  0  0  0  0  0
   14.9810   -1.0079   22.6852 H   0  0  0  0  0  0  0  0  0  0  0  0
   14.4245    0.9845   23.8775 H   0  0  0  0  0  0  0  0  0  0  0  0
   15.2990    1.5584   22.4652 H   0  0  0  0  0  0  0  0  0  0  0  0
   13.4829    3.3948   22.4338 C   0  0  0  0  0  0  0  0  0  0  0  0
   14.5903    3.9050   22.5497 O   0  0  0  0  0  0  0  0  0  0  0  0
   10.3077    4.4935   22.3418 H   0  0  0  0  0  0  0  0  0  0  0  0
   13.2823    5.7091   21.0409 H   0  0  0  0  0  0  0  0  0  0  0  0
   11.6718    6.0918   21.7143 H   0  0  0  0  0  0  0  0  0  0  0  0
   13.1528    6.0993   22.7610 H   0  0  0  0  0  0  0  0  0  0  0  0
  1  2  1  0
  2  3  1  0
  3  4  2  0
  4  5  1  0
  5  6  2  0
  6  7  1  0
  7  8  1  0
  8  9  1  0
  9 10  2  0
 10 11  1  0
 11 12  2  0
 12 13  1  0
 13 14  2  0
 14 15  1  0
 12 16  1  0
 11 17  1  0
 10 18  1  0
  8 19  1  0
  8 20  1  0
  7 21  2  0
 21 22  1  0
 22 23  1  0
 23 24  1  0
 24 25  1  0
 24 26  1  0
 24 27  1  0
 23 28  1  0
 23 29  1  0
  4 30  1  0
 30 31  2  0
 31 32  1  0
 32 33  1  0
 33 34  1  0
 34 35  1  0
 35 36  1  0
 35 37  1  0
 34 38  1  0
 34 39  1  0
 33 40  1  0
 33 41  1  0
 32 42  1  0
 32 43  1  0
 31 44  1  0
 44 45  2  0
  3 46  1  0
  1 47  1  0
  1 48  1  0
  1 49  1  0
 44  2  1  0
 22  5  1  0
 35 30  1  0
 14  9  1  0
M  END
>  <cnnaffinity>  (1) 
-6.48802

>  <filename>  (1) 
Cn1cc(-c2nc(Cc3cccnc3)nn2CCF)c2c(c1=O)CCCC2

$$$$
