
     RDKit          3D

 38 40  0  0  0  0  0  0  0  0999 V2000
    5.0031    1.7681   16.9365 H   0  0  0  0  0  0  0  0  0  0  0  0
    5.4659    1.2891   17.8014 C   0  0  0  0  0  0  0  0  0  0  0  0
    6.6273    0.6614   17.5745 N   0  0  0  0  0  0  0  0  0  0  0  0
    7.2015    0.0505   18.6167 C   0  0  0  0  0  0  0  0  0  0  0  0
    8.1472   -0.4567   18.4061 H   0  0  0  0  0  0  0  0  0  0  0  0
    6.6781    0.0215   19.9221 C   0  0  0  0  0  0  0  0  0  0  0  0
    7.3893   -0.7241   21.0432 C   0  0  0  0  0  0  0  0  0  0  0  0
    6.6678   -1.1075   21.7675 H   0  0  0  0  0  0  0  0  0  0  0  0
    7.9279   -1.5843   20.6390 H   0  0  0  0  0  0  0  0  0  0  0  0
    8.4193    0.0553   21.8681 C   0  0  0  0  0  0  0  0  0  0  0  0
    9.3878    0.5331   21.0167 F   0  0  0  0  0  0  0  0  0  0  0  0
    9.0821   -0.8448   22.6750 F   0  0  0  0  0  0  0  0  0  0  0  0
    7.8485    1.1101   22.6241 N   0  0  0  0  0  0  0  0  0  0  0  0
    7.1022    0.7999   23.8557 C   0  0  0  0  0  0  0  0  0  0  0  0
    6.1693    0.2765   23.6145 H   0  0  0  0  0  0  0  0  0  0  0  0
    7.6827    0.1648   24.5499 H   0  0  0  0  0  0  0  0  0  0  0  0
    6.8534    2.1855   24.4675 C   0  0  0  0  0  0  0  0  0  0  0  0
    5.9923    2.6496   23.9713 H   0  0  0  0  0  0  0  0  0  0  0  0
    6.6484    2.1534   25.5439 H   0  0  0  0  0  0  0  0  0  0  0  0
    8.1244    2.9744   24.1202 C   0  0  2  0  0  0  0  0  0  0  0  0
    8.8856    2.8198   24.8875 H   0  0  0  0  0  0  0  0  0  0  0  0
    7.9580    4.4836   23.8218 C   0  0  0  0  0  0  0  0  0  0  0  0
    8.4611    5.1178   24.5606 H   0  0  0  0  0  0  0  0  0  0  0  0
    6.8910    4.7673   23.8620 H   0  0  0  0  0  0  0  0  0  0  0  0
    8.5293    4.6867   22.4835 N   0  0  0  0  0  0  0  0  0  0  0  0
    8.0920    5.8828   21.7770 C   0  0  0  0  0  0  0  0  0  0  0  0
    7.0411    5.8419   21.4251 H   0  0  0  0  0  0  0  0  0  0  0  0
    8.1941    6.7712   22.4140 H   0  0  0  0  0  0  0  0  0  0  0  0
    8.7315    6.0424   20.9023 H   0  0  0  0  0  0  0  0  0  0  0  0
    8.2605    3.4307   21.7753 C   0  0  0  0  0  0  0  0  0  0  0  0
    8.8455    3.2854   20.8644 H   0  0  0  0  0  0  0  0  0  0  0  0
    7.1911    3.3313   21.4970 H   0  0  0  0  0  0  0  0  0  0  0  0
    8.6050    2.3540   22.7988 C   0  0  2  0  0  0  0  0  0  0  0  0
    9.6923    2.1895   22.8096 H   0  0  0  0  0  0  0  0  0  0  0  0
    5.4722    0.7032   20.1390 C   0  0  0  0  0  0  0  0  0  0  0  0
    5.0296    0.7415   21.1386 H   0  0  0  0  0  0  0  0  0  0  0  0
    4.8486    1.3366   19.0558 C   0  0  0  0  0  0  0  0  0  0  0  0
    3.9088    1.8625   19.1647 H   0  0  0  0  0  0  0  0  0  0  0  0
  1  2  1  0
  2  3  2  0
  3  4  1  0
  4  5  1  0
  4  6  2  0
  6  7  1  0
  7  8  1  0
  7  9  1  0
  7 10  1  0
 10 11  1  0
 10 12  1  0
 10 13  1  0
 13 14  1  0
 14 15  1  0
 14 16  1  0
 14 17  1  0
 17 18  1  0
 17 19  1  0
 17 20  1  0
 20 21  1  1
 20 22  1  0
 22 23  1  0
 22 24  1  0
 22 25  1  0
 25 26  1  0
 26 27  1  0
 26 28  1  0
 26 29  1  0
 25 30  1  0
 30 31  1  0
 30 32  1  0
 30 33  1  0
 33 34  1  1
  6 35  1  0
 35 36  1  0
 35 37  2  0
 37 38  1  0
 37  2  1  0
 33 13  1  0
 33 20  1  0
M  END
>  <cnnaffinity>  (1) 
-4.90981

>  <filename>  (1) 
CN1C[C@H]2CCN(C(F)(F)Cc3cccnc3)[C@H]2C1

$$$$
