
     RDKit          3D

 40 43  0  0  0  0  0  0  0  0999 V2000
    4.9410    1.8145   16.9658 H   0  0  0  0  0  0  0  0  0  0  0  0
    5.4039    1.2966   17.8066 C   0  0  0  0  0  0  0  0  0  0  0  0
    6.5625    0.6678   17.5587 N   0  0  0  0  0  0  0  0  0  0  0  0
    7.1636    0.0322   18.5713 C   0  0  0  0  0  0  0  0  0  0  0  0
    8.1137   -0.4351   18.3253 H   0  0  0  0  0  0  0  0  0  0  0  0
    6.6366   -0.0312   19.8748 C   0  0  0  0  0  0  0  0  0  0  0  0
    7.3685   -0.7064   20.9621 C   0  0  0  0  0  0  0  0  0  0  0  0
    8.4727   -1.4275   20.7194 N   0  0  0  0  0  0  0  0  0  0  0  0
    8.8850   -1.7676   21.9600 N   0  0  0  0  0  0  0  0  0  0  0  0
   10.0487   -2.3139   22.4778 C   0  0  0  0  0  0  0  0  0  0  0  0
   10.8002   -2.6973   21.8114 H   0  0  0  0  0  0  0  0  0  0  0  0
    9.9456   -2.1877   23.8289 C   0  0  0  0  0  0  0  0  0  0  0  0
   10.6477   -2.4305   24.6117 H   0  0  0  0  0  0  0  0  0  0  0  0
    8.7246   -1.5878   24.1399 N   0  0  0  0  0  0  0  0  0  0  0  0
    8.2891   -1.0181   25.4122 C   0  0  0  0  0  0  0  0  0  0  0  0
    8.9579   -1.4280   26.1848 H   0  0  0  0  0  0  0  0  0  0  0  0
    8.4001    0.5237   25.3894 C   0  0  0  0  0  0  0  0  0  0  0  0
    7.8027    0.8999   24.5453 H   0  0  0  0  0  0  0  0  0  0  0  0
    9.4373    0.8305   25.2147 H   0  0  0  0  0  0  0  0  0  0  0  0
    7.8861    1.1169   26.6992 C   0  0  0  0  0  0  0  0  0  0  0  0
    8.5678    0.8069   27.5208 H   0  0  0  0  0  0  0  0  0  0  0  0
    7.9091    2.2135   26.6511 H   0  0  0  0  0  0  0  0  0  0  0  0
    6.5083    0.7054   26.9670 N   0  0  0  0  0  0  0  0  0  0  0  0
    5.9873    1.3463   28.1638 C   0  0  0  0  0  0  0  0  0  0  0  0
    6.0370    2.4359   28.0565 H   0  0  0  0  0  0  0  0  0  0  0  0
    4.9358    1.0725   28.3055 H   0  0  0  0  0  0  0  0  0  0  0  0
    6.5411    1.0666   29.0827 H   0  0  0  0  0  0  0  0  0  0  0  0
    6.3759   -0.7496   27.0384 C   0  0  0  0  0  0  0  0  0  0  0  0
    6.9690   -1.1693   27.8807 H   0  0  0  0  0  0  0  0  0  0  0  0
    5.3203   -0.9819   27.2352 H   0  0  0  0  0  0  0  0  0  0  0  0
    6.8329   -1.4149   25.7382 C   0  0  0  0  0  0  0  0  0  0  0  0
    6.7350   -2.5037   25.8197 H   0  0  0  0  0  0  0  0  0  0  0  0
    6.1862   -1.0889   24.9103 H   0  0  0  0  0  0  0  0  0  0  0  0
    8.1040   -1.3027   22.9491 C   0  0  0  0  0  0  0  0  0  0  0  0
    7.0726   -0.5946   22.3449 C   0  0  0  0  0  0  0  0  0  0  0  0
    6.2764   -0.0209   22.7834 H   0  0  0  0  0  0  0  0  0  0  0  0
    5.4265    0.6416   20.1146 C   0  0  0  0  0  0  0  0  0  0  0  0
    4.9791    0.6553   21.1083 H   0  0  0  0  0  0  0  0  0  0  0  0
    4.7986    1.3097   19.0667 C   0  0  0  0  0  0  0  0  0  0  0  0
    3.8685    1.8491   19.2204 H   0  0  0  0  0  0  0  0  0  0  0  0
  1  2  1  0
  2  3  2  0
  3  4  1  0
  4  5  1  0
  4  6  2  0
  6  7  1  0
  7  8  2  0
  8  9  1  0
  9 10  1  0
 10 11  1  0
 10 12  2  0
 12 13  1  0
 12 14  1  0
 14 15  1  0
 15 16  1  0
 15 17  1  0
 17 18  1  0
 17 19  1  0
 17 20  1  0
 20 21  1  0
 20 22  1  0
 20 23  1  0
 23 24  1  0
 24 25  1  0
 24 26  1  0
 24 27  1  0
 23 28  1  0
 28 29  1  0
 28 30  1  0
 28 31  1  0
 31 32  1  0
 31 33  1  0
 14 34  1  0
 34 35  2  0
 35 36  1  0
  6 37  1  0
 37 38  1  0
 37 39  2  0
 39 40  1  0
 39  2  1  0
 35  7  1  0
 34  9  1  0
 31 15  1  0
M  END
>  <cnnaffinity>  (1) 
-5.43109

>  <filename>  (1) 
CN1CCC(n2ccn3nc(-c4cccnc4)cc23)CC1

$$$$
