
     RDKit          3D

 53 57  0  0  0  0  0  0  0  0999 V2000
    7.1577    3.3650   28.1652 C   0  0  0  0  0  0  0  0  0  0  0  0
    7.8013    4.0078   27.0282 N   0  0  0  0  0  0  0  0  0  0  0  0
    7.7674    5.3534   26.7268 C   0  0  0  0  0  0  0  0  0  0  0  0
    8.2688    5.6759   25.5491 N   0  0  0  0  0  0  0  0  0  0  0  0
    8.6411    4.4649   25.0678 C   0  0  0  0  0  0  0  0  0  0  0  0
    8.4022    3.4167   25.9182 C   0  0  0  0  0  0  0  0  0  0  0  0
    8.6742    2.2111   25.2160 C   0  0  0  0  0  0  0  0  0  0  0  0
    9.0191    2.5743   23.9188 C   0  0  0  0  0  0  0  0  0  0  0  0
    9.0829    1.6647   22.7493 C   0  0  0  0  0  0  0  0  0  0  0  0
    8.0627    0.8697   22.4528 N   0  0  0  0  0  0  0  0  0  0  0  0
    8.4546    0.2355   21.3290 C   0  0  0  0  0  0  0  0  0  0  0  0
    7.5804   -0.7724   20.6370 C   0  0  0  0  0  0  0  0  0  0  0  0
    6.7255   -0.1510   19.5453 C   0  0  0  0  0  0  0  0  0  0  0  0
    5.5684    0.5635   19.8811 C   0  0  0  0  0  0  0  0  0  0  0  0
    4.9051    1.2759   18.8797 C   0  0  0  0  0  0  0  0  0  0  0  0
    5.4250    1.2496   17.5811 C   0  0  0  0  0  0  0  0  0  0  0  0
    6.5051    0.5362   17.2312 N   0  0  0  0  0  0  0  0  0  0  0  0
    7.1263   -0.1475   18.1998 C   0  0  0  0  0  0  0  0  0  0  0  0
    8.0126   -0.7091   17.9033 H   0  0  0  0  0  0  0  0  0  0  0  0
    4.9633    1.8320   16.7860 H   0  0  0  0  0  0  0  0  0  0  0  0
    4.0227    1.8671   19.0956 H   0  0  0  0  0  0  0  0  0  0  0  0
    5.2253    0.5768   20.9188 H   0  0  0  0  0  0  0  0  0  0  0  0
    8.2216   -1.5680   20.2469 H   0  0  0  0  0  0  0  0  0  0  0  0
    6.9364   -1.2171   21.4040 H   0  0  0  0  0  0  0  0  0  0  0  0
    9.6626    0.5601   20.9133 N   0  0  0  0  0  0  0  0  0  0  0  0
   10.0818    1.4887   21.8264 N   0  0  0  0  0  0  0  0  0  0  0  0
   11.5446    1.7459   21.9091 C   0  0  0  0  0  0  0  0  0  0  0  0
   11.8918    3.2481   22.1086 C   0  0  0  0  0  0  0  0  0  0  0  0
   12.8657    3.3081   23.3041 C   0  0  0  0  0  0  0  0  0  0  0  0
   12.4488    2.0907   24.1302 C   0  0  0  0  0  0  0  0  0  0  0  0
   12.2729    0.9675   23.0875 C   0  0  0  0  0  0  0  0  0  0  0  0
   13.6520    0.4312   22.6273 C   0  0  0  0  0  0  0  0  0  0  0  0
   14.1405   -0.1313   23.4310 H   0  0  0  0  0  0  0  0  0  0  0  0
   14.3513    1.2225   22.3519 H   0  0  0  0  0  0  0  0  0  0  0  0
   13.5475   -0.2533   21.7773 H   0  0  0  0  0  0  0  0  0  0  0  0
   11.5116   -0.2118   23.7005 C   0  0  0  0  0  0  0  0  0  0  0  0
   11.9792   -0.4468   24.6608 H   0  0  0  0  0  0  0  0  0  0  0  0
   10.4688    0.0009   23.9294 H   0  0  0  0  0  0  0  0  0  0  0  0
   11.5278   -1.0918   23.0476 H   0  0  0  0  0  0  0  0  0  0  0  0
   11.4767    2.2873   24.6089 H   0  0  0  0  0  0  0  0  0  0  0  0
   13.1572    1.7694   24.9004 H   0  0  0  0  0  0  0  0  0  0  0  0
   12.8154    4.2491   23.8596 H   0  0  0  0  0  0  0  0  0  0  0  0
   13.9040    3.1955   22.9606 H   0  0  0  0  0  0  0  0  0  0  0  0
   10.9766    3.7933   22.3478 H   0  0  0  0  0  0  0  0  0  0  0  0
   12.3159    3.6917   21.1999 H   0  0  0  0  0  0  0  0  0  0  0  0
   11.9154    1.3875   20.9447 H   0  0  0  0  0  0  0  0  0  0  0  0
    9.0842    3.9763   23.8500 N   0  0  0  0  0  0  0  0  0  0  0  0
    8.9822    4.5665   23.0373 H   0  0  0  0  0  0  0  0  0  0  0  0
    8.6394    1.1911   25.5868 H   0  0  0  0  0  0  0  0  0  0  0  0
    7.3356    6.0636   27.4187 H   0  0  0  0  0  0  0  0  0  0  0  0
    7.6270    2.4009   28.3706 H   0  0  0  0  0  0  0  0  0  0  0  0
    6.0879    3.1995   27.9898 H   0  0  0  0  0  0  0  0  0  0  0  0
    7.2668    3.9846   29.0579 H   0  0  0  0  0  0  0  0  0  0  0  0
  1  2  1  0
  2  3  1  0
  3  4  2  0
  4  5  1  0
  5  6  2  0
  6  7  1  0
  7  8  2  0
  8  9  1  0
  9 10  2  0
 10 11  1  0
 11 12  1  0
 12 13  1  0
 13 14  2  0
 14 15  1  0
 15 16  2  0
 16 17  1  0
 17 18  2  0
 18 19  1  0
 16 20  1  0
 15 21  1  0
 14 22  1  0
 12 23  1  0
 12 24  1  0
 11 25  2  0
 25 26  1  0
 26 27  1  0
 27 28  1  0
 28 29  1  0
 29 30  1  0
 30 31  1  0
 31 32  1  0
 32 33  1  0
 32 34  1  0
 32 35  1  0
 31 36  1  0
 36 37  1  0
 36 38  1  0
 36 39  1  0
 30 40  1  0
 30 41  1  0
 29 42  1  0
 29 43  1  0
 28 44  1  0
 28 45  1  0
 27 46  1  0
  8 47  1  0
 47 48  1  0
  7 49  1  0
  3 50  1  0
  1 51  1  0
  1 52  1  0
  1 53  1  0
  6  2  1  0
 26  9  1  0
 31 27  1  0
 47  5  1  0
 18 13  1  0
M  END
>  <cnnaffinity>  (1) 
-5.98346

>  <filename>  (1) 
Cn1cnc2[nH]c(-c3nc(Cc4cccnc4)nn3C3CCCC3(C)C)cc21

$$$$
