
     RDKit          3D

 42 45  0  0  0  0  0  0  0  0999 V2000
    5.0258    1.7890   16.9971 H   0  0  0  0  0  0  0  0  0  0  0  0
    5.4508    1.2615   17.8502 C   0  0  0  0  0  0  0  0  0  0  0  0
    6.5963    0.6010   17.6198 N   0  0  0  0  0  0  0  0  0  0  0  0
    7.1383   -0.0517   18.6561 C   0  0  0  0  0  0  0  0  0  0  0  0
    8.0809   -0.5657   18.4683 H   0  0  0  0  0  0  0  0  0  0  0  0
    6.5993   -0.0951   19.9504 C   0  0  0  0  0  0  0  0  0  0  0  0
    7.3459   -0.8096   21.0513 C   0  0  0  0  0  0  0  0  0  0  0  0
    7.0198   -2.2638   21.2984 C   0  0  0  0  0  0  0  0  0  0  0  0
    7.8840   -3.2280   21.3873 N   0  0  0  0  0  0  0  0  0  0  0  0
    7.3271   -4.4411   21.6779 N   0  0  0  0  0  0  0  0  0  0  0  0
    6.0495   -4.3502   21.8580 C   0  0  0  0  0  0  0  0  0  0  0  0
    5.2908   -5.3926   22.1558 O   0  0  0  0  0  0  0  0  0  0  0  0
    4.1323   -5.2512   23.0245 C   0  0  0  0  0  0  0  0  0  0  0  0
    3.4979   -4.4338   22.6584 H   0  0  0  0  0  0  0  0  0  0  0  0
    3.4359   -6.5934   22.8828 C   0  0  0  0  0  0  0  0  0  0  0  0
    3.2543   -6.7995   21.8241 H   0  0  0  0  0  0  0  0  0  0  0  0
    2.4623   -6.5644   23.3838 H   0  0  0  0  0  0  0  0  0  0  0  0
    4.3070   -7.7057   23.4899 C   0  0  0  0  0  0  0  0  0  0  0  0
    3.7506   -8.6458   23.4573 H   0  0  0  0  0  0  0  0  0  0  0  0
    5.2261   -7.8250   22.9037 H   0  0  0  0  0  0  0  0  0  0  0  0
    4.7329   -7.4669   24.8597 N   0  0  0  0  0  0  0  0  0  0  0  0
    3.7184   -7.7452   25.8605 C   0  0  0  0  0  0  0  0  0  0  0  0
    2.8403   -7.0759   25.8574 H   0  0  0  0  0  0  0  0  0  0  0  0
    4.1579   -7.7399   26.8623 H   0  0  0  0  0  0  0  0  0  0  0  0
    3.3360   -8.7590   25.7067 H   0  0  0  0  0  0  0  0  0  0  0  0
    5.4335   -6.1876   24.9685 C   0  0  0  0  0  0  0  0  0  0  0  0
    5.7686   -6.0464   26.0030 H   0  0  0  0  0  0  0  0  0  0  0  0
    6.3334   -6.2322   24.3440 H   0  0  0  0  0  0  0  0  0  0  0  0
    4.6054   -4.9940   24.4617 C   0  0  0  0  0  0  0  0  0  0  0  0
    5.2018   -4.0769   24.4931 H   0  0  0  0  0  0  0  0  0  0  0  0
    3.7351   -4.8536   25.1131 H   0  0  0  0  0  0  0  0  0  0  0  0
    5.3811   -2.7669   21.5926 S   0  0  0  0  0  0  0  0  0  0  0  0
    8.7821   -0.4050   21.2919 C   0  0  0  0  0  0  0  0  0  0  0  0
    9.4406   -1.2181   21.5790 H   0  0  0  0  0  0  0  0  0  0  0  0
    9.2217    0.3370   20.6289 H   0  0  0  0  0  0  0  0  0  0  0  0
    7.7409    0.0218   22.2701 C   0  0  0  0  0  0  0  0  0  0  0  0
    7.4300    1.0660   22.2736 H   0  0  0  0  0  0  0  0  0  0  0  0
    7.6965   -0.4661   23.2378 H   0  0  0  0  0  0  0  0  0  0  0  0
    5.3931    0.5917   20.1633 C   0  0  0  0  0  0  0  0  0  0  0  0
    4.9444    0.6006   21.1571 H   0  0  0  0  0  0  0  0  0  0  0  0
    4.8090    1.2785   19.0922 C   0  0  0  0  0  0  0  0  0  0  0  0
    3.8822    1.8310   19.2106 H   0  0  0  0  0  0  0  0  0  0  0  0
  1  2  1  0
  2  3  2  0
  3  4  1  0
  4  5  1  0
  4  6  2  0
  6  7  1  0
  7  8  1  0
  8  9  2  0
  9 10  1  0
 10 11  2  0
 11 12  1  0
 12 13  1  0
 13 14  1  0
 13 15  1  0
 15 16  1  0
 15 17  1  0
 15 18  1  0
 18 19  1  0
 18 20  1  0
 18 21  1  0
 21 22  1  0
 22 23  1  0
 22 24  1  0
 22 25  1  0
 21 26  1  0
 26 27  1  0
 26 28  1  0
 26 29  1  0
 29 30  1  0
 29 31  1  0
 11 32  1  0
  7 33  1  0
 33 34  1  0
 33 35  1  0
 33 36  1  0
 36 37  1  0
 36 38  1  0
  6 39  1  0
 39 40  1  0
 39 41  2  0
 41 42  1  0
 41  2  1  0
 36  7  1  0
 32  8  1  0
 29 13  1  0
M  END
>  <cnnaffinity>  (1) 
-5.34113

>  <filename>  (1) 
CN1CCC(Oc2nnc(C3(c4cccnc4)CC3)s2)CC1

$$$$
