
     RDKit          3D

 49 53  0  0  0  0  0  0  0  0999 V2000
    5.2263    2.0393   17.4691 H   0  0  0  0  0  0  0  0  0  0  0  0
    5.6409    1.4436   18.2782 C   0  0  0  0  0  0  0  0  0  0  0  0
    6.8737    0.9519   18.0897 N   0  0  0  0  0  0  0  0  0  0  0  0
    7.4159    0.2330   19.0803 C   0  0  0  0  0  0  0  0  0  0  0  0
    8.4204   -0.1397   18.8714 H   0  0  0  0  0  0  0  0  0  0  0  0
    6.7778   -0.0443   20.2975 C   0  0  0  0  0  0  0  0  0  0  0  0
    7.5497   -0.6941   21.4433 C   0  0  2  0  0  0  0  0  0  0  0  0
    8.2342    0.3403   22.2614 N   0  0  0  0  0  0  0  0  0  0  0  0
    9.3590    1.0629   21.6685 C   0  0  0  0  0  0  0  0  0  0  0  0
    9.8438    0.5184   20.8467 H   0  0  0  0  0  0  0  0  0  0  0  0
   10.1234    1.2289   22.4415 H   0  0  0  0  0  0  0  0  0  0  0  0
    8.7963    2.4013   21.2061 C   0  0  0  0  0  0  0  0  0  0  0  0
    9.6039    3.1213   21.1936 H   0  0  0  0  0  0  0  0  0  0  0  0
    8.3891    2.3042   20.1982 H   0  0  0  0  0  0  0  0  0  0  0  0
    7.6777    2.7395   22.2064 C   0  0  2  0  0  0  0  0  0  0  0  0
    6.7914    3.1199   21.6888 H   0  0  0  0  0  0  0  0  0  0  0  0
    8.0586    3.6884   23.3601 C   0  0  0  0  0  0  0  0  0  0  0  0
    7.1544    4.2138   23.7351 H   0  0  0  0  0  0  0  0  0  0  0  0
    8.7698    4.4666   23.0508 H   0  0  0  0  0  0  0  0  0  0  0  0
    8.6431    2.8075   24.3560 N   0  0  0  0  0  0  0  0  0  0  0  0
    9.0056    3.3435   25.6442 C   0  0  0  0  0  0  0  0  0  0  0  0
    8.1601    3.5675   26.3221 H   0  0  0  0  0  0  0  0  0  0  0  0
    9.6515    2.6189   26.1507 H   0  0  0  0  0  0  0  0  0  0  0  0
    9.5824    4.2642   25.5159 H   0  0  0  0  0  0  0  0  0  0  0  0
    7.7784    1.6307   24.3794 C   0  0  0  0  0  0  0  0  0  0  0  0
    8.2929    0.7692   24.8252 H   0  0  0  0  0  0  0  0  0  0  0  0
    6.8512    1.8075   24.9646 H   0  0  0  0  0  0  0  0  0  0  0  0
    7.3990    1.3770   22.9058 C   0  0  2  0  0  0  0  0  0  0  0  0
    6.3414    1.1152   22.8218 H   0  0  0  0  0  0  0  0  0  0  0  0
    8.5881   -1.7819   21.0086 C   0  0  0  0  0  0  0  0  0  0  0  0
    8.6481   -1.8565   19.9245 H   0  0  0  0  0  0  0  0  0  0  0  0
    9.5772   -1.5134   21.3903 H   0  0  0  0  0  0  0  0  0  0  0  0
    8.1519   -3.0761   21.7300 C   0  0  2  0  0  0  0  0  0  0  0  0
    8.9472   -3.8238   21.7888 H   0  0  0  0  0  0  0  0  0  0  0  0
    6.8233   -3.6148   21.1612 C   0  0  0  0  0  0  0  0  0  0  0  0
    6.5922   -4.5728   21.6353 H   0  0  0  0  0  0  0  0  0  0  0  0
    6.8126   -3.7802   20.0837 H   0  0  0  0  0  0  0  0  0  0  0  0
    5.7938   -2.5308   21.5784 C   0  0  0  0  0  0  0  0  0  0  0  0
    5.3649   -2.0450   20.6994 H   0  0  0  0  0  0  0  0  0  0  0  0
    4.9554   -2.9390   22.1512 H   0  0  0  0  0  0  0  0  0  0  0  0
    6.6587   -1.5511   22.4057 C   0  0  1  0  0  0  0  0  0  0  0  0
    6.1241   -0.9190   23.1123 H   0  0  0  0  0  0  0  0  0  0  0  0
    7.6743   -2.4912   23.0693 C   0  0  0  0  0  0  0  0  0  0  0  0
    7.2092   -3.2240   23.7406 H   0  0  0  0  0  0  0  0  0  0  0  0
    8.4546   -1.9399   23.6097 H   0  0  0  0  0  0  0  0  0  0  0  0
    5.4639    0.4380   20.4539 C   0  0  0  0  0  0  0  0  0  0  0  0
    4.8942    0.2194   21.3563 H   0  0  0  0  0  0  0  0  0  0  0  0
    4.8980    1.2092   19.4378 C   0  0  0  0  0  0  0  0  0  0  0  0
    3.9051    1.6265   19.5354 H   0  0  0  0  0  0  0  0  0  0  0  0
  1  2  1  0
  2  3  2  0
  3  4  1  0
  4  5  1  0
  4  6  2  0
  6  7  1  0
  7  8  1  1
  8  9  1  0
  9 10  1  0
  9 11  1  0
  9 12  1  0
 12 13  1  0
 12 14  1  0
 12 15  1  0
 15 16  1  6
 15 17  1  0
 17 18  1  0
 17 19  1  0
 17 20  1  0
 20 21  1  0
 21 22  1  0
 21 23  1  0
 21 24  1  0
 20 25  1  0
 25 26  1  0
 25 27  1  0
 25 28  1  0
 28 29  1  1
  7 30  1  0
 30 31  1  0
 30 32  1  0
 30 33  1  0
 33 34  1  1
 33 35  1  0
 35 36  1  0
 35 37  1  0
 35 38  1  0
 38 39  1  0
 38 40  1  0
 38 41  1  0
 41 42  1  1
 41 43  1  0
 43 44  1  0
 43 45  1  0
  6 46  1  0
 46 47  1  0
 46 48  2  0
 48 49  1  0
 48  2  1  0
 41  7  1  0
 28  8  1  0
 43 33  1  0
 28 15  1  0
M  END
>  <cnnaffinity>  (1) 
-5.08586

>  <filename>  (1) 
CN1C[C@H]2CCN([C@@]3(c4cccnc4)C[C@@H]4CC[C@H]3C4)[C@H]2C1

$$$$
