
     RDKit          3D

 39 42  0  0  0  0  0  0  0  0999 V2000
    4.9104    1.8149   16.9719 H   0  0  0  0  0  0  0  0  0  0  0  0
    5.3766    1.3068   17.8180 C   0  0  0  0  0  0  0  0  0  0  0  0
    6.5394    0.6872   17.5601 N   0  0  0  0  0  0  0  0  0  0  0  0
    7.1519    0.0777   18.5788 C   0  0  0  0  0  0  0  0  0  0  0  0
    8.1025   -0.3899   18.3304 H   0  0  0  0  0  0  0  0  0  0  0  0
    6.6664    0.0229   19.9054 C   0  0  0  0  0  0  0  0  0  0  0  0
    7.4270   -0.6852   20.9541 C   0  0  0  0  0  0  0  0  0  0  0  0
    8.3576   -1.6985   20.9083 C   0  0  0  0  0  0  0  0  0  0  0  0
    8.7769   -2.1128   20.0120 H   0  0  0  0  0  0  0  0  0  0  0  0
    8.8074   -2.0960   22.1402 N   0  0  0  0  0  0  0  0  0  0  0  0
    8.1772   -1.2875   22.9538 C   0  0  0  0  0  0  0  0  0  0  0  0
    8.2178   -0.8985   24.6407 S   0  0  0  0  0  0  0  0  0  0  0  0
    7.0977    0.4057   24.2786 C   0  0  0  0  0  0  0  0  0  0  0  0
    6.5941    1.2399   25.4399 C   0  0  0  0  0  0  0  0  0  0  0  0
    6.8218    0.8881   26.5874 O   0  0  0  0  0  0  0  0  0  0  0  0
    5.8535    2.3547   25.1426 N   0  0  0  0  0  0  0  0  0  0  0  0
    6.0304    3.1993   23.9347 C   0  0  0  0  0  0  0  0  0  0  0  0
    7.0461    3.0809   23.5476 H   0  0  0  0  0  0  0  0  0  0  0  0
    5.3420    2.8663   23.1477 H   0  0  0  0  0  0  0  0  0  0  0  0
    5.7572    4.6772   24.2759 C   0  0  0  0  0  0  0  0  0  0  0  0
    6.5280    5.0196   24.9875 H   0  0  0  0  0  0  0  0  0  0  0  0
    5.8771    5.2759   23.3654 H   0  0  0  0  0  0  0  0  0  0  0  0
    4.4145    4.9188   24.8389 N   0  0  0  0  0  0  0  0  0  0  0  0
    3.4722    5.5031   23.8925 C   0  0  0  0  0  0  0  0  0  0  0  0
    2.5165    5.6861   24.3950 H   0  0  0  0  0  0  0  0  0  0  0  0
    3.2715    4.8707   23.0053 H   0  0  0  0  0  0  0  0  0  0  0  0
    3.8489    6.4696   23.5385 H   0  0  0  0  0  0  0  0  0  0  0  0
    3.8454    3.7441   25.5218 C   0  0  0  0  0  0  0  0  0  0  0  0
    3.2730    3.1039   24.8190 H   0  0  0  0  0  0  0  0  0  0  0  0
    3.1487    4.0945   26.2945 H   0  0  0  0  0  0  0  0  0  0  0  0
    4.9108    2.8519   26.1703 C   0  0  0  0  0  0  0  0  0  0  0  0
    5.4564    3.3879   26.9597 H   0  0  0  0  0  0  0  0  0  0  0  0
    4.4186    1.9908   26.6362 H   0  0  0  0  0  0  0  0  0  0  0  0
    6.7346    0.5377   23.0341 N   0  0  0  0  0  0  0  0  0  0  0  0
    7.3281   -0.4311   22.3117 N   0  0  0  0  0  0  0  0  0  0  0  0
    5.4360    0.6634   20.1450 C   0  0  0  0  0  0  0  0  0  0  0  0
    5.0187    0.6468   21.1499 H   0  0  0  0  0  0  0  0  0  0  0  0
    4.7907    1.3145   19.0887 C   0  0  0  0  0  0  0  0  0  0  0  0
    3.8566    1.8472   19.2311 H   0  0  0  0  0  0  0  0  0  0  0  0
  1  2  1  0
  2  3  2  0
  3  4  1  0
  4  5  1  0
  4  6  2  0
  6  7  1  0
  7  8  2  0
  8  9  1  0
  8 10  1  0
 10 11  2  0
 11 12  1  0
 12 13  1  0
 13 14  1  0
 14 15  2  0
 14 16  1  0
 16 17  1  0
 17 18  1  0
 17 19  1  0
 17 20  1  0
 20 21  1  0
 20 22  1  0
 20 23  1  0
 23 24  1  0
 24 25  1  0
 24 26  1  0
 24 27  1  0
 23 28  1  0
 28 29  1  0
 28 30  1  0
 28 31  1  0
 31 32  1  0
 31 33  1  0
 13 34  2  0
 34 35  1  0
  6 36  1  0
 36 37  1  0
 36 38  2  0
 38 39  1  0
 38  2  1  0
 35  7  1  0
 35 11  1  0
 31 16  1  0
M  END
>  <cnnaffinity>  (1) 
-4.80021

>  <filename>  (1) 
CN1CCN(C(=O)c2nn3c(-c4cccnc4)cnc3s2)CC1

$$$$
