
     RDKit          3D

 40 42  0  0  0  0  0  0  0  0999 V2000
    4.9122    1.8067   16.9714 H   0  0  0  0  0  0  0  0  0  0  0  0
    5.3834    1.3077   17.8169 C   0  0  0  0  0  0  0  0  0  0  0  0
    6.5473    0.6895   17.5528 N   0  0  0  0  0  0  0  0  0  0  0  0
    7.1557    0.0677   18.5702 C   0  0  0  0  0  0  0  0  0  0  0  0
    8.1122   -0.3961   18.3301 H   0  0  0  0  0  0  0  0  0  0  0  0
    6.6529    0.0203   19.8875 C   0  0  0  0  0  0  0  0  0  0  0  0
    7.3689   -0.6536   20.9764 C   0  0  0  0  0  0  0  0  0  0  0  0
    7.6069   -0.2796   22.2970 C   0  0  0  0  0  0  0  0  0  0  0  0
    7.2357    0.9203   22.8905 N   0  0  0  0  0  0  0  0  0  0  0  0
    6.8662    1.6935   22.3699 H   0  0  0  0  0  0  0  0  0  0  0  0
    7.4452    1.1791   24.2627 C   0  0  0  0  0  0  0  0  0  0  0  0
    8.5023    0.9545   24.5411 H   0  0  0  0  0  0  0  0  0  0  0  0
    6.8149    0.4963   24.8558 H   0  0  0  0  0  0  0  0  0  0  0  0
    7.0739    2.5519   24.5571 N   0  0  0  0  0  0  0  0  0  0  0  0
    8.0118    3.5409   23.9399 C   0  0  0  0  0  0  0  0  0  0  0  0
    9.0258    3.1164   23.8374 H   0  0  0  0  0  0  0  0  0  0  0  0
    7.6589    3.7955   22.9348 H   0  0  0  0  0  0  0  0  0  0  0  0
    8.1426    4.8497   24.7542 C   0  0  0  0  0  0  0  0  0  0  0  0
    8.7941    5.5447   24.2161 H   0  0  0  0  0  0  0  0  0  0  0  0
    7.1382    5.3114   24.7951 H   0  0  0  0  0  0  0  0  0  0  0  0
    8.6999    4.6406   26.1126 N   0  0  0  0  0  0  0  0  0  0  0  0
    8.3784    5.7584   26.9953 C   0  0  0  0  0  0  0  0  0  0  0  0
    8.9300    5.6695   27.9393 H   0  0  0  0  0  0  0  0  0  0  0  0
    7.2999    5.8436   27.2411 H   0  0  0  0  0  0  0  0  0  0  0  0
    8.6848    6.7006   26.5262 H   0  0  0  0  0  0  0  0  0  0  0  0
    8.3068    3.3179   26.6565 C   0  0  0  0  0  0  0  0  0  0  0  0
    8.1734    3.3973   27.7381 H   0  0  0  0  0  0  0  0  0  0  0  0
    9.1221    2.5960   26.4842 H   0  0  0  0  0  0  0  0  0  0  0  0
    6.9987    2.7605   26.0325 C   0  0  0  0  0  0  0  0  0  0  0  0
    6.7245    1.8324   26.5458 H   0  0  0  0  0  0  0  0  0  0  0  0
    6.2015    3.4837   26.2555 H   0  0  0  0  0  0  0  0  0  0  0  0
    8.3144   -1.3891   22.8559 C   0  0  0  0  0  0  0  0  0  0  0  0
    8.6766   -1.5194   23.8745 H   0  0  0  0  0  0  0  0  0  0  0  0
    8.5040   -2.3560   21.9610 N   0  0  0  0  0  0  0  0  0  0  0  0
    7.9400   -1.8838   20.8402 N   0  0  0  0  0  0  0  0  0  0  0  0
    7.9291   -2.4581   20.0078 H   0  0  0  0  0  0  0  0  0  0  0  0
    5.4309    0.6660   20.1357 C   0  0  0  0  0  0  0  0  0  0  0  0
    5.0152    0.6286   21.1445 H   0  0  0  0  0  0  0  0  0  0  0  0
    4.7901    1.3218   19.0841 C   0  0  0  0  0  0  0  0  0  0  0  0
    3.8614    1.8506   19.2379 H   0  0  0  0  0  0  0  0  0  0  0  0
  1  2  1  0
  2  3  2  0
  3  4  1  0
  4  5  1  0
  4  6  2  0
  6  7  1  0
  7  8  2  0
  8  9  1  0
  9 10  1  0
  9 11  1  0
 11 12  1  0
 11 13  1  0
 11 14  1  0
 14 15  1  0
 15 16  1  0
 15 17  1  0
 15 18  1  0
 18 19  1  0
 18 20  1  0
 18 21  1  0
 21 22  1  0
 22 23  1  0
 22 24  1  0
 22 25  1  0
 21 26  1  0
 26 27  1  0
 26 28  1  0
 26 29  1  0
 29 30  1  0
 29 31  1  0
  8 32  1  0
 32 33  1  0
 32 34  2  0
 34 35  1  0
 35 36  1  0
  6 37  1  0
 37 38  1  0
 37 39  2  0
 39 40  1  0
 39  2  1  0
 35  7  1  0
 29 14  1  0
M  END
>  <cnnaffinity>  (1) 
-4.87934

>  <filename>  (1) 
CN1CCN(CNc2cn[nH]c2-c2cccnc2)CC1

$$$$
