
     RDKit          3D

 33 34  0  0  0  0  0  0  0  0999 V2000
    5.0339    1.8340   16.9933 H   0  0  0  0  0  0  0  0  0  0  0  0
    5.4564    1.2977   17.8383 C   0  0  0  0  0  0  0  0  0  0  0  0
    6.5889    0.6161   17.5949 N   0  0  0  0  0  0  0  0  0  0  0  0
    7.1454   -0.0361   18.6208 C   0  0  0  0  0  0  0  0  0  0  0  0
    8.0830   -0.5533   18.4058 H   0  0  0  0  0  0  0  0  0  0  0  0
    6.5888   -0.0523   19.8968 C   0  0  0  0  0  0  0  0  0  0  0  0
    7.4289   -1.0447   21.1104 S   0  0  0  0  0  4  0  0  0  0  0  0
    6.4768   -2.0370   21.6632 O   0  0  0  0  0  0  0  0  0  0  0  0
    7.4914    0.1092   22.3311 N   0  0  0  0  0  0  0  0  0  0  0  0
    7.0789   -0.3813   23.1270 H   0  0  0  0  0  0  0  0  0  0  0  0
    8.7315    0.8567   22.5677 C   0  0  0  0  0  0  0  0  0  0  0  0
    8.5277    1.5309   23.4157 H   0  0  0  0  0  0  0  0  0  0  0  0
    9.9163   -0.0499   22.9163 C   0  0  0  0  0  0  0  0  0  0  0  0
   10.0492   -0.7679   22.0950 H   0  0  0  0  0  0  0  0  0  0  0  0
    9.6946   -0.6357   23.8151 H   0  0  0  0  0  0  0  0  0  0  0  0
   11.1817    0.7772   23.1432 C   0  0  0  0  0  0  0  0  0  0  0  0
   11.0575    1.3598   24.0836 H   0  0  0  0  0  0  0  0  0  0  0  0
   12.0309    0.0983   23.3014 H   0  0  0  0  0  0  0  0  0  0  0  0
   11.5061    1.6310   22.0006 N   0  0  0  0  0  0  0  0  0  0  0  0
   12.6566    2.4795   22.2895 C   0  0  0  0  0  0  0  0  0  0  0  0
   13.5577    1.8913   22.4828 H   0  0  0  0  0  0  0  0  0  0  0  0
   12.4997    3.1369   23.1661 H   0  0  0  0  0  0  0  0  0  0  0  0
   12.8712    3.1301   21.4358 H   0  0  0  0  0  0  0  0  0  0  0  0
   10.4056    2.4575   21.5093 C   0  0  0  0  0  0  0  0  0  0  0  0
   10.7331    2.8222   20.5268 H   0  0  0  0  0  0  0  0  0  0  0  0
   10.2493    3.3505   22.1516 H   0  0  0  0  0  0  0  0  0  0  0  0
    9.0887    1.7009   21.3398 C   0  0  0  0  0  0  0  0  0  0  0  0
    8.2918    2.4184   21.1519 H   0  0  0  0  0  0  0  0  0  0  0  0
    9.1361    1.0498   20.4581 H   0  0  0  0  0  0  0  0  0  0  0  0
    5.4088    0.6446   20.1627 C   0  0  0  0  0  0  0  0  0  0  0  0
    4.9647    0.6680   21.1619 H   0  0  0  0  0  0  0  0  0  0  0  0
    4.8303    1.3300   19.0924 C   0  0  0  0  0  0  0  0  0  0  0  0
    3.9172    1.9015   19.2189 H   0  0  0  0  0  0  0  0  0  0  0  0
  1  2  1  0
  2  3  2  0
  3  4  1  0
  4  5  1  0
  4  6  2  0
  6  7  1  0
  7  8  2  0
  7  9  1  1
  9 10  1  0
  9 11  1  0
 11 12  1  0
 11 13  1  0
 13 14  1  0
 13 15  1  0
 13 16  1  0
 16 17  1  0
 16 18  1  0
 16 19  1  0
 19 20  1  0
 20 21  1  0
 20 22  1  0
 20 23  1  0
 19 24  1  0
 24 25  1  0
 24 26  1  0
 24 27  1  0
 27 28  1  0
 27 29  1  0
  6 30  1  0
 30 31  1  0
 30 32  2  0
 32 33  1  0
 32  2  1  0
 27 11  1  0
M  END
>  <cnnaffinity>  (1) 
-4.52115

>  <filename>  (1) 
CN1CCC(N[S@@](=O)c2cccnc2)CC1

$$$$
