
     RDKit          3D

 47 50  0  0  0  0  0  0  0  0999 V2000
    4.9344    1.7908   16.9947 H   0  0  0  0  0  0  0  0  0  0  0  0
    5.4077    1.3570   17.8698 C   0  0  0  0  0  0  0  0  0  0  0  0
    6.6011    0.7841   17.6579 N   0  0  0  0  0  0  0  0  0  0  0  0
    7.1977    0.2333   18.7176 C   0  0  0  0  0  0  0  0  0  0  0  0
    8.1546   -0.2446   18.5057 H   0  0  0  0  0  0  0  0  0  0  0  0
    6.6782    0.2055   20.0358 C   0  0  0  0  0  0  0  0  0  0  0  0
    7.4908   -0.5169   21.1336 C   0  0  2  0  0  0  0  0  0  0  0  0
    8.6158    0.4053   21.7267 C   0  0  0  0  0  0  0  0  0  0  0  0
    9.6795    0.5539   21.1424 O   0  0  0  0  0  0  0  0  0  0  0  0
    8.3884    1.0180   22.9740 N   0  0  0  0  0  0  0  0  0  0  0  0
    7.4491    2.1600   23.0778 C   0  0  0  0  0  0  0  0  0  0  0  0
    6.6788    2.0712   22.3056 H   0  0  0  0  0  0  0  0  0  0  0  0
    6.9629    2.1047   24.0591 H   0  0  0  0  0  0  0  0  0  0  0  0
    8.1459    3.5327   22.9558 C   0  0  0  0  0  0  0  0  0  0  0  0
    8.5032    3.6669   21.9129 H   0  0  0  0  0  0  0  0  0  0  0  0
    7.4122    4.3244   23.1551 H   0  0  0  0  0  0  0  0  0  0  0  0
    9.2428    3.6418   23.9281 N   0  0  0  0  0  0  0  0  0  0  0  0
    9.8422    4.9618   23.9828 C   0  0  0  0  0  0  0  0  0  0  0  0
    9.0809    5.7048   24.2386 H   0  0  0  0  0  0  0  0  0  0  0  0
   10.5934    4.9849   24.7803 H   0  0  0  0  0  0  0  0  0  0  0  0
   10.3334    5.2807   23.0425 H   0  0  0  0  0  0  0  0  0  0  0  0
   10.2302    2.5894   23.6728 C   0  0  0  0  0  0  0  0  0  0  0  0
   10.6660    2.6456   22.6545 H   0  0  0  0  0  0  0  0  0  0  0  0
   11.0548    2.6858   24.3899 H   0  0  0  0  0  0  0  0  0  0  0  0
    9.5686    1.2161   23.8449 C   0  0  0  0  0  0  0  0  0  0  0  0
    9.2288    1.1199   24.8843 H   0  0  0  0  0  0  0  0  0  0  0  0
   10.2953    0.4244   23.6446 H   0  0  0  0  0  0  0  0  0  0  0  0
    8.2187   -1.7862   20.5333 C   0  0  0  0  0  0  0  0  0  0  0  0
    7.6110   -1.9924   19.6527 H   0  0  0  0  0  0  0  0  0  0  0  0
    9.2504   -1.5841   20.2395 H   0  0  0  0  0  0  0  0  0  0  0  0
    8.0558   -2.9164   21.5692 C   0  0  2  0  0  0  0  0  0  0  0  0
    8.8973   -3.6083   21.6195 H   0  0  0  0  0  0  0  0  0  0  0  0
    6.6887   -3.5744   21.3052 C   0  0  0  0  0  0  0  0  0  0  0  0
    6.5205   -4.4258   21.9789 H   0  0  0  0  0  0  0  0  0  0  0  0
    6.5643   -3.9547   20.2851 H   0  0  0  0  0  0  0  0  0  0  0  0
    5.7403   -2.3742   21.6095 C   0  0  0  0  0  0  0  0  0  0  0  0
    4.9424   -2.6869   22.2820 H   0  0  0  0  0  0  0  0  0  0  0  0
    5.2997   -1.9971   20.6844 H   0  0  0  0  0  0  0  0  0  0  0  0
    6.6658   -1.2821   22.2385 C   0  0  1  0  0  0  0  0  0  0  0  0
    6.1538   -0.6029   22.9234 H   0  0  0  0  0  0  0  0  0  0  0  0
    7.7479   -2.1697   22.8773 C   0  0  0  0  0  0  0  0  0  0  0  0
    7.3637   -2.8217   23.6720 H   0  0  0  0  0  0  0  0  0  0  0  0
    8.5954   -1.6164   23.2915 H   0  0  0  0  0  0  0  0  0  0  0  0
    5.4275    0.8092   20.2224 C   0  0  0  0  0  0  0  0  0  0  0  0
    4.9444    0.8032   21.2032 H   0  0  0  0  0  0  0  0  0  0  0  0
    4.7848    1.3898   19.1192 C   0  0  0  0  0  0  0  0  0  0  0  0
    3.8241    1.8821   19.2186 H   0  0  0  0  0  0  0  0  0  0  0  0
  1  2  1  0
  2  3  2  0
  3  4  1  0
  4  5  1  0
  4  6  2  0
  6  7  1  0
  7  8  1  1
  8  9  2  0
  8 10  1  0
 10 11  1  0
 11 12  1  0
 11 13  1  0
 11 14  1  0
 14 15  1  0
 14 16  1  0
 14 17  1  0
 17 18  1  0
 18 19  1  0
 18 20  1  0
 18 21  1  0
 17 22  1  0
 22 23  1  0
 22 24  1  0
 22 25  1  0
 25 26  1  0
 25 27  1  0
  7 28  1  0
 28 29  1  0
 28 30  1  0
 28 31  1  0
 31 32  1  1
 31 33  1  0
 33 34  1  0
 33 35  1  0
 33 36  1  0
 36 37  1  0
 36 38  1  0
 36 39  1  0
 39 40  1  1
 39 41  1  0
 41 42  1  0
 41 43  1  0
  6 44  1  0
 44 45  1  0
 44 46  2  0
 46 47  1  0
 46  2  1  0
 39  7  1  0
 25 10  1  0
 41 31  1  0
M  END
>  <cnnaffinity>  (1) 
-5.20966

>  <filename>  (1) 
CN1CCN(C(=O)[C@@]2(c3cccnc3)C[C@@H]3CC[C@H]2C3)CC1

$$$$
