
     RDKit          3D

 42 45  0  0  0  0  0  0  0  0999 V2000
    4.9707    1.7882   16.9126 H   0  0  0  0  0  0  0  0  0  0  0  0
    5.4434    1.2997   17.7627 C   0  0  0  0  0  0  0  0  0  0  0  0
    6.6098    0.6856   17.5167 N   0  0  0  0  0  0  0  0  0  0  0  0
    7.2072    0.0692   18.5479 C   0  0  0  0  0  0  0  0  0  0  0  0
    8.1567   -0.4187   18.3191 H   0  0  0  0  0  0  0  0  0  0  0  0
    6.6925    0.0295   19.8515 C   0  0  0  0  0  0  0  0  0  0  0  0
    7.3565   -0.7555   20.9576 C   0  0  0  0  0  0  0  0  0  0  0  0
    7.3014   -0.1767   21.8902 H   0  0  0  0  0  0  0  0  0  0  0  0
    8.4234   -0.8924   20.7271 H   0  0  0  0  0  0  0  0  0  0  0  0
    6.7131   -2.1061   21.1811 C   0  0  0  0  0  0  0  0  0  0  0  0
    6.1205   -2.9593   20.2217 C   0  0  0  0  0  0  0  0  0  0  0  0
    6.0461   -2.7889   19.1549 H   0  0  0  0  0  0  0  0  0  0  0  0
    5.6270   -4.0705   20.7441 N   0  0  0  0  0  0  0  0  0  0  0  0
    5.8715   -3.9276   22.0650 N   0  0  0  0  0  0  0  0  0  0  0  0
    5.7449   -4.7023   22.6985 H   0  0  0  0  0  0  0  0  0  0  0  0
    6.5398   -2.7811   22.3768 C   0  0  0  0  0  0  0  0  0  0  0  0
    6.8522   -2.4230   23.6849 N   0  0  0  0  0  0  0  0  0  0  0  0
    5.8476   -2.5763   24.7340 C   0  0  0  0  0  0  0  0  0  0  0  0
    5.0290   -1.8648   24.6035 H   0  0  0  0  0  0  0  0  0  0  0  0
    5.3921   -3.5777   24.7179 H   0  0  0  0  0  0  0  0  0  0  0  0
    6.5944   -2.2683   26.0318 C   0  0  0  0  0  0  0  0  0  0  0  0
    6.1799   -2.8034   26.8933 H   0  0  0  0  0  0  0  0  0  0  0  0
    6.4847   -1.1929   26.2254 H   0  0  0  0  0  0  0  0  0  0  0  0
    8.0710   -2.5831   25.7542 C   0  0  2  0  0  0  0  0  0  0  0  0
    8.3207   -3.6096   26.0466 H   0  0  0  0  0  0  0  0  0  0  0  0
    9.0577   -1.5728   26.3769 C   0  0  0  0  0  0  0  0  0  0  0  0
    9.6904   -1.9876   27.1732 H   0  0  0  0  0  0  0  0  0  0  0  0
    8.4925   -0.7499   26.8583 H   0  0  0  0  0  0  0  0  0  0  0  0
    9.8708   -1.0756   25.2661 N   0  0  0  0  0  0  0  0  0  0  0  0
   10.4997    0.2031   25.5472 C   0  0  0  0  0  0  0  0  0  0  0  0
   11.0594    0.5423   24.6702 H   0  0  0  0  0  0  0  0  0  0  0  0
   11.2068    0.1047   26.3801 H   0  0  0  0  0  0  0  0  0  0  0  0
    9.7776    0.9987   25.8243 H   0  0  0  0  0  0  0  0  0  0  0  0
    9.0076   -1.1024   24.0792 C   0  0  0  0  0  0  0  0  0  0  0  0
    8.2964   -0.2490   24.0773 H   0  0  0  0  0  0  0  0  0  0  0  0
    9.6038   -1.0763   23.1528 H   0  0  0  0  0  0  0  0  0  0  0  0
    8.2222   -2.4199   24.2167 C   0  0  2  0  0  0  0  0  0  0  0  0
    8.8139   -3.2419   23.7891 H   0  0  0  0  0  0  0  0  0  0  0  0
    5.4794    0.6917   20.0834 C   0  0  0  0  0  0  0  0  0  0  0  0
    5.0551    0.7017   21.0898 H   0  0  0  0  0  0  0  0  0  0  0  0
    4.8378    1.3300   19.0222 C   0  0  0  0  0  0  0  0  0  0  0  0
    3.8949    1.8477   19.1621 H   0  0  0  0  0  0  0  0  0  0  0  0
  1  2  1  0
  2  3  2  0
  3  4  1  0
  4  5  1  0
  4  6  2  0
  6  7  1  0
  7  8  1  0
  7  9  1  0
  7 10  1  0
 10 11  1  0
 11 12  1  0
 11 13  2  0
 13 14  1  0
 14 15  1  0
 14 16  1  0
 16 17  1  0
 17 18  1  0
 18 19  1  0
 18 20  1  0
 18 21  1  0
 21 22  1  0
 21 23  1  0
 21 24  1  0
 24 25  1  6
 24 26  1  0
 26 27  1  0
 26 28  1  0
 26 29  1  0
 29 30  1  0
 30 31  1  0
 30 32  1  0
 30 33  1  0
 29 34  1  0
 34 35  1  0
 34 36  1  0
 34 37  1  0
 37 38  1  6
  6 39  1  0
 39 40  1  0
 39 41  2  0
 41 42  1  0
 41  2  1  0
 16 10  2  0
 37 17  1  0
 37 24  1  0
M  END
>  <cnnaffinity>  (1) 
-4.99909

>  <filename>  (1) 
CN1C[C@H]2CCN(c3[nH]ncc3Cc3cccnc3)[C@H]2C1

$$$$
