
     RDKit          3D

 41 43  0  0  0  0  0  0  0  0999 V2000
    4.9174    1.8041   16.9776 H   0  0  0  0  0  0  0  0  0  0  0  0
    5.3830    1.3032   17.8241 C   0  0  0  0  0  0  0  0  0  0  0  0
    6.5394    0.6740   17.5603 N   0  0  0  0  0  0  0  0  0  0  0  0
    7.1522    0.0524   18.5720 C   0  0  0  0  0  0  0  0  0  0  0  0
    8.1134   -0.4118   18.3590 H   0  0  0  0  0  0  0  0  0  0  0  0
    6.6345   -0.0006   19.8768 C   0  0  0  0  0  0  0  0  0  0  0  0
    7.3407   -0.6824   20.9244 N   0  0  0  0  0  0  0  0  0  0  0  0
    6.7152   -1.7364   21.5670 C   0  0  0  0  0  0  0  0  0  0  0  0
    5.7075   -1.9470   21.2282 H   0  0  0  0  0  0  0  0  0  0  0  0
    7.3404   -2.4506   22.5389 C   0  0  0  0  0  0  0  0  0  0  0  0
    6.8041   -3.2457   23.0582 H   0  0  0  0  0  0  0  0  0  0  0  0
    8.6779   -2.1108   22.9263 C   0  0  0  0  0  0  0  0  0  0  0  0
    9.3560   -2.8535   24.0738 C   0  0  0  0  0  0  0  0  0  0  0  0
    9.0223   -3.8998   24.0894 H   0  0  0  0  0  0  0  0  0  0  0  0
   10.4417   -2.8636   23.9041 H   0  0  0  0  0  0  0  0  0  0  0  0
    9.1206   -2.3018   25.4047 N   0  0  0  0  0  0  0  0  0  0  0  0
    9.6460   -0.9424   25.5776 C   0  0  0  0  0  0  0  0  0  0  0  0
   10.7029   -0.8890   25.2905 H   0  0  0  0  0  0  0  0  0  0  0  0
    9.1168   -0.1885   24.9613 H   0  0  0  0  0  0  0  0  0  0  0  0
    9.5156   -0.4935   27.0388 C   0  0  0  0  0  0  0  0  0  0  0  0
   10.1539   -1.1179   27.6786 H   0  0  0  0  0  0  0  0  0  0  0  0
    9.8681    0.5337   27.0453 H   0  0  0  0  0  0  0  0  0  0  0  0
    8.1464   -0.5439   27.5783 N   0  0  0  0  0  0  0  0  0  0  0  0
    7.2981    0.5493   27.1191 C   0  0  0  0  0  0  0  0  0  0  0  0
    7.7485    1.5062   27.4106 H   0  0  0  0  0  0  0  0  0  0  0  0
    7.1309    0.5759   26.0269 H   0  0  0  0  0  0  0  0  0  0  0  0
    6.3173    0.4742   27.6035 H   0  0  0  0  0  0  0  0  0  0  0  0
    7.5916   -1.8793   27.3007 C   0  0  0  0  0  0  0  0  0  0  0  0
    6.5415   -1.8887   27.6191 H   0  0  0  0  0  0  0  0  0  0  0  0
    8.1517   -2.6127   27.8919 H   0  0  0  0  0  0  0  0  0  0  0  0
    7.7088   -2.3287   25.8334 C   0  0  0  0  0  0  0  0  0  0  0  0
    7.0631   -1.6722   25.2201 H   0  0  0  0  0  0  0  0  0  0  0  0
    7.3252   -3.3510   25.7487 H   0  0  0  0  0  0  0  0  0  0  0  0
    9.3014   -1.0577   22.3024 C   0  0  0  0  0  0  0  0  0  0  0  0
   10.2843   -0.7028   22.5768 H   0  0  0  0  0  0  0  0  0  0  0  0
    8.6747   -0.2688   21.2640 C   0  0  0  0  0  0  0  0  0  0  0  0
    9.2211    0.6682   20.7040 O   0  0  0  0  0  0  0  0  0  0  0  0
    5.4240    0.6425   20.1419 C   0  0  0  0  0  0  0  0  0  0  0  0
    5.0298    0.6275   21.1601 H   0  0  0  0  0  0  0  0  0  0  0  0
    4.7942    1.3201   19.0931 C   0  0  0  0  0  0  0  0  0  0  0  0
    3.8668    1.8544   19.2449 H   0  0  0  0  0  0  0  0  0  0  0  0
  1  2  1  0
  2  3  2  0
  3  4  1  0
  4  5  1  0
  4  6  2  0
  6  7  1  0
  7  8  1  0
  8  9  1  0
  8 10  2  0
 10 11  1  0
 10 12  1  0
 12 13  1  0
 13 14  1  0
 13 15  1  0
 13 16  1  0
 16 17  1  0
 17 18  1  0
 17 19  1  0
 17 20  1  0
 20 21  1  0
 20 22  1  0
 20 23  1  0
 23 24  1  0
 24 25  1  0
 24 26  1  0
 24 27  1  0
 23 28  1  0
 28 29  1  0
 28 30  1  0
 28 31  1  0
 31 32  1  0
 31 33  1  0
 12 34  2  0
 34 35  1  0
 34 36  1  0
 36 37  2  0
  6 38  1  0
 38 39  1  0
 38 40  2  0
 40 41  1  0
 40  2  1  0
 36  7  1  0
 31 16  1  0
M  END
>  <cnnaffinity>  (1) 
-4.86287

>  <filename>  (1) 
CN1CCN(Cc2ccn(-c3cccnc3)c(=O)c2)CC1

$$$$
