
     RDKit          3D

 49 52  0  0  0  0  0  0  0  0999 V2000
    4.9406    1.7806   17.0189 H   0  0  0  0  0  0  0  0  0  0  0  0
    5.4206    1.2535   17.8434 C   0  0  0  0  0  0  0  0  0  0  0  0
    6.5710    0.6233   17.5629 N   0  0  0  0  0  0  0  0  0  0  0  0
    7.2113    0.0144   18.5736 C   0  0  0  0  0  0  0  0  0  0  0  0
    8.1563   -0.4588   18.3092 H   0  0  0  0  0  0  0  0  0  0  0  0
    6.7592   -0.0236   19.9245 C   0  0  0  0  0  0  0  0  0  0  0  0
    7.5335   -0.6052   20.9466 N   0  0  0  0  0  0  0  0  0  0  0  0
    8.3393   -1.8238   20.7718 C   0  0  1  0  0  0  0  0  0  0  0  0
    8.9199   -1.7629   19.8477 H   0  0  0  0  0  0  0  0  0  0  0  0
    9.2676   -1.7675   22.0036 C   0  0  0  0  0  0  0  0  0  0  0  0
    9.5267   -2.7674   22.3508 H   0  0  0  0  0  0  0  0  0  0  0  0
   10.2040   -1.2645   21.7486 H   0  0  0  0  0  0  0  0  0  0  0  0
    8.4597   -0.9740   23.0571 C   0  0  0  0  0  0  0  0  0  0  0  0
    8.9522   -0.0326   23.3167 H   0  0  0  0  0  0  0  0  0  0  0  0
    8.3019   -1.5310   23.9819 H   0  0  0  0  0  0  0  0  0  0  0  0
    7.1243   -0.6989   22.3509 C   0  0  2  0  0  0  0  0  0  0  0  0
    6.6519    0.2281   22.7008 H   0  0  0  0  0  0  0  0  0  0  0  0
    6.1241   -1.8577   22.4894 C   0  0  0  0  0  0  0  0  0  0  0  0
    5.7743   -1.9452   23.5208 H   0  0  0  0  0  0  0  0  0  0  0  0
    5.3211   -1.6011   21.7889 H   0  0  0  0  0  0  0  0  0  0  0  0
    6.5496   -3.2270   22.0165 C   0  0  2  0  0  0  0  0  0  0  0  0
    5.6331   -3.7749   21.7388 H   0  0  0  0  0  0  0  0  0  0  0  0
    7.2172   -3.9238   23.0514 O   0  0  0  0  0  0  0  0  0  0  0  0
    6.9950   -5.3369   23.1193 C   0  0  0  0  0  0  0  0  0  0  0  0
    6.7487   -5.7424   22.1235 H   0  0  0  0  0  0  0  0  0  0  0  0
    8.3212   -5.9195   23.5904 C   0  0  0  0  0  0  0  0  0  0  0  0
    8.3330   -6.9989   23.4300 H   0  0  0  0  0  0  0  0  0  0  0  0
    9.1062   -5.4897   22.9626 H   0  0  0  0  0  0  0  0  0  0  0  0
    8.5847   -5.5719   25.0562 C   0  0  0  0  0  0  0  0  0  0  0  0
    9.4730   -6.1112   25.4101 H   0  0  0  0  0  0  0  0  0  0  0  0
    8.8074   -4.4879   25.1316 H   0  0  0  0  0  0  0  0  0  0  0  0
    7.4515   -5.9600   25.9007 N   0  0  0  0  0  0  0  0  0  0  0  0
    7.7504   -5.7729   27.3127 C   0  0  0  0  0  0  0  0  0  0  0  0
    8.6448   -6.3426   27.5821 H   0  0  0  0  0  0  0  0  0  0  0  0
    7.9232   -4.7139   27.5910 H   0  0  0  0  0  0  0  0  0  0  0  0
    6.9252   -6.1538   27.9238 H   0  0  0  0  0  0  0  0  0  0  0  0
    6.2039   -5.2928   25.5188 C   0  0  0  0  0  0  0  0  0  0  0  0
    5.4154   -5.6409   26.1995 H   0  0  0  0  0  0  0  0  0  0  0  0
    6.2630   -4.1901   25.6237 H   0  0  0  0  0  0  0  0  0  0  0  0
    5.8347   -5.6437   24.0783 C   0  0  0  0  0  0  0  0  0  0  0  0
    4.9429   -5.0804   23.7735 H   0  0  0  0  0  0  0  0  0  0  0  0
    5.5859   -6.7081   24.0104 H   0  0  0  0  0  0  0  0  0  0  0  0
    7.4027   -3.0718   20.7683 C   0  0  0  0  0  0  0  0  0  0  0  0
    7.9772   -3.9953   20.6460 H   0  0  0  0  0  0  0  0  0  0  0  0
    6.7097   -2.9615   19.9212 H   0  0  0  0  0  0  0  0  0  0  0  0
    5.5266    0.6283   20.1725 C   0  0  0  0  0  0  0  0  0  0  0  0
    5.1061    0.6335   21.1730 H   0  0  0  0  0  0  0  0  0  0  0  0
    4.8564    1.2686   19.1200 C   0  0  0  0  0  0  0  0  0  0  0  0
    3.9173    1.7877   19.2908 H   0  0  0  0  0  0  0  0  0  0  0  0
  1  2  1  0
  2  3  2  0
  3  4  1  0
  4  5  1  0
  4  6  2  0
  6  7  1  0
  7  8  1  0
  8  9  1  6
  8 10  1  0
 10 11  1  0
 10 12  1  0
 10 13  1  0
 13 14  1  0
 13 15  1  0
 13 16  1  0
 16 17  1  1
 16 18  1  0
 18 19  1  0
 18 20  1  0
 18 21  1  0
 21 22  1  6
 21 23  1  0
 23 24  1  0
 24 25  1  0
 24 26  1  0
 26 27  1  0
 26 28  1  0
 26 29  1  0
 29 30  1  0
 29 31  1  0
 29 32  1  0
 32 33  1  0
 33 34  1  0
 33 35  1  0
 33 36  1  0
 32 37  1  0
 37 38  1  0
 37 39  1  0
 37 40  1  0
 40 41  1  0
 40 42  1  0
 21 43  1  0
 43 44  1  0
 43 45  1  0
  6 46  1  0
 46 47  1  0
 46 48  2  0
 48 49  1  0
 48  2  1  0
 16  7  1  0
 40 24  1  0
 43  8  1  0
M  END
>  <cnnaffinity>  (1) 
-5.01931

>  <filename>  (1) 
CN1CCC(O[C@H]2C[C@H]3CC[C@@H](C2)N3c2cccnc2)CC1

$$$$
