
     RDKit          3D

 43 45  0  0  0  0  0  0  0  0999 V2000
    4.7198    2.3550   16.6500 H   0  0  0  0  0  0  0  0  0  0  0  0
    5.0982    1.6971   17.4302 C   0  0  0  0  0  0  0  0  0  0  0  0
    6.2165    1.0152   17.1302 N   0  0  0  0  0  0  0  0  0  0  0  0
    6.7607    0.2835   18.1145 C   0  0  0  0  0  0  0  0  0  0  0  0
    7.6662   -0.2722   17.8684 H   0  0  0  0  0  0  0  0  0  0  0  0
    6.2505    0.1989   19.4393 C   0  0  0  0  0  0  0  0  0  0  0  0
    6.9767   -0.4693   20.4542 N   0  0  0  0  0  0  0  0  0  0  0  0
    6.4295   -1.0659   21.0552 H   0  0  0  0  0  0  0  0  0  0  0  0
    7.8141    0.2705   21.4141 C   0  0  0  0  0  0  0  0  0  0  0  0
    8.5250   -0.8335   22.0653 N   0  0  0  0  0  0  0  0  0  0  0  0
    9.3673   -1.6636   21.1830 C   0  0  0  0  0  0  0  0  0  0  0  0
    9.2378   -1.3868   20.1315 H   0  0  0  0  0  0  0  0  0  0  0  0
    9.0599   -2.7206   21.2498 H   0  0  0  0  0  0  0  0  0  0  0  0
   10.8027   -1.4629   21.6773 C   0  0  0  0  0  0  0  0  0  0  0  0
   11.4612   -2.2905   21.3960 H   0  0  0  0  0  0  0  0  0  0  0  0
   11.2221   -0.5426   21.2505 H   0  0  0  0  0  0  0  0  0  0  0  0
   10.6070   -1.3269   23.1880 C   0  0  2  0  0  0  0  0  0  0  0  0
   11.4128   -0.7562   23.6704 H   0  0  0  0  0  0  0  0  0  0  0  0
   10.3537   -2.6711   23.8882 C   0  0  0  0  0  0  0  0  0  0  0  0
    9.9271   -3.4016   23.1695 H   0  0  0  0  0  0  0  0  0  0  0  0
   11.2703   -3.1392   24.2657 H   0  0  0  0  0  0  0  0  0  0  0  0
    9.4228   -2.3930   24.9866 N   0  0  0  0  0  0  0  0  0  0  0  0
    8.6429   -3.5711   25.3357 C   0  0  0  0  0  0  0  0  0  0  0  0
    9.3187   -4.4290   25.4248 H   0  0  0  0  0  0  0  0  0  0  0  0
    7.8824   -3.8223   24.5689 H   0  0  0  0  0  0  0  0  0  0  0  0
    8.1355   -3.4508   26.2979 H   0  0  0  0  0  0  0  0  0  0  0  0
    8.6075   -1.2147   24.6029 C   0  0  0  0  0  0  0  0  0  0  0  0
    8.5905   -0.4930   25.4345 H   0  0  0  0  0  0  0  0  0  0  0  0
    7.5576   -1.4804   24.3915 H   0  0  0  0  0  0  0  0  0  0  0  0
    9.2588   -0.5869   23.3376 C   0  0  2  0  0  0  0  0  0  0  0  0
    9.4280    0.4860   23.5100 H   0  0  0  0  0  0  0  0  0  0  0  0
    8.7207    1.2596   20.6748 C   0  0  0  0  0  0  0  0  0  0  0  0
    8.0965    2.0392   20.2271 H   0  0  0  0  0  0  0  0  0  0  0  0
    9.4527    1.7281   21.3387 H   0  0  0  0  0  0  0  0  0  0  0  0
    9.2504    0.7567   19.8597 H   0  0  0  0  0  0  0  0  0  0  0  0
    6.9202    0.9862   22.4317 C   0  0  0  0  0  0  0  0  0  0  0  0
    6.3530    1.7855   21.9456 H   0  0  0  0  0  0  0  0  0  0  0  0
    6.2287    0.2578   22.8719 H   0  0  0  0  0  0  0  0  0  0  0  0
    7.5090    1.4240   23.2424 H   0  0  0  0  0  0  0  0  0  0  0  0
    5.0269    0.8362   19.6884 C   0  0  0  0  0  0  0  0  0  0  0  0
    4.5755    0.7526   20.6815 H   0  0  0  0  0  0  0  0  0  0  0  0
    4.4496    1.6019   18.6667 C   0  0  0  0  0  0  0  0  0  0  0  0
    3.5221    2.1426   18.8322 H   0  0  0  0  0  0  0  0  0  0  0  0
  1  2  1  0
  2  3  2  0
  3  4  1  0
  4  5  1  0
  4  6  2  0
  6  7  1  0
  7  8  1  0
  7  9  1  0
  9 10  1  0
 10 11  1  0
 11 12  1  0
 11 13  1  0
 11 14  1  0
 14 15  1  0
 14 16  1  0
 14 17  1  0
 17 18  1  1
 17 19  1  0
 19 20  1  0
 19 21  1  0
 19 22  1  0
 22 23  1  0
 23 24  1  0
 23 25  1  0
 23 26  1  0
 22 27  1  0
 27 28  1  0
 27 29  1  0
 27 30  1  0
 30 31  1  1
  9 32  1  0
 32 33  1  0
 32 34  1  0
 32 35  1  0
  9 36  1  0
 36 37  1  0
 36 38  1  0
 36 39  1  0
  6 40  1  0
 40 41  1  0
 40 42  2  0
 42 43  1  0
 42  2  1  0
 30 10  1  0
 30 17  1  0
M  END
>  <cnnaffinity>  (1) 
-4.94782

>  <filename>  (1) 
CN1C[C@H]2CCN(C(C)(C)Nc3cccnc3)[C@H]2C1

$$$$
