
     RDKit          3D

 39 41  0  0  0  0  0  0  0  0999 V2000
    4.9498    1.8215   16.9382 H   0  0  0  0  0  0  0  0  0  0  0  0
    5.3934    1.3108   17.7908 C   0  0  0  0  0  0  0  0  0  0  0  0
    6.5510    0.6727   17.5555 N   0  0  0  0  0  0  0  0  0  0  0  0
    7.1232    0.0486   18.5895 C   0  0  0  0  0  0  0  0  0  0  0  0
    8.0750   -0.4427   18.3815 H   0  0  0  0  0  0  0  0  0  0  0  0
    6.5959    0.0138   19.8975 C   0  0  0  0  0  0  0  0  0  0  0  0
    7.2825   -0.7055   20.9678 C   0  0  0  0  0  0  0  0  0  0  0  0
    7.4337   -0.2756   22.2508 C   0  0  0  0  0  0  0  0  0  0  0  0
    7.4657    1.0737   22.7831 C   0  0  0  0  0  0  0  0  0  0  0  0
    7.8536    2.0207   22.1132 O   0  0  0  0  0  0  0  0  0  0  0  0
    7.0670    1.2175   24.0953 N   0  0  0  0  0  0  0  0  0  0  0  0
    7.3185    2.4916   24.7676 C   0  0  0  0  0  0  0  0  0  0  0  0
    8.1948    2.9589   24.3138 H   0  0  0  0  0  0  0  0  0  0  0  0
    6.4680    3.1706   24.6157 H   0  0  0  0  0  0  0  0  0  0  0  0
    7.5621    2.2728   26.2606 C   0  0  0  0  0  0  0  0  0  0  0  0
    8.5233    1.7344   26.3901 H   0  0  0  0  0  0  0  0  0  0  0  0
    7.6815    3.2507   26.7399 H   0  0  0  0  0  0  0  0  0  0  0  0
    6.4398    1.5570   26.8760 N   0  0  0  0  0  0  0  0  0  0  0  0
    6.5891    1.4412   28.3168 C   0  0  0  0  0  0  0  0  0  0  0  0
    7.4709    0.8449   28.6255 H   0  0  0  0  0  0  0  0  0  0  0  0
    6.6812    2.4389   28.7598 H   0  0  0  0  0  0  0  0  0  0  0  0
    5.6954    0.9760   28.7460 H   0  0  0  0  0  0  0  0  0  0  0  0
    6.2646    0.2507   26.2245 C   0  0  0  0  0  0  0  0  0  0  0  0
    7.1376   -0.4143   26.3579 H   0  0  0  0  0  0  0  0  0  0  0  0
    5.4012   -0.2563   26.6716 H   0  0  0  0  0  0  0  0  0  0  0  0
    5.9997    0.4219   24.7250 C   0  0  0  0  0  0  0  0  0  0  0  0
    5.0287    0.9209   24.5748 H   0  0  0  0  0  0  0  0  0  0  0  0
    5.9475   -0.5609   24.2535 H   0  0  0  0  0  0  0  0  0  0  0  0
    8.0696   -1.2878   23.0709 C   0  0  0  0  0  0  0  0  0  0  0  0
    8.4074   -1.2511   24.2391 O   0  0  0  0  0  0  0  0  0  0  0  0
    8.2664   -2.3602   22.2423 N   0  0  0  0  0  0  0  0  0  0  0  0
    8.9171   -3.0521   22.5716 H   0  0  0  0  0  0  0  0  0  0  0  0
    7.9334   -2.0641   20.8603 C   0  0  0  0  0  0  0  0  0  0  0  0
    7.2455   -2.8117   20.4358 H   0  0  0  0  0  0  0  0  0  0  0  0
    8.8385   -1.9989   20.2320 H   0  0  0  0  0  0  0  0  0  0  0  0
    5.3836    0.6926   20.1174 C   0  0  0  0  0  0  0  0  0  0  0  0
    4.9273    0.7022   21.1098 H   0  0  0  0  0  0  0  0  0  0  0  0
    4.7739    1.3410   19.0417 C   0  0  0  0  0  0  0  0  0  0  0  0
    3.8397    1.8769   19.1550 H   0  0  0  0  0  0  0  0  0  0  0  0
  1  2  1  0
  2  3  2  0
  3  4  1  0
  4  5  1  0
  4  6  2  0
  6  7  1  0
  7  8  2  0
  8  9  1  0
  9 10  2  0
  9 11  1  0
 11 12  1  0
 12 13  1  0
 12 14  1  0
 12 15  1  0
 15 16  1  0
 15 17  1  0
 15 18  1  0
 18 19  1  0
 19 20  1  0
 19 21  1  0
 19 22  1  0
 18 23  1  0
 23 24  1  0
 23 25  1  0
 23 26  1  0
 26 27  1  0
 26 28  1  0
  8 29  1  0
 29 30  2  0
 29 31  1  0
 31 32  1  0
 31 33  1  0
 33 34  1  0
 33 35  1  0
  6 36  1  0
 36 37  1  0
 36 38  2  0
 38 39  1  0
 38  2  1  0
 33  7  1  0
 26 11  1  0
M  END
>  <cnnaffinity>  (1) 
-4.66841

>  <filename>  (1) 
CN1CCN(C(=O)C2=C(c3cccnc3)CNC2=O)CC1

$$$$
