
     RDKit          3D

 41 43  0  0  0  0  0  0  0  0999 V2000
    4.9723    1.7863   16.9896 H   0  0  0  0  0  0  0  0  0  0  0  0
    5.4328    1.2706   17.8266 C   0  0  0  0  0  0  0  0  0  0  0  0
    6.5901    0.6321   17.5808 N   0  0  0  0  0  0  0  0  0  0  0  0
    7.1930    0.0100   18.6040 C   0  0  0  0  0  0  0  0  0  0  0  0
    8.1434   -0.4809   18.3739 H   0  0  0  0  0  0  0  0  0  0  0  0
    6.6837    0.0038   19.9231 C   0  0  0  0  0  0  0  0  0  0  0  0
    7.3642   -0.6227   21.0026 N   0  0  0  0  0  0  0  0  0  0  0  0
    7.7837   -1.5349   20.9049 H   0  0  0  0  0  0  0  0  0  0  0  0
    7.3453   -0.2029   22.3130 C   0  0  0  0  0  0  0  0  0  0  0  0
    6.9389    0.8933   22.6748 O   0  0  0  0  0  0  0  0  0  0  0  0
    7.8649   -1.1344   23.2454 N   0  0  0  0  0  0  0  0  0  0  0  0
    8.1478   -2.4895   22.9304 N   0  0  0  0  0  0  0  0  0  0  0  0
    9.5289   -2.9189   23.2529 C   0  0  0  0  0  0  0  0  0  0  0  0
   10.1428   -2.0501   23.5171 H   0  0  0  0  0  0  0  0  0  0  0  0
    9.9740   -3.3657   22.3606 H   0  0  0  0  0  0  0  0  0  0  0  0
    9.4253   -3.9479   24.3904 C   0  0  0  0  0  0  0  0  0  0  0  0
   10.2034   -4.7142   24.3142 H   0  0  0  0  0  0  0  0  0  0  0  0
    9.5678   -3.4607   25.3617 H   0  0  0  0  0  0  0  0  0  0  0  0
    8.0146   -4.5260   24.2672 C   0  0  2  0  0  0  0  0  0  0  0  0
    7.5729   -4.7254   25.2482 H   0  0  0  0  0  0  0  0  0  0  0  0
    7.8737   -5.7903   23.3976 C   0  0  0  0  0  0  0  0  0  0  0  0
    8.0573   -6.7028   23.9643 H   0  0  0  0  0  0  0  0  0  0  0  0
    8.6208   -5.7734   22.5931 H   0  0  0  0  0  0  0  0  0  0  0  0
    6.5500   -5.7367   22.7662 N   0  0  0  0  0  0  0  0  0  0  0  0
    5.4349   -6.2923   23.5247 C   0  0  0  0  0  0  0  0  0  0  0  0
    5.5642   -7.3740   23.6504 H   0  0  0  0  0  0  0  0  0  0  0  0
    4.5214   -6.1619   22.9325 H   0  0  0  0  0  0  0  0  0  0  0  0
    5.2598   -5.8440   24.5232 H   0  0  0  0  0  0  0  0  0  0  0  0
    6.4230   -4.3042   22.4266 C   0  0  0  0  0  0  0  0  0  0  0  0
    6.8927   -4.1434   21.4498 H   0  0  0  0  0  0  0  0  0  0  0  0
    5.3705   -4.0116   22.3447 H   0  0  0  0  0  0  0  0  0  0  0  0
    7.1871   -3.4709   23.4963 C   0  0  2  0  0  0  0  0  0  0  0  0
    6.4787   -2.9468   24.1462 H   0  0  0  0  0  0  0  0  0  0  0  0
    7.8999   -0.7132   24.6489 C   0  0  0  0  0  0  0  0  0  0  0  0
    8.6226    0.0968   24.7889 H   0  0  0  0  0  0  0  0  0  0  0  0
    8.1774   -1.5490   25.3007 H   0  0  0  0  0  0  0  0  0  0  0  0
    6.9167   -0.3386   24.9513 H   0  0  0  0  0  0  0  0  0  0  0  0
    5.4636    0.6566   20.1532 C   0  0  0  0  0  0  0  0  0  0  0  0
    5.0688    0.6817   21.1656 H   0  0  0  0  0  0  0  0  0  0  0  0
    4.8257    1.2914   19.0850 C   0  0  0  0  0  0  0  0  0  0  0  0
    3.8947    1.8217   19.2371 H   0  0  0  0  0  0  0  0  0  0  0  0
  1  2  1  0
  2  3  2  0
  3  4  1  0
  4  5  1  0
  4  6  2  0
  6  7  1  0
  7  8  1  0
  7  9  1  0
  9 10  2  0
  9 11  1  0
 11 12  1  0
 12 13  1  0
 13 14  1  0
 13 15  1  0
 13 16  1  0
 16 17  1  0
 16 18  1  0
 16 19  1  0
 19 20  1  1
 19 21  1  0
 21 22  1  0
 21 23  1  0
 21 24  1  0
 24 25  1  0
 25 26  1  0
 25 27  1  0
 25 28  1  0
 24 29  1  0
 29 30  1  0
 29 31  1  0
 29 32  1  0
 32 33  1  1
 11 34  1  0
 34 35  1  0
 34 36  1  0
 34 37  1  0
  6 38  1  0
 38 39  1  0
 38 40  2  0
 40 41  1  0
 40  2  1  0
 32 12  1  0
 32 19  1  0
M  END
>  <cnnaffinity>  (1) 
-5.14047

>  <filename>  (1) 
CN1C[C@H]2CCN(N(C)C(=O)Nc3cccnc3)[C@H]2C1

$$$$
