
     RDKit          3D

 33 34  0  0  0  0  0  0  0  0999 V2000
    4.8362    2.1804   16.5201 H   0  0  0  0  0  0  0  0  0  0  0  0
    5.2523    1.6309   17.3607 C   0  0  0  0  0  0  0  0  0  0  0  0
    6.3995    0.9739   17.1135 N   0  0  0  0  0  0  0  0  0  0  0  0
    6.9459    0.2973   18.1302 C   0  0  0  0  0  0  0  0  0  0  0  0
    7.8909   -0.2046   17.9246 H   0  0  0  0  0  0  0  0  0  0  0  0
    6.3836    0.2125   19.4250 C   0  0  0  0  0  0  0  0  0  0  0  0
    6.9812   -0.5964   20.4581 C   0  0  0  0  0  0  0  0  0  0  0  0
    7.4635   -1.2945   21.3236 C   0  0  0  0  0  0  0  0  0  0  0  0
    7.9753   -2.0183   22.3226 N   0  0  0  0  0  0  0  0  0  0  0  0
    7.3576   -1.9663   23.6460 C   0  0  0  0  0  0  0  0  0  0  0  0
    7.1742   -2.9794   24.0366 H   0  0  0  0  0  0  0  0  0  0  0  0
    6.3746   -1.4981   23.5570 H   0  0  0  0  0  0  0  0  0  0  0  0
    8.2360   -1.2189   24.6890 C   0  0  0  0  0  0  0  0  0  0  0  0
    8.7985   -0.4312   24.1689 H   0  0  0  0  0  0  0  0  0  0  0  0
    7.5969   -0.6933   25.4101 H   0  0  0  0  0  0  0  0  0  0  0  0
    9.2015   -2.0524   25.4209 N   0  0  0  0  0  0  0  0  0  0  0  0
    8.7578   -2.5330   26.7175 C   0  0  0  0  0  0  0  0  0  0  0  0
    8.5039   -1.6835   27.3641 H   0  0  0  0  0  0  0  0  0  0  0  0
    9.5804   -3.0737   27.2000 H   0  0  0  0  0  0  0  0  0  0  0  0
    7.8880   -3.2212   26.6884 H   0  0  0  0  0  0  0  0  0  0  0  0
    9.8631   -3.0955   24.6387 C   0  0  0  0  0  0  0  0  0  0  0  0
   10.7769   -3.3763   25.1805 H   0  0  0  0  0  0  0  0  0  0  0  0
    9.2538   -4.0225   24.5568 H   0  0  0  0  0  0  0  0  0  0  0  0
   10.2587   -2.6522   23.2330 C   0  0  0  0  0  0  0  0  0  0  0  0
   11.1163   -3.2557   22.9229 H   0  0  0  0  0  0  0  0  0  0  0  0
   10.6216   -1.6204   23.2722 H   0  0  0  0  0  0  0  0  0  0  0  0
    9.1751   -2.8281   22.1544 C   0  0  0  0  0  0  0  0  0  0  0  0
    9.5987   -2.6044   21.1684 H   0  0  0  0  0  0  0  0  0  0  0  0
    8.8922   -3.8932   22.1345 H   0  0  0  0  0  0  0  0  0  0  0  0
    5.1943    0.9322   19.6618 C   0  0  0  0  0  0  0  0  0  0  0  0
    4.7564    0.9384   20.6592 H   0  0  0  0  0  0  0  0  0  0  0  0
    4.6142    1.6369   18.6052 C   0  0  0  0  0  0  0  0  0  0  0  0
    3.6894    2.1912   18.7399 H   0  0  0  0  0  0  0  0  0  0  0  0
  1  2  1  0
  2  3  2  0
  3  4  1  0
  4  5  1  0
  4  6  2  0
  6  7  1  0
  7  8  3  0
  8  9  1  0
  9 10  1  0
 10 11  1  0
 10 12  1  0
 10 13  1  0
 13 14  1  0
 13 15  1  0
 13 16  1  0
 16 17  1  0
 17 18  1  0
 17 19  1  0
 17 20  1  0
 16 21  1  0
 21 22  1  0
 21 23  1  0
 21 24  1  0
 24 25  1  0
 24 26  1  0
 24 27  1  0
 27 28  1  0
 27 29  1  0
  6 30  1  0
 30 31  1  0
 30 32  2  0
 32 33  1  0
 32  2  1  0
 27  9  1  0
M  END
>  <cnnaffinity>  (1) 
-4.47908

>  <filename>  (1) 
CN1CCCN(C#Cc2cccnc2)CC1

$$$$
