
     RDKit          3D

 45 48  0  0  0  0  0  0  0  0999 V2000
    6.7696    2.9999   23.6079 C   0  0  0  0  0  0  0  0  0  0  0  0
    8.1553    3.4027   23.8354 N   0  0  0  0  0  0  0  0  0  0  0  0
    8.4896    4.1210   24.9809 C   0  0  0  0  0  0  0  0  0  0  0  0
    7.5709    4.3532   26.0314 C   0  0  0  0  0  0  0  0  0  0  0  0
    7.9328    5.1163   27.1395 C   0  0  0  0  0  0  0  0  0  0  0  0
    9.2130    5.6766   27.2308 C   0  0  0  0  0  0  0  0  0  0  0  0
   10.1348    5.4411   26.2156 C   0  0  0  0  0  0  0  0  0  0  0  0
    9.7927    4.6483   25.1070 C   0  0  0  0  0  0  0  0  0  0  0  0
   10.7947    4.2734   24.0823 C   0  0  0  0  0  0  0  0  0  0  0  0
   11.9741    4.5808   24.1232 O   0  0  0  0  0  0  0  0  0  0  0  0
   10.3681    3.4886   23.0371 N   0  0  0  0  0  0  0  0  0  0  0  0
    9.1662    2.6932   23.0534 C   0  0  0  0  0  0  0  0  0  0  0  0
    9.3953    1.2533   23.5503 C   0  0  0  0  0  0  0  0  0  0  0  0
    9.9952    1.0210   24.7952 C   0  0  0  0  0  0  0  0  0  0  0  0
    9.9962   -0.2563   25.3481 C   0  0  0  0  0  0  0  0  0  0  0  0
   10.3599   -0.4597   27.0323 Cl  0  0  0  0  0  0  0  0  0  0  0  0
    9.5883   -1.3516   24.5963 C   0  0  0  0  0  0  0  0  0  0  0  0
    9.0342   -1.1485   23.3308 C   0  0  0  0  0  0  0  0  0  0  0  0
    8.8659    0.1533   22.8322 C   0  0  0  0  0  0  0  0  0  0  0  0
    8.1936    0.4145   21.6704 O   0  0  0  0  0  0  0  0  0  0  0  0
    7.4523   -0.6256   21.0209 C   0  0  0  0  0  0  0  0  0  0  0  0
    6.6611    0.0121   19.9107 C   0  0  0  0  0  0  0  0  0  0  0  0
    5.4371    0.6536   20.1450 C   0  0  0  0  0  0  0  0  0  0  0  0
    4.8094    1.2996   19.0798 C   0  0  0  0  0  0  0  0  0  0  0  0
    5.4238    1.2878   17.8236 C   0  0  0  0  0  0  0  0  0  0  0  0
    6.5901    0.6708   17.5766 N   0  0  0  0  0  0  0  0  0  0  0  0
    7.1832    0.0622   18.6119 C   0  0  0  0  0  0  0  0  0  0  0  0
    8.1329   -0.4270   18.3917 H   0  0  0  0  0  0  0  0  0  0  0  0
    4.9679    1.8028   16.9802 H   0  0  0  0  0  0  0  0  0  0  0  0
    3.8742    1.8315   19.2118 H   0  0  0  0  0  0  0  0  0  0  0  0
    4.9947    0.6651   21.1454 H   0  0  0  0  0  0  0  0  0  0  0  0
    8.1468   -1.3791   20.6219 H   0  0  0  0  0  0  0  0  0  0  0  0
    6.7769   -1.1192   21.7357 H   0  0  0  0  0  0  0  0  0  0  0  0
    8.6999   -2.0056   22.7621 H   0  0  0  0  0  0  0  0  0  0  0  0
    9.6989   -2.3444   25.0146 H   0  0  0  0  0  0  0  0  0  0  0  0
   10.4462    1.8357   25.3638 H   0  0  0  0  0  0  0  0  0  0  0  0
    8.7774    2.6460   22.0278 H   0  0  0  0  0  0  0  0  0  0  0  0
   11.1717    3.1221   22.5619 H   0  0  0  0  0  0  0  0  0  0  0  0
   11.1440    5.8401   26.2813 H   0  0  0  0  0  0  0  0  0  0  0  0
    9.4938    6.2693   28.0970 H   0  0  0  0  0  0  0  0  0  0  0  0
    7.2112    5.2799   27.9384 H   0  0  0  0  0  0  0  0  0  0  0  0
    6.5719    3.9378   25.9698 H   0  0  0  0  0  0  0  0  0  0  0  0
    6.3876    2.3340   24.3989 H   0  0  0  0  0  0  0  0  0  0  0  0
    6.1313    3.8916   23.5638 H   0  0  0  0  0  0  0  0  0  0  0  0
    6.6822    2.4677   22.6529 H   0  0  0  0  0  0  0  0  0  0  0  0
  1  2  1  0
  2  3  1  0
  3  4  2  0
  4  5  1  0
  5  6  2  0
  6  7  1  0
  7  8  2  0
  8  9  1  0
  9 10  2  0
  9 11  1  0
 11 12  1  0
 12 13  1  0
 13 14  2  0
 14 15  1  0
 15 16  1  0
 15 17  2  0
 17 18  1  0
 18 19  2  0
 19 20  1  0
 20 21  1  0
 21 22  1  0
 22 23  2  0
 23 24  1  0
 24 25  2  0
 25 26  1  0
 26 27  2  0
 27 28  1  0
 25 29  1  0
 24 30  1  0
 23 31  1  0
 21 32  1  0
 21 33  1  0
 18 34  1  0
 17 35  1  0
 14 36  1  0
 12 37  1  0
 11 38  1  0
  7 39  1  0
  6 40  1  0
  5 41  1  0
  4 42  1  0
  1 43  1  0
  1 44  1  0
  1 45  1  0
 12  2  1  0
 19 13  1  0
 27 22  1  0
  8  3  1  0
M  END
>  <cnnaffinity>  (1) 
-5.74662

>  <filename>  (1) 
CN1c2ccccc2C(=O)NC1c1cc(Cl)ccc1OCc1cccnc1

$$$$
