
     RDKit          3D

 43 47  0  0  0  0  0  0  0  0999 V2000
    8.8373   -6.2288   24.7629 C   0  0  0  0  0  0  0  0  0  0  0  0
    7.9148   -5.1439   24.5180 N   0  0  0  0  0  0  0  0  0  0  0  0
    8.3816   -3.8764   24.5954 N   0  0  0  0  0  0  0  0  0  0  0  0
    7.3423   -3.0735   24.5059 C   0  0  0  0  0  0  0  0  0  0  0  0
    7.5051   -1.6062   24.3142 C   0  0  0  0  0  0  0  0  0  0  0  0
    7.5585   -1.2350   22.8619 C   0  0  0  0  0  0  0  0  0  0  0  0
    6.6110   -0.6058   22.2008 N   0  0  0  0  0  0  0  0  0  0  0  0
    7.0878   -0.5640   20.9297 C   0  0  0  0  0  0  0  0  0  0  0  0
    6.4071    0.0821   19.8109 C   0  0  0  0  0  0  0  0  0  0  0  0
    5.2036    0.7858   19.9518 C   0  0  0  0  0  0  0  0  0  0  0  0
    4.6953    1.4445   18.8354 C   0  0  0  0  0  0  0  0  0  0  0  0
    5.3942    1.3678   17.6249 C   0  0  0  0  0  0  0  0  0  0  0  0
    6.5344    0.6770   17.4767 N   0  0  0  0  0  0  0  0  0  0  0  0
    7.0268    0.0532   18.5495 C   0  0  0  0  0  0  0  0  0  0  0  0
    7.9562   -0.4974   18.4037 H   0  0  0  0  0  0  0  0  0  0  0  0
    5.0305    1.8886   16.7409 H   0  0  0  0  0  0  0  0  0  0  0  0
    3.7929    2.0419   18.8884 H   0  0  0  0  0  0  0  0  0  0  0  0
    4.6931    0.8279   20.9160 H   0  0  0  0  0  0  0  0  0  0  0  0
    8.2655   -1.1340   20.7738 N   0  0  0  0  0  0  0  0  0  0  0  0
    8.5835   -1.5331   22.0252 N   0  0  0  0  0  0  0  0  0  0  0  0
    9.7720   -2.3205   22.2206 C   0  0  0  0  0  0  0  0  0  0  0  0
   11.1198   -1.7061   21.9672 C   0  0  0  0  0  0  0  0  0  0  0  0
   10.6893   -2.0308   23.3656 C   0  0  0  0  0  0  0  0  0  0  0  0
   11.1045   -2.9107   23.8479 H   0  0  0  0  0  0  0  0  0  0  0  0
   10.4872   -1.2033   24.0389 H   0  0  0  0  0  0  0  0  0  0  0  0
   11.8850   -2.3225   21.5055 H   0  0  0  0  0  0  0  0  0  0  0  0
   11.1426   -0.6606   21.6707 H   0  0  0  0  0  0  0  0  0  0  0  0
    9.6346   -3.3536   21.9165 H   0  0  0  0  0  0  0  0  0  0  0  0
    8.4087   -1.2724   24.8276 H   0  0  0  0  0  0  0  0  0  0  0  0
    6.6629   -1.0677   24.7525 H   0  0  0  0  0  0  0  0  0  0  0  0
    6.1376   -3.8300   24.4187 C   0  0  0  0  0  0  0  0  0  0  0  0
    4.7681   -3.4901   24.3436 C   0  0  0  0  0  0  0  0  0  0  0  0
    3.8545   -4.4787   24.0416 C   0  0  0  0  0  0  0  0  0  0  0  0
    4.2995   -5.8143   23.8177 C   0  0  0  0  0  0  0  0  0  0  0  0
    5.6324   -6.1741   23.9246 C   0  0  0  0  0  0  0  0  0  0  0  0
    6.5626   -5.1733   24.3145 C   0  0  0  0  0  0  0  0  0  0  0  0
    5.9343   -7.1612   23.5974 H   0  0  0  0  0  0  0  0  0  0  0  0
    3.5764   -6.5780   23.5383 H   0  0  0  0  0  0  0  0  0  0  0  0
    2.8001   -4.2185   23.9400 H   0  0  0  0  0  0  0  0  0  0  0  0
    4.4720   -2.4577   24.5061 H   0  0  0  0  0  0  0  0  0  0  0  0
    9.0759   -6.7538   23.8313 H   0  0  0  0  0  0  0  0  0  0  0  0
    9.7515   -5.8021   25.1856 H   0  0  0  0  0  0  0  0  0  0  0  0
    8.4044   -6.9196   25.4904 H   0  0  0  0  0  0  0  0  0  0  0  0
  1  2  1  0
  2  3  1  0
  3  4  2  0
  4  5  1  0
  5  6  1  0
  6  7  2  0
  7  8  1  0
  8  9  1  0
  9 10  2  0
 10 11  1  0
 11 12  2  0
 12 13  1  0
 13 14  2  0
 14 15  1  0
 12 16  1  0
 11 17  1  0
 10 18  1  0
  8 19  2  0
 19 20  1  0
 20 21  1  0
 21 22  1  0
 22 23  1  0
 23 24  1  0
 23 25  1  0
 22 26  1  0
 22 27  1  0
 21 28  1  0
  5 29  1  0
  5 30  1  0
  4 31  1  0
 31 32  2  0
 32 33  1  0
 33 34  2  0
 34 35  1  0
 35 36  2  0
 35 37  1  0
 34 38  1  0
 33 39  1  0
 32 40  1  0
  1 41  1  0
  1 42  1  0
  1 43  1  0
 36  2  1  0
 20  6  1  0
 23 21  1  0
 36 31  1  0
 14  9  1  0
M  END
>  <cnnaffinity>  (1) 
-6.17088

>  <filename>  (1) 
Cn1nc(Cc2nc(-c3cccnc3)nn2C2CC2)c2ccccc21

$$$$
