
     RDKit          3D

 30 32  0  0  0  0  0  0  0  0999 V2000
   10.0392   -2.5221   22.2807 C   0  0  0  0  0  0  0  0  0  0  0  0
    8.8521   -1.7437   21.9407 N   0  0  0  0  0  0  0  0  0  0  0  0
    8.5416   -1.2742   20.7152 N   0  0  0  0  0  0  0  0  0  0  0  0
    7.3988   -0.6658   20.9305 C   0  0  0  0  0  0  0  0  0  0  0  0
    6.6564    0.0106   19.9043 C   0  0  0  0  0  0  0  0  0  0  0  0
    5.4414    0.6497   20.1652 C   0  0  0  0  0  0  0  0  0  0  0  0
    4.8270    1.2890   19.1020 C   0  0  0  0  0  0  0  0  0  0  0  0
    5.4216    1.2779   17.8391 C   0  0  0  0  0  0  0  0  0  0  0  0
    6.5854    0.6480   17.5948 N   0  0  0  0  0  0  0  0  0  0  0  0
    7.1901    0.0323   18.6192 C   0  0  0  0  0  0  0  0  0  0  0  0
    8.1422   -0.4592   18.4363 H   0  0  0  0  0  0  0  0  0  0  0  0
    4.9247    1.8049   17.0337 H   0  0  0  0  0  0  0  0  0  0  0  0
    3.8936    1.8186   19.2400 H   0  0  0  0  0  0  0  0  0  0  0  0
    4.9920    0.6605   21.1592 H   0  0  0  0  0  0  0  0  0  0  0  0
    6.9360   -0.7280   22.2286 N   0  0  0  0  0  0  0  0  0  0  0  0
    7.8430   -1.4365   22.8248 C   0  0  0  0  0  0  0  0  0  0  0  0
    7.7987   -1.8826   24.2113 C   0  0  0  0  0  0  0  0  0  0  0  0
    8.0090   -3.2374   24.5370 C   0  0  0  0  0  0  0  0  0  0  0  0
    7.9540   -3.6454   25.8702 C   0  0  0  0  0  0  0  0  0  0  0  0
    7.7241   -2.7137   26.8763 C   0  0  0  0  0  0  0  0  0  0  0  0
    7.5012   -1.3626   26.5638 C   0  0  0  0  0  0  0  0  0  0  0  0
    7.1400   -0.0722   27.9362 Br  0  0  0  0  0  0  0  0  0  0  0  0
    7.5445   -0.9462   25.2251 C   0  0  0  0  0  0  0  0  0  0  0  0
    7.3293    0.7520   24.8328 Cl  0  0  0  0  0  0  0  0  0  0  0  0
    7.7364   -3.0970   27.8848 H   0  0  0  0  0  0  0  0  0  0  0  0
    8.0933   -4.6864   26.1458 H   0  0  0  0  0  0  0  0  0  0  0  0
    8.2004   -3.9921   23.7740 H   0  0  0  0  0  0  0  0  0  0  0  0
    9.7480   -3.5755   22.3186 H   0  0  0  0  0  0  0  0  0  0  0  0
   10.4343   -2.2093   23.2560 H   0  0  0  0  0  0  0  0  0  0  0  0
   10.8161   -2.3682   21.5235 H   0  0  0  0  0  0  0  0  0  0  0  0
  1  2  1  0
  2  3  1  0
  3  4  2  0
  4  5  1  0
  5  6  2  0
  6  7  1  0
  7  8  2  0
  8  9  1  0
  9 10  2  0
 10 11  1  0
  8 12  1  0
  7 13  1  0
  6 14  1  0
  4 15  1  0
 15 16  2  0
 16 17  1  0
 17 18  2  0
 18 19  1  0
 19 20  2  0
 20 21  1  0
 21 22  1  0
 21 23  2  0
 23 24  1  0
 20 25  1  0
 19 26  1  0
 18 27  1  0
  1 28  1  0
  1 29  1  0
  1 30  1  0
 16  2  1  0
 23 17  1  0
 10  5  1  0
M  END
>  <cnnaffinity>  (1) 
-5.62124

>  <filename>  (1) 
Cn1nc(-c2cccnc2)nc1-c1cccc(Br)c1Cl

$$$$
