
     RDKit          3D

 26 27  0  0  0  0  0  0  0  0999 V2000
    5.0015    1.6710   16.8539 H   0  0  0  0  0  0  0  0  0  0  0  0
    5.4194    1.2885   17.7826 C   0  0  0  0  0  0  0  0  0  0  0  0
    6.6334    0.7200   17.6928 N   0  0  0  0  0  0  0  0  0  0  0  0
    7.1746    0.2480   18.8193 C   0  0  0  0  0  0  0  0  0  0  0  0
    8.1744   -0.1791   18.7365 H   0  0  0  0  0  0  0  0  0  0  0  0
    6.5197    0.2994   20.0551 C   0  0  0  0  0  0  0  0  0  0  0  0
    7.4716   -0.2079   21.4843 S   0  0  0  0  0  4  0  0  0  0  0  0
    8.8760    0.2396   21.1675 O   0  0  0  0  0  0  0  0  0  0  0  0
    7.4525   -2.0098   21.0766 C   0  0  0  0  0  0  0  0  0  0  0  0
    8.1429   -2.0430   20.2291 H   0  0  0  0  0  0  0  0  0  0  0  0
    6.4498   -2.3191   20.7609 H   0  0  0  0  0  0  0  0  0  0  0  0
    7.9977   -2.8270   22.1974 C   0  0  0  0  0  0  0  0  0  0  0  0
    9.3051   -2.9427   22.6155 C   0  0  0  0  0  0  0  0  0  0  0  0
   10.1403   -2.3686   22.2420 H   0  0  0  0  0  0  0  0  0  0  0  0
    9.2890   -3.9249   23.6201 C   0  0  0  0  0  0  0  0  0  0  0  0
   10.0959   -4.3446   24.2128 H   0  0  0  0  0  0  0  0  0  0  0  0
    8.0570   -4.3737   23.8212 N   0  0  0  0  0  0  0  0  0  0  0  0
    7.2789   -3.6844   22.9751 N   0  0  0  0  0  0  0  0  0  0  0  0
    5.8391   -3.8215   23.0958 C   0  0  0  0  0  0  0  0  0  0  0  0
    5.6351   -4.3349   24.0371 H   0  0  0  0  0  0  0  0  0  0  0  0
    5.4262   -4.4173   22.2772 H   0  0  0  0  0  0  0  0  0  0  0  0
    5.3749   -2.8315   23.1186 H   0  0  0  0  0  0  0  0  0  0  0  0
    5.2339    0.8368   20.1442 C   0  0  0  0  0  0  0  0  0  0  0  0
    4.6988    0.8605   21.0958 H   0  0  0  0  0  0  0  0  0  0  0  0
    4.6815    1.3561   18.9692 C   0  0  0  0  0  0  0  0  0  0  0  0
    3.6974    1.8138   18.9693 H   0  0  0  0  0  0  0  0  0  0  0  0
  1  2  1  0
  2  3  2  0
  3  4  1  0
  4  5  1  0
  4  6  2  0
  6  7  1  0
  7  8  2  0
  7  9  1  6
  9 10  1  0
  9 11  1  0
  9 12  1  0
 12 13  2  0
 13 14  1  0
 13 15  1  0
 15 16  1  0
 15 17  2  0
 17 18  1  0
 18 19  1  0
 19 20  1  0
 19 21  1  0
 19 22  1  0
  6 23  1  0
 23 24  1  0
 23 25  2  0
 25 26  1  0
 25  2  1  0
 18 12  1  0
M  END
>  <cnnaffinity>  (1) 
-4.88439

>  <filename>  (1) 
Cn1nccc1C[S@@](=O)c1cccnc1

$$$$
