
     RDKit          3D

 36 39  0  0  0  0  0  0  0  0999 V2000
    7.6801    2.6223   24.5211 C   0  0  0  0  0  0  0  0  0  0  0  0
    7.8773    1.8302   23.2974 N   0  0  0  0  0  0  0  0  0  0  0  0
    6.9928    0.9376   22.7855 N   0  0  0  0  0  0  0  0  0  0  0  0
    7.6928    0.3780   21.8182 C   0  0  0  0  0  0  0  0  0  0  0  0
    7.2681   -0.6997   20.8604 C   0  0  0  0  0  0  0  0  0  0  0  0
    6.5935   -0.0964   19.6438 C   0  0  0  0  0  0  0  0  0  0  0  0
    5.4411    0.6571   19.8414 C   0  0  0  0  0  0  0  0  0  0  0  0
    4.8837    1.2976   18.7411 C   0  0  0  0  0  0  0  0  0  0  0  0
    5.4762    1.1664   17.4815 C   0  0  0  0  0  0  0  0  0  0  0  0
    6.5719    0.4130   17.2723 N   0  0  0  0  0  0  0  0  0  0  0  0
    7.1197   -0.2039   18.3374 C   0  0  0  0  0  0  0  0  0  0  0  0
    8.0272   -0.7836   18.1852 H   0  0  0  0  0  0  0  0  0  0  0  0
    5.0375    1.6985   16.6448 H   0  0  0  0  0  0  0  0  0  0  0  0
    4.0052    1.9201   18.8608 H   0  0  0  0  0  0  0  0  0  0  0  0
    5.0217    0.7578   20.8409 H   0  0  0  0  0  0  0  0  0  0  0  0
    6.6055   -1.4026   21.3720 H   0  0  0  0  0  0  0  0  0  0  0  0
    8.1705   -1.2353   20.5486 H   0  0  0  0  0  0  0  0  0  0  0  0
    8.9711    0.8465   21.6569 N   0  0  0  0  0  0  0  0  0  0  0  0
    9.0568    1.7410   22.5779 C   0  0  0  0  0  0  0  0  0  0  0  0
   10.2998    2.4232   22.7401 C   0  0  0  0  0  0  0  0  0  0  0  0
   11.5040    1.8160   22.7626 C   0  0  0  0  0  0  0  0  0  0  0  0
   11.9312    0.4168   22.6362 C   0  0  0  0  0  0  0  0  0  0  0  0
   10.6807   -1.0041   22.3814 Br  0  0  0  0  0  0  0  0  0  0  0  0
   13.2804    0.1525   22.6569 C   0  0  0  0  0  0  0  0  0  0  0  0
   14.2275    1.2714   22.7656 C   0  0  0  0  0  0  0  0  0  0  0  0
   13.7819    2.5803   22.8964 C   0  0  0  0  0  0  0  0  0  0  0  0
   12.4179    2.8414   22.9250 N   0  0  0  0  0  0  0  0  0  0  0  0
   11.8285    4.0717   22.9657 N   0  0  0  0  0  0  0  0  0  0  0  0
   10.5419    3.8360   22.8218 C   0  0  0  0  0  0  0  0  0  0  0  0
    9.7825    4.6058   22.7372 H   0  0  0  0  0  0  0  0  0  0  0  0
   14.4604    3.4258   22.8943 H   0  0  0  0  0  0  0  0  0  0  0  0
   15.2814    1.0900   22.6434 H   0  0  0  0  0  0  0  0  0  0  0  0
   13.6481   -0.8691   22.5627 H   0  0  0  0  0  0  0  0  0  0  0  0
    6.8942    2.1780   25.1479 H   0  0  0  0  0  0  0  0  0  0  0  0
    7.3909    3.6435   24.2565 H   0  0  0  0  0  0  0  0  0  0  0  0
    8.6121    2.6552   25.0984 H   0  0  0  0  0  0  0  0  0  0  0  0
  1  2  1  0
  2  3  1  0
  3  4  2  0
  4  5  1  0
  5  6  1  0
  6  7  2  0
  7  8  1  0
  8  9  2  0
  9 10  1  0
 10 11  2  0
 11 12  1  0
  9 13  1  0
  8 14  1  0
  7 15  1  0
  5 16  1  0
  5 17  1  0
  4 18  1  0
 18 19  2  0
 19 20  1  0
 20 21  2  0
 21 22  1  0
 22 23  1  0
 22 24  2  0
 24 25  1  0
 25 26  2  0
 26 27  1  0
 27 28  1  0
 28 29  2  0
 29 30  1  0
 26 31  1  0
 25 32  1  0
 24 33  1  0
  1 34  1  0
  1 35  1  0
  1 36  1  0
 19  2  1  0
 29 20  1  0
 11  6  1  0
 27 21  1  0
M  END
>  <cnnaffinity>  (1) 
-6.00102

>  <filename>  (1) 
Cn1nc(Cc2cccnc2)nc1-c1cnn2cccc(Br)c12

$$$$
