
     RDKit          3D

 35 37  0  0  0  0  0  0  0  0999 V2000
    9.6131    0.0955   20.6938 C   0  0  0  0  0  0  0  0  0  0  0  0
    8.5757   -0.6750   21.3296 N   0  0  0  0  0  0  0  0  0  0  0  0
    8.9035   -1.4504   22.3517 N   0  0  0  0  0  0  0  0  0  0  0  0
    7.7733   -2.0565   22.7241 C   0  0  0  0  0  0  0  0  0  0  0  0
    7.7674   -2.9971   23.9141 C   0  0  0  0  0  0  0  0  0  0  0  0
    8.7309   -3.2113   24.6222 O   0  0  0  0  0  0  0  0  0  0  0  0
    6.5482   -3.5964   24.1509 N   0  0  0  0  0  0  0  0  0  0  0  0
    6.1886   -4.2752   25.3313 C   0  0  0  0  0  0  0  0  0  0  0  0
    6.6812   -3.8574   26.5693 C   0  0  0  0  0  0  0  0  0  0  0  0
    6.3616   -4.5675   27.7245 C   0  0  0  0  0  0  0  0  0  0  0  0
    5.5066   -5.6690   27.6541 C   0  0  0  0  0  0  0  0  0  0  0  0
    5.0975   -6.5166   29.1200 Cl  0  0  0  0  0  0  0  0  0  0  0  0
    4.9960   -6.0815   26.4225 C   0  0  0  0  0  0  0  0  0  0  0  0
    5.3345   -5.3771   25.2607 C   0  0  0  0  0  0  0  0  0  0  0  0
    4.9807   -5.6989   24.2880 H   0  0  0  0  0  0  0  0  0  0  0  0
    4.3569   -6.9552   26.3763 H   0  0  0  0  0  0  0  0  0  0  0  0
    6.7998   -4.3034   28.6740 H   0  0  0  0  0  0  0  0  0  0  0  0
    7.3202   -2.9848   26.6058 H   0  0  0  0  0  0  0  0  0  0  0  0
    5.8858   -3.5939   23.4007 H   0  0  0  0  0  0  0  0  0  0  0  0
    6.7027   -1.6358   21.8873 C   0  0  0  0  0  0  0  0  0  0  0  0
    7.2553   -0.7447   20.9905 C   0  0  0  0  0  0  0  0  0  0  0  0
    6.6157    0.0146   19.8799 C   0  0  0  0  0  0  0  0  0  0  0  0
    5.3987    0.6820   20.1023 C   0  0  0  0  0  0  0  0  0  0  0  0
    4.7799    1.3519   19.0442 C   0  0  0  0  0  0  0  0  0  0  0  0
    5.3940    1.3340   17.7890 C   0  0  0  0  0  0  0  0  0  0  0  0
    6.5480    0.6988   17.5392 N   0  0  0  0  0  0  0  0  0  0  0  0
    7.1366    0.0682   18.5650 C   0  0  0  0  0  0  0  0  0  0  0  0
    8.0762   -0.4252   18.3184 H   0  0  0  0  0  0  0  0  0  0  0  0
    4.9310    1.8380   16.9447 H   0  0  0  0  0  0  0  0  0  0  0  0
    3.8424    1.8813   19.1772 H   0  0  0  0  0  0  0  0  0  0  0  0
    4.9602    0.6966   21.1009 H   0  0  0  0  0  0  0  0  0  0  0  0
    5.6558   -1.9108   21.9022 H   0  0  0  0  0  0  0  0  0  0  0  0
   10.4027    0.2916   21.4188 H   0  0  0  0  0  0  0  0  0  0  0  0
    9.1930    1.0337   20.3391 H   0  0  0  0  0  0  0  0  0  0  0  0
   10.0258   -0.4718   19.8605 H   0  0  0  0  0  0  0  0  0  0  0  0
  1  2  1  0
  2  3  1  0
  3  4  2  0
  4  5  1  0
  5  6  2  0
  5  7  1  0
  7  8  1  0
  8  9  2  0
  9 10  1  0
 10 11  2  0
 11 12  1  0
 11 13  1  0
 13 14  2  0
 14 15  1  0
 13 16  1  0
 10 17  1  0
  9 18  1  0
  7 19  1  0
  4 20  1  0
 20 21  2  0
 21 22  1  0
 22 23  2  0
 23 24  1  0
 24 25  2  0
 25 26  1  0
 26 27  2  0
 27 28  1  0
 25 29  1  0
 24 30  1  0
 23 31  1  0
 20 32  1  0
  1 33  1  0
  1 34  1  0
  1 35  1  0
 21  2  1  0
 27 22  1  0
 14  8  1  0
M  END
>  <cnnaffinity>  (1) 
-5.12133

>  <filename>  (1) 
Cn1nc(C(=O)Nc2ccc(Cl)cc2)cc1-c1cccnc1

$$$$
