
     RDKit          3D

 26 27  0  0  0  0  0  0  0  0999 V2000
    5.1277    1.7438   16.8809 H   0  0  0  0  0  0  0  0  0  0  0  0
    5.5129    1.2674   17.7785 C   0  0  0  0  0  0  0  0  0  0  0  0
    6.6733    0.6087   17.6347 N   0  0  0  0  0  0  0  0  0  0  0  0
    7.1881    0.0281   18.7200 C   0  0  0  0  0  0  0  0  0  0  0  0
    8.1208   -0.5139   18.5736 H   0  0  0  0  0  0  0  0  0  0  0  0
    6.5812    0.0854   19.9823 C   0  0  0  0  0  0  0  0  0  0  0  0
    7.2330   -0.5553   21.1151 C   0  0  0  0  0  0  0  0  0  0  0  0
    6.7644   -0.8049   22.2933 N   0  0  0  0  0  0  0  0  0  0  0  0
    7.7683   -1.4955   22.9750 N   0  0  0  0  0  0  0  0  0  0  0  0
    8.7411   -1.6067   22.1476 C   0  0  0  0  0  0  0  0  0  0  0  0
   10.0430   -2.2658   22.2963 C   0  0  0  0  0  0  0  0  0  0  0  0
   10.2431   -2.8292   21.3936 H   0  0  0  0  0  0  0  0  0  0  0  0
   10.0331   -2.9059   23.1788 H   0  0  0  0  0  0  0  0  0  0  0  0
   11.0788   -1.1730   22.4126 C   0  0  0  0  0  0  0  0  0  0  0  0
   11.8655   -0.8879   21.5382 O   0  0  0  0  0  0  0  0  0  0  0  0
   11.0353   -0.5763   23.6280 N   0  0  0  0  0  0  0  0  0  0  0  0
   10.2083   -0.7753   24.1721 H   0  0  0  0  0  0  0  0  0  0  0  0
   11.9243    0.4744   24.0660 C   0  0  0  0  0  0  0  0  0  0  0  0
   12.9325    0.2872   23.6893 H   0  0  0  0  0  0  0  0  0  0  0  0
   11.9634    0.4660   25.1554 H   0  0  0  0  0  0  0  0  0  0  0  0
   11.6179    1.4767   23.7354 H   0  0  0  0  0  0  0  0  0  0  0  0
    8.5027   -1.0155   20.9617 O   0  0  0  0  0  0  0  0  0  0  0  0
    5.3496    0.7422   20.1184 C   0  0  0  0  0  0  0  0  0  0  0  0
    4.8447    0.7711   21.0875 H   0  0  0  0  0  0  0  0  0  0  0  0
    4.8118    1.3485   18.9872 C   0  0  0  0  0  0  0  0  0  0  0  0
    3.8717    1.8876   19.0236 H   0  0  0  0  0  0  0  0  0  0  0  0
  1  2  1  0
  2  3  2  0
  3  4  1  0
  4  5  1  0
  4  6  2  0
  6  7  1  0
  7  8  2  0
  8  9  1  0
  9 10  2  0
 10 11  1  0
 11 12  1  0
 11 13  1  0
 11 14  1  0
 14 15  2  0
 14 16  1  0
 16 17  1  0
 16 18  1  0
 18 19  1  0
 18 20  1  0
 18 21  1  0
 10 22  1  0
  6 23  1  0
 23 24  1  0
 23 25  2  0
 25 26  1  0
 25  2  1  0
 22  7  1  0
M  END
>  <cnnaffinity>  (1) 
-4.50292

>  <filename>  (1) 
CNC(=O)Cc1nnc(-c2cccnc2)o1

$$$$
