
     RDKit          3D

 28 29  0  0  0  0  0  0  0  0999 V2000
    4.9281    1.7795   16.9992 H   0  0  0  0  0  0  0  0  0  0  0  0
    5.4053    1.2881   17.8472 C   0  0  0  0  0  0  0  0  0  0  0  0
    6.5723    0.6703   17.5985 N   0  0  0  0  0  0  0  0  0  0  0  0
    7.1732    0.0366   18.6073 C   0  0  0  0  0  0  0  0  0  0  0  0
    8.1214   -0.4405   18.3777 H   0  0  0  0  0  0  0  0  0  0  0  0
    6.6493   -0.0110   19.9075 C   0  0  0  0  0  0  0  0  0  0  0  0
    7.3752   -0.6994   20.9195 N   0  0  0  0  0  0  0  0  0  0  0  0
    7.7622   -1.9812   20.7469 N   0  0  0  0  0  0  0  0  0  0  0  0
    8.3633   -2.3155   21.8763 C   0  0  0  0  0  0  0  0  0  0  0  0
    8.7817   -3.3064   21.9915 H   0  0  0  0  0  0  0  0  0  0  0  0
    8.3997   -1.2490   22.7902 C   0  0  0  0  0  0  0  0  0  0  0  0
    8.8365   -1.2108   23.7748 H   0  0  0  0  0  0  0  0  0  0  0  0
    7.7765   -0.2152   22.1385 C   0  0  0  0  0  0  0  0  0  0  0  0
    7.5959    1.1742   22.6750 C   0  0  0  0  0  0  0  0  0  0  0  0
    7.2113    1.8498   21.9088 H   0  0  0  0  0  0  0  0  0  0  0  0
    8.5776    1.5532   22.9880 H   0  0  0  0  0  0  0  0  0  0  0  0
    6.5968    1.2188   23.8396 C   0  0  0  0  0  0  0  0  0  0  0  0
    5.4124    1.4545   23.6656 O   0  0  0  0  0  0  0  0  0  0  0  0
    7.0877    0.9561   25.0812 N   0  0  0  0  0  0  0  0  0  0  0  0
    8.0637    0.7576   25.1809 H   0  0  0  0  0  0  0  0  0  0  0  0
    6.2215    0.9254   26.2466 C   0  0  0  0  0  0  0  0  0  0  0  0
    6.8061    0.6888   27.1355 H   0  0  0  0  0  0  0  0  0  0  0  0
    5.7316    1.8911   26.3950 H   0  0  0  0  0  0  0  0  0  0  0  0
    5.4339    0.1744   26.1375 H   0  0  0  0  0  0  0  0  0  0  0  0
    5.4379    0.6454   20.1784 C   0  0  0  0  0  0  0  0  0  0  0  0
    5.0189    0.6503   21.1897 H   0  0  0  0  0  0  0  0  0  0  0  0
    4.8088    1.3014   19.1115 C   0  0  0  0  0  0  0  0  0  0  0  0
    3.8793    1.8388   19.2597 H   0  0  0  0  0  0  0  0  0  0  0  0
  1  2  1  0
  2  3  2  0
  3  4  1  0
  4  5  1  0
  4  6  2  0
  6  7  1  0
  7  8  1  0
  8  9  2  0
  9 10  1  0
  9 11  1  0
 11 12  1  0
 11 13  2  0
 13 14  1  0
 14 15  1  0
 14 16  1  0
 14 17  1  0
 17 18  2  0
 17 19  1  0
 19 20  1  0
 19 21  1  0
 21 22  1  0
 21 23  1  0
 21 24  1  0
  6 25  1  0
 25 26  1  0
 25 27  2  0
 27 28  1  0
 27  2  1  0
 13  7  1  0
M  END
>  <cnnaffinity>  (1) 
-4.52738

>  <filename>  (1) 
CNC(=O)Cc1ccnn1-c1cccnc1

$$$$
