
     RDKit          3D

 32 33  0  0  0  0  0  0  0  0999 V2000
    5.0180    1.7814   17.0263 H   0  0  0  0  0  0  0  0  0  0  0  0
    5.4437    1.2263   17.8609 C   0  0  0  0  0  0  0  0  0  0  0  0
    6.5873    0.5665   17.6191 N   0  0  0  0  0  0  0  0  0  0  0  0
    7.1453   -0.0814   18.6499 C   0  0  0  0  0  0  0  0  0  0  0  0
    8.0962   -0.5754   18.4517 H   0  0  0  0  0  0  0  0  0  0  0  0
    6.6107   -0.1282   19.9445 C   0  0  0  0  0  0  0  0  0  0  0  0
    7.3370   -0.8324   21.0286 C   0  0  0  0  0  0  0  0  0  0  0  0
    6.9853   -2.2105   21.1625 N   0  0  0  0  0  0  0  0  0  0  0  0
    6.2145   -2.5400   20.6114 H   0  0  0  0  0  0  0  0  0  0  0  0
    7.4220   -3.0653   22.1195 C   0  0  0  0  0  0  0  0  0  0  0  0
    8.0972   -2.7514   23.0825 O   0  0  0  0  0  0  0  0  0  0  0  0
    6.9312   -4.4692   21.9584 C   0  0  0  0  0  0  0  0  0  0  0  0
    7.5892   -5.1341   22.5158 H   0  0  0  0  0  0  0  0  0  0  0  0
    6.8332   -4.7653   20.9171 H   0  0  0  0  0  0  0  0  0  0  0  0
    5.5795   -4.3570   22.5942 C   0  0  0  0  0  0  0  0  0  0  0  0
    4.5882   -4.0715   21.9491 O   0  0  0  0  0  0  0  0  0  0  0  0
    5.6127   -4.5037   23.9418 N   0  0  0  0  0  0  0  0  0  0  0  0
    6.5224   -4.4603   24.3707 H   0  0  0  0  0  0  0  0  0  0  0  0
    4.4196   -4.5579   24.7613 C   0  0  0  0  0  0  0  0  0  0  0  0
    3.7830   -3.6796   24.6100 H   0  0  0  0  0  0  0  0  0  0  0  0
    3.8288   -5.4526   24.5367 H   0  0  0  0  0  0  0  0  0  0  0  0
    4.7000   -4.6002   25.8145 H   0  0  0  0  0  0  0  0  0  0  0  0
    8.7627   -0.4348   21.2757 C   0  0  0  0  0  0  0  0  0  0  0  0
    9.1764    0.3329   20.6254 H   0  0  0  0  0  0  0  0  0  0  0  0
    9.4466   -1.2107   21.5989 H   0  0  0  0  0  0  0  0  0  0  0  0
    7.6898   -0.0361   22.2511 C   0  0  0  0  0  0  0  0  0  0  0  0
    7.3607    1.0006   22.2634 H   0  0  0  0  0  0  0  0  0  0  0  0
    7.6862   -0.5638   23.1945 H   0  0  0  0  0  0  0  0  0  0  0  0
    5.4161    0.5653   20.1740 C   0  0  0  0  0  0  0  0  0  0  0  0
    4.9921    0.5747   21.1783 H   0  0  0  0  0  0  0  0  0  0  0  0
    4.8233    1.2463   19.1137 C   0  0  0  0  0  0  0  0  0  0  0  0
    3.9090    1.8076   19.2515 H   0  0  0  0  0  0  0  0  0  0  0  0
  1  2  1  0
  2  3  2  0
  3  4  1  0
  4  5  1  0
  4  6  2  0
  6  7  1  0
  7  8  1  0
  8  9  1  0
  8 10  1  0
 10 11  2  0
 10 12  1  0
 12 13  1  0
 12 14  1  0
 12 15  1  0
 15 16  2  0
 15 17  1  0
 17 18  1  0
 17 19  1  0
 19 20  1  0
 19 21  1  0
 19 22  1  0
  7 23  1  0
 23 24  1  0
 23 25  1  0
 23 26  1  0
 26 27  1  0
 26 28  1  0
  6 29  1  0
 29 30  1  0
 29 31  2  0
 31 32  1  0
 31  2  1  0
 26  7  1  0
M  END
>  <cnnaffinity>  (1) 
-4.50033

>  <filename>  (1) 
CNC(=O)CC(=O)NC1(c2cccnc2)CC1

$$$$
