
     RDKit          3D

 27 27  0  0  0  0  0  0  0  0999 V2000
    4.9486    1.8416   16.9509 H   0  0  0  0  0  0  0  0  0  0  0  0
    5.3878    1.3253   17.8033 C   0  0  0  0  0  0  0  0  0  0  0  0
    6.5425    0.6847   17.5582 N   0  0  0  0  0  0  0  0  0  0  0  0
    7.1142    0.0322   18.5703 C   0  0  0  0  0  0  0  0  0  0  0  0
    8.0556   -0.4624   18.3307 H   0  0  0  0  0  0  0  0  0  0  0  0
    6.5881   -0.0086   19.8690 C   0  0  0  0  0  0  0  0  0  0  0  0
    7.3444   -0.7809   20.9066 C   0  0  0  0  0  0  0  0  0  0  0  0
    7.5354   -1.9697   20.7292 O   0  0  0  0  0  0  0  0  0  0  0  0
    7.9067   -0.0622   22.2294 C   0  0  0  0  0  0  0  0  0  0  0  0
    9.2839   -0.4658   22.5868 N   0  0  0  0  0  0  0  0  0  0  0  0
    9.2513   -1.4589   22.8120 H   0  0  0  0  0  0  0  0  0  0  0  0
   10.3178   -0.1897   21.5897 C   0  0  0  0  0  0  0  0  0  0  0  0
   11.2405   -0.7069   21.8703 H   0  0  0  0  0  0  0  0  0  0  0  0
   10.0378   -0.5099   20.5749 H   0  0  0  0  0  0  0  0  0  0  0  0
   10.5321    0.8887   21.5517 H   0  0  0  0  0  0  0  0  0  0  0  0
    7.0174   -0.4980   23.4023 C   0  0  0  0  0  0  0  0  0  0  0  0
    6.9722   -1.5884   23.5054 H   0  0  0  0  0  0  0  0  0  0  0  0
    7.3979   -0.0811   24.3416 H   0  0  0  0  0  0  0  0  0  0  0  0
    6.0031   -0.1153   23.2547 H   0  0  0  0  0  0  0  0  0  0  0  0
    7.9001    1.4721   22.1229 C   0  0  0  0  0  0  0  0  0  0  0  0
    8.3852    1.8204   21.2032 H   0  0  0  0  0  0  0  0  0  0  0  0
    6.8818    1.8727   22.1422 H   0  0  0  0  0  0  0  0  0  0  0  0
    8.4493    1.8708   22.9838 H   0  0  0  0  0  0  0  0  0  0  0  0
    5.3850    0.6708   20.1160 C   0  0  0  0  0  0  0  0  0  0  0  0
    4.9362    0.6813   21.1122 H   0  0  0  0  0  0  0  0  0  0  0  0
    4.7728    1.3392   19.0584 C   0  0  0  0  0  0  0  0  0  0  0  0
    3.8400    1.8753   19.1885 H   0  0  0  0  0  0  0  0  0  0  0  0
  1  2  1  0
  2  3  2  0
  3  4  1  0
  4  5  1  0
  4  6  2  0
  6  7  1  0
  7  8  2  0
  7  9  1  0
  9 10  1  0
 10 11  1  0
 10 12  1  0
 12 13  1  0
 12 14  1  0
 12 15  1  0
  9 16  1  0
 16 17  1  0
 16 18  1  0
 16 19  1  0
  9 20  1  0
 20 21  1  0
 20 22  1  0
 20 23  1  0
  6 24  1  0
 24 25  1  0
 24 26  2  0
 26 27  1  0
 26  2  1  0
M  END
>  <cnnaffinity>  (1) 
-3.86586

>  <filename>  (1) 
CNC(C)(C)C(=O)c1cccnc1

$$$$
