
     RDKit          3D

 25 25  0  0  0  0  0  0  0  0999 V2000
    4.9899    1.8095   16.9509 H   0  0  0  0  0  0  0  0  0  0  0  0
    5.4270    1.2851   17.8008 C   0  0  0  0  0  0  0  0  0  0  0  0
    6.5603    0.6098   17.5585 N   0  0  0  0  0  0  0  0  0  0  0  0
    7.1333   -0.0152   18.5892 C   0  0  0  0  0  0  0  0  0  0  0  0
    8.0363   -0.5821   18.3797 H   0  0  0  0  0  0  0  0  0  0  0  0
    6.6417    0.0368   19.9133 C   0  0  0  0  0  0  0  0  0  0  0  0
    7.4649   -0.6481   20.9624 C   0  0  0  0  0  0  0  0  0  0  0  0
    8.3027   -1.4645   20.6197 O   0  0  0  0  0  0  0  0  0  0  0  0
    7.2490   -0.3546   22.5058 C   0  0  0  0  0  0  0  0  0  0  0  0
    6.4682    0.4895   22.9048 O   0  0  0  0  0  0  0  0  0  0  0  0
    7.9285   -1.2204   23.5486 C   0  0  0  0  0  0  0  0  0  0  0  0
    8.8320   -1.7055   23.1833 H   0  0  0  0  0  0  0  0  0  0  0  0
    8.1482   -0.6072   24.4239 H   0  0  0  0  0  0  0  0  0  0  0  0
    6.8400   -2.2158   23.8883 C   0  0  0  0  0  0  0  0  0  0  0  0
    6.7485   -3.2928   23.3450 O   0  0  0  0  0  0  0  0  0  0  0  0
    5.9297   -1.7216   24.7819 N   0  0  0  0  0  0  0  0  0  0  0  0
    5.8167   -0.7235   24.6523 H   0  0  0  0  0  0  0  0  0  0  0  0
    4.7273   -2.4897   25.0732 C   0  0  0  0  0  0  0  0  0  0  0  0
    4.9656   -3.3424   25.7204 H   0  0  0  0  0  0  0  0  0  0  0  0
    4.0166   -1.8494   25.5996 H   0  0  0  0  0  0  0  0  0  0  0  0
    4.2545   -2.8676   24.1551 H   0  0  0  0  0  0  0  0  0  0  0  0
    5.4360    0.7105   20.1446 C   0  0  0  0  0  0  0  0  0  0  0  0
    4.9912    0.7671   21.1382 H   0  0  0  0  0  0  0  0  0  0  0  0
    4.8198    1.3355   19.0590 C   0  0  0  0  0  0  0  0  0  0  0  0
    3.8893    1.8740   19.1740 H   0  0  0  0  0  0  0  0  0  0  0  0
  1  2  1  0
  2  3  2  0
  3  4  1  0
  4  5  1  0
  4  6  2  0
  6  7  1  0
  7  8  2  0
  7  9  1  0
  9 10  2  0
  9 11  1  0
 11 12  1  0
 11 13  1  0
 11 14  1  0
 14 15  2  0
 14 16  1  0
 16 17  1  0
 16 18  1  0
 18 19  1  0
 18 20  1  0
 18 21  1  0
  6 22  1  0
 22 23  1  0
 22 24  2  0
 24 25  1  0
 24  2  1  0
M  END
>  <cnnaffinity>  (1) 
-3.6682

>  <filename>  (1) 
CNC(=O)CC(=O)C(=O)c1cccnc1

$$$$
