
     RDKit          3D

 38 40  0  0  0  0  0  0  0  0999 V2000
    4.9303    1.8030   16.9846 H   0  0  0  0  0  0  0  0  0  0  0  0
    5.3913    1.2914   17.8257 C   0  0  0  0  0  0  0  0  0  0  0  0
    6.5421    0.6548   17.5699 N   0  0  0  0  0  0  0  0  0  0  0  0
    7.1504    0.0392   18.5970 C   0  0  0  0  0  0  0  0  0  0  0  0
    8.1033   -0.4187   18.3310 H   0  0  0  0  0  0  0  0  0  0  0  0
    6.6550   -0.0087   19.9202 C   0  0  0  0  0  0  0  0  0  0  0  0
    7.3368   -0.8630   21.0065 C   0  0  2  0  0  0  0  0  0  0  0  0
    6.6707   -2.2658   20.8480 C   0  0  0  0  0  0  0  0  0  0  0  0
    6.7213   -2.5612   19.7995 H   0  0  0  0  0  0  0  0  0  0  0  0
    5.6074   -2.1401   21.0806 H   0  0  0  0  0  0  0  0  0  0  0  0
    7.2472   -3.4304   21.6255 C   0  0  0  0  0  0  0  0  0  0  0  0
    8.1875   -4.1013   21.2232 O   0  0  0  0  0  0  0  0  0  0  0  0
    6.6408   -3.7090   22.8099 N   0  0  0  0  0  0  0  0  0  0  0  0
    5.8525   -3.1380   23.0580 H   0  0  0  0  0  0  0  0  0  0  0  0
    7.1547   -4.7315   23.7063 C   0  0  0  0  0  0  0  0  0  0  0  0
    7.1676   -5.7088   23.2089 H   0  0  0  0  0  0  0  0  0  0  0  0
    8.1926   -4.5080   23.9894 H   0  0  0  0  0  0  0  0  0  0  0  0
    6.5300   -4.7795   24.6037 H   0  0  0  0  0  0  0  0  0  0  0  0
    7.1824   -0.2992   22.4654 C   0  0  0  0  0  0  0  0  0  0  0  0
    6.6636   -1.0113   23.1189 H   0  0  0  0  0  0  0  0  0  0  0  0
    6.6146    0.6389   22.4774 H   0  0  0  0  0  0  0  0  0  0  0  0
    8.6252   -0.0650   22.9699 C   0  0  2  0  0  0  0  0  0  0  0  0
    8.6991    0.0226   24.0596 H   0  0  0  0  0  0  0  0  0  0  0  0
    9.2058    1.1429   22.2001 C   0  0  0  0  0  0  0  0  0  0  0  0
    8.5252    2.0047   22.1806 H   0  0  0  0  0  0  0  0  0  0  0  0
   10.1442    1.4952   22.6459 H   0  0  0  0  0  0  0  0  0  0  0  0
    9.4773    0.5271   20.8015 C   0  0  0  0  0  0  0  0  0  0  0  0
   10.5583    0.4657   20.6737 H   0  0  0  0  0  0  0  0  0  0  0  0
    9.0379    1.0820   19.9728 H   0  0  0  0  0  0  0  0  0  0  0  0
    8.8980   -0.9036   20.9011 C   0  0  1  0  0  0  0  0  0  0  0  0
    9.2480   -1.5838   20.1164 H   0  0  0  0  0  0  0  0  0  0  0  0
    9.3668   -1.2521   22.3237 C   0  0  0  0  0  0  0  0  0  0  0  0
   10.4625   -1.2062   22.4168 H   0  0  0  0  0  0  0  0  0  0  0  0
    9.0546   -2.2410   22.6715 H   0  0  0  0  0  0  0  0  0  0  0  0
    5.4315    0.6500   20.1448 C   0  0  0  0  0  0  0  0  0  0  0  0
    4.9733    0.6491   21.1349 H   0  0  0  0  0  0  0  0  0  0  0  0
    4.7984    1.3153   19.0923 C   0  0  0  0  0  0  0  0  0  0  0  0
    3.8683    1.8553   19.2422 H   0  0  0  0  0  0  0  0  0  0  0  0
  1  2  1  0
  2  3  2  0
  3  4  1  0
  4  5  1  0
  4  6  2  0
  6  7  1  0
  7  8  1  1
  8  9  1  0
  8 10  1  0
  8 11  1  0
 11 12  2  0
 11 13  1  0
 13 14  1  0
 13 15  1  0
 15 16  1  0
 15 17  1  0
 15 18  1  0
  7 19  1  0
 19 20  1  0
 19 21  1  0
 19 22  1  0
 22 23  1  1
 22 24  1  0
 24 25  1  0
 24 26  1  0
 24 27  1  0
 27 28  1  0
 27 29  1  0
 27 30  1  0
 30 31  1  6
 30 32  1  0
 32 33  1  0
 32 34  1  0
  6 35  1  0
 35 36  1  0
 35 37  2  0
 37 38  1  0
 37  2  1  0
 30  7  1  0
 32 22  1  0
M  END
>  <cnnaffinity>  (1) 
-5.31128

>  <filename>  (1) 
CNC(=O)C[C@@]1(c2cccnc2)C[C@@H]2CC[C@H]1C2

$$$$
