
     RDKit          3D

 29 30  0  0  0  0  0  0  0  0999 V2000
    4.9179    1.7864   16.9955 H   0  0  0  0  0  0  0  0  0  0  0  0
    5.4010    1.2946   17.8389 C   0  0  0  0  0  0  0  0  0  0  0  0
    6.5612    0.6725   17.5784 N   0  0  0  0  0  0  0  0  0  0  0  0
    7.1806    0.0625   18.5966 C   0  0  0  0  0  0  0  0  0  0  0  0
    8.1171   -0.4407   18.3682 H   0  0  0  0  0  0  0  0  0  0  0  0
    6.6811    0.0258   19.9133 C   0  0  0  0  0  0  0  0  0  0  0  0
    7.3658   -0.6621   20.9666 N   0  0  0  0  0  0  0  0  0  0  0  0
    8.6189   -0.3759   21.5101 C   0  0  0  0  0  0  0  0  0  0  0  0
    9.4524    0.7781   21.0859 C   0  0  0  0  0  0  0  0  0  0  0  0
    9.4927    0.8115   19.9968 H   0  0  0  0  0  0  0  0  0  0  0  0
   10.4692    0.6146   21.4533 H   0  0  0  0  0  0  0  0  0  0  0  0
    8.9008    2.0980   21.6062 C   0  0  0  0  0  0  0  0  0  0  0  0
    7.8897    2.2464   21.2057 H   0  0  0  0  0  0  0  0  0  0  0  0
    9.5219    2.9285   21.2236 H   0  0  0  0  0  0  0  0  0  0  0  0
    8.8286    2.0752   23.0555 N   0  0  0  0  0  0  0  0  0  0  0  0
    9.7733    1.9851   23.4185 H   0  0  0  0  0  0  0  0  0  0  0  0
    8.2049    3.2716   23.5978 C   0  0  0  0  0  0  0  0  0  0  0  0
    7.1638    3.3071   23.2595 H   0  0  0  0  0  0  0  0  0  0  0  0
    8.1857    3.2301   24.6916 H   0  0  0  0  0  0  0  0  0  0  0  0
    8.6878    4.2168   23.2868 H   0  0  0  0  0  0  0  0  0  0  0  0
    8.9349   -1.2113   22.4446 N   0  0  0  0  0  0  0  0  0  0  0  0
    7.8474   -2.0238   22.5317 N   0  0  0  0  0  0  0  0  0  0  0  0
    7.7677   -2.7594   23.2133 H   0  0  0  0  0  0  0  0  0  0  0  0
    6.8603   -1.7584   21.6562 C   0  0  0  0  0  0  0  0  0  0  0  0
    5.4612   -2.6293   21.4691 S   0  0  0  0  0  0  0  0  0  0  0  0
    5.4554    0.6438   20.1707 C   0  0  0  0  0  0  0  0  0  0  0  0
    5.0242    0.6028   21.1727 H   0  0  0  0  0  0  0  0  0  0  0  0
    4.8193    1.3053   19.1113 C   0  0  0  0  0  0  0  0  0  0  0  0
    3.8865    1.8319   19.2613 H   0  0  0  0  0  0  0  0  0  0  0  0
  1  2  1  0
  2  3  2  0
  3  4  1  0
  4  5  1  0
  4  6  2  0
  6  7  1  0
  7  8  1  0
  8  9  1  0
  9 10  1  0
  9 11  1  0
  9 12  1  0
 12 13  1  0
 12 14  1  0
 12 15  1  0
 15 16  1  0
 15 17  1  0
 17 18  1  0
 17 19  1  0
 17 20  1  0
  8 21  2  0
 21 22  1  0
 22 23  1  0
 22 24  1  0
 24 25  2  0
  6 26  1  0
 26 27  1  0
 26 28  2  0
 28 29  1  0
 28  2  1  0
 24  7  1  0
M  END
>  <cnnaffinity>  (1) 
-4.6119

>  <filename>  (1) 
CNCCc1n[nH]c(=S)n1-c1cccnc1

$$$$
