
     RDKit          3D

 35 37  0  0  0  0  0  0  0  0999 V2000
    4.1895    4.9205   24.4617 C   0  0  0  0  0  0  0  0  0  0  0  0
    5.2987    5.6044   23.8051 N   0  0  0  0  0  0  0  0  0  0  0  0
    6.8442    5.2494   24.2701 S   0  0  0  0  0  0  0  0  0  0  0  0
    6.8992    5.2983   25.7175 O   0  0  0  0  0  0  0  0  0  0  0  0
    7.6214    6.1534   23.4495 O   0  0  0  0  0  0  0  0  0  0  0  0
    7.0077    3.6266   23.7650 C   0  0  0  0  0  0  0  0  0  0  0  0
    6.9721    2.5596   24.6648 C   0  0  0  0  0  0  0  0  0  0  0  0
    7.1662    1.3040   24.1274 C   0  0  0  0  0  0  0  0  0  0  0  0
    7.3785    1.1687   22.7448 C   0  0  0  0  0  0  0  0  0  0  0  0
    7.6559   -0.1794   22.2330 C   0  0  0  0  0  0  0  0  0  0  0  0
    8.2381   -1.2692   22.8690 C   0  0  0  0  0  0  0  0  0  0  0  0
    8.3020   -2.2555   21.8774 C   0  0  0  0  0  0  0  0  0  0  0  0
    7.7954   -1.8402   20.7307 N   0  0  0  0  0  0  0  0  0  0  0  0
    7.3784   -0.5869   20.9525 N   0  0  0  0  0  0  0  0  0  0  0  0
    6.6471    0.0576   19.9296 C   0  0  0  0  0  0  0  0  0  0  0  0
    5.3990    0.6460   20.1550 C   0  0  0  0  0  0  0  0  0  0  0  0
    4.7859    1.2890   19.0801 C   0  0  0  0  0  0  0  0  0  0  0  0
    5.4134    1.2781   17.8335 C   0  0  0  0  0  0  0  0  0  0  0  0
    6.5785    0.6448   17.6053 N   0  0  0  0  0  0  0  0  0  0  0  0
    7.1742    0.0408   18.6315 C   0  0  0  0  0  0  0  0  0  0  0  0
    8.1106   -0.4795   18.4253 H   0  0  0  0  0  0  0  0  0  0  0  0
    4.9738    1.7958   16.9854 H   0  0  0  0  0  0  0  0  0  0  0  0
    3.8537    1.8235   19.2159 H   0  0  0  0  0  0  0  0  0  0  0  0
    4.9537    0.6437   21.1495 H   0  0  0  0  0  0  0  0  0  0  0  0
    8.6782   -3.2678   21.9463 H   0  0  0  0  0  0  0  0  0  0  0  0
    8.5999   -1.3499   23.8870 H   0  0  0  0  0  0  0  0  0  0  0  0
    7.3802    2.2302   21.9060 N   0  0  0  0  0  0  0  0  0  0  0  0
    7.1942    3.4424   22.4079 C   0  0  0  0  0  0  0  0  0  0  0  0
    7.2126    4.2851   21.7174 H   0  0  0  0  0  0  0  0  0  0  0  0
    7.1570    0.4228   24.7562 H   0  0  0  0  0  0  0  0  0  0  0  0
    6.8179    2.7195   25.7319 H   0  0  0  0  0  0  0  0  0  0  0  0
    5.3914    6.5907   24.0066 H   0  0  0  0  0  0  0  0  0  0  0  0
    4.2553    4.9194   25.5567 H   0  0  0  0  0  0  0  0  0  0  0  0
    4.1452    3.8847   24.1106 H   0  0  0  0  0  0  0  0  0  0  0  0
    3.2552    5.4069   24.1571 H   0  0  0  0  0  0  0  0  0  0  0  0
  1  2  1  0
  2  3  1  0
  3  4  2  0
  3  5  2  0
  3  6  1  0
  6  7  2  0
  7  8  1  0
  8  9  2  0
  9 10  1  0
 10 11  2  0
 11 12  1  0
 12 13  2  0
 13 14  1  0
 14 15  1  0
 15 16  2  0
 16 17  1  0
 17 18  2  0
 18 19  1  0
 19 20  2  0
 20 21  1  0
 18 22  1  0
 17 23  1  0
 16 24  1  0
 12 25  1  0
 11 26  1  0
  9 27  1  0
 27 28  2  0
 28 29  1  0
  8 30  1  0
  7 31  1  0
  2 32  1  0
  1 33  1  0
  1 34  1  0
  1 35  1  0
 28  6  1  0
 14 10  1  0
 20 15  1  0
M  END
>  <cnnaffinity>  (1) 
-5.17605

>  <filename>  (1) 
CNS(=O)(=O)c1ccc(-c2ccnn2-c2cccnc2)nc1

$$$$
