
     RDKit          3D

 45 46  0  0  0  0  0  0  0  0999 V2000
    8.6105    0.9486   22.0810 C   0  0  0  0  0  0  0  0  0  0  0  0
    7.5366    0.0197   22.1755 O   0  0  0  0  0  0  0  0  0  0  0  0
    7.3534   -0.7803   21.0082 C   0  0  0  0  0  0  0  0  0  0  0  0
    6.5880   -2.1226   21.3386 C   0  0  0  0  0  0  0  0  0  0  0  0
    5.7912   -2.6543   20.5786 O   0  0  0  0  0  0  0  0  0  0  0  0
    6.9692   -2.7019   22.5104 N   0  0  0  0  0  0  0  0  0  0  0  0
    6.3668   -3.8869   22.9835 N   0  0  0  0  0  0  0  0  0  0  0  0
    6.6575   -4.4561   24.1907 C   0  0  0  0  0  0  0  0  0  0  0  0
    7.5198   -4.0263   24.9393 O   0  0  0  0  0  0  0  0  0  0  0  0
    5.8304   -5.6815   24.5491 C   0  0  0  0  0  0  0  0  0  0  0  0
    4.7202   -5.4009   25.5904 C   0  0  0  0  0  0  0  0  0  0  0  0
    3.6044   -4.4968   25.0311 C   0  0  0  0  0  0  0  0  0  0  0  0
    2.6946   -5.2301   24.0266 C   0  0  0  0  0  0  0  0  0  0  0  0
    2.0969   -6.5119   24.6365 C   0  0  0  0  0  0  0  0  0  0  0  0
    3.1929   -7.4443   25.1861 C   0  0  0  0  0  0  0  0  0  0  0  0
    4.1134   -6.7016   26.1732 C   0  0  0  0  0  0  0  0  0  0  0  0
    4.9150   -7.3651   26.5276 H   0  0  0  0  0  0  0  0  0  0  0  0
    3.5301   -6.4352   27.0688 H   0  0  0  0  0  0  0  0  0  0  0  0
    2.7409   -8.3176   25.6762 H   0  0  0  0  0  0  0  0  0  0  0  0
    3.7956   -7.8426   24.3560 H   0  0  0  0  0  0  0  0  0  0  0  0
    1.4772   -7.0382   23.8984 H   0  0  0  0  0  0  0  0  0  0  0  0
    1.4214   -6.2291   25.4595 H   0  0  0  0  0  0  0  0  0  0  0  0
    1.8990   -4.5539   23.6926 H   0  0  0  0  0  0  0  0  0  0  0  0
    3.2706   -5.4836   23.1222 H   0  0  0  0  0  0  0  0  0  0  0  0
    4.0494   -3.6047   24.5707 H   0  0  0  0  0  0  0  0  0  0  0  0
    2.9964   -4.1376   25.8755 H   0  0  0  0  0  0  0  0  0  0  0  0
    5.2238   -4.8756   26.4146 H   0  0  0  0  0  0  0  0  0  0  0  0
    6.5606   -6.3280   25.0357 H   0  0  0  0  0  0  0  0  0  0  0  0
    5.4302   -6.2004   23.6683 H   0  0  0  0  0  0  0  0  0  0  0  0
    5.6240   -4.2613   22.4039 H   0  0  0  0  0  0  0  0  0  0  0  0
    7.6130   -2.2391   23.1432 H   0  0  0  0  0  0  0  0  0  0  0  0
    6.6593    0.0182   19.9059 C   0  0  0  0  0  0  0  0  0  0  0  0
    5.4455    0.6701   20.1527 C   0  0  0  0  0  0  0  0  0  0  0  0
    4.8076    1.3201   19.0957 C   0  0  0  0  0  0  0  0  0  0  0  0
    5.4041    1.2973   17.8296 C   0  0  0  0  0  0  0  0  0  0  0  0
    6.5691    0.6853   17.5768 N   0  0  0  0  0  0  0  0  0  0  0  0
    7.1749    0.0722   18.6035 C   0  0  0  0  0  0  0  0  0  0  0  0
    8.1190   -0.4168   18.3627 H   0  0  0  0  0  0  0  0  0  0  0  0
    4.9303    1.7930   16.9818 H   0  0  0  0  0  0  0  0  0  0  0  0
    3.8705    1.8429   19.2363 H   0  0  0  0  0  0  0  0  0  0  0  0
    5.0244    0.6559   21.1602 H   0  0  0  0  0  0  0  0  0  0  0  0
    8.3486   -1.0945   20.6511 H   0  0  0  0  0  0  0  0  0  0  0  0
    8.5421    1.6107   22.9484 H   0  0  0  0  0  0  0  0  0  0  0  0
    9.5847    0.4381   22.0997 H   0  0  0  0  0  0  0  0  0  0  0  0
    8.5656    1.5675   21.1720 H   0  0  0  0  0  0  0  0  0  0  0  0
  1  2  1  0
  2  3  1  0
  3  4  1  0
  4  5  2  0
  4  6  1  0
  6  7  1  0
  7  8  1  0
  8  9  2  0
  8 10  1  0
 10 11  1  0
 11 12  1  0
 12 13  1  0
 13 14  1  0
 14 15  1  0
 15 16  1  0
 16 17  1  0
 16 18  1  0
 15 19  1  0
 15 20  1  0
 14 21  1  0
 14 22  1  0
 13 23  1  0
 13 24  1  0
 12 25  1  0
 12 26  1  0
 11 27  1  0
 10 28  1  0
 10 29  1  0
  7 30  1  0
  6 31  1  0
  3 32  1  0
 32 33  2  0
 33 34  1  0
 34 35  2  0
 35 36  1  0
 36 37  2  0
 37 38  1  0
 35 39  1  0
 34 40  1  0
 33 41  1  0
  3 42  1  0
  1 43  1  0
  1 44  1  0
  1 45  1  0
 16 11  1  0
 37 32  1  0
M  END
>  <cnnaffinity>  (1) 
-5.01585

>  <filename>  (1) 
COC(C(=O)NNC(=O)CC1CCCCC1)c1cccnc1

$$$$
