
     RDKit          3D

 43 44  0  0  0  0  0  0  0  0999 V2000
    5.1260   -3.4675   22.0400 C   0  0  0  0  0  0  0  0  0  0  0  0
    5.6303   -2.2124   21.5705 O   0  0  0  0  0  0  0  0  0  0  0  0
    6.9387   -2.1374   21.2845 C   0  0  0  0  0  0  0  0  0  0  0  0
    7.6831   -3.0916   21.2515 O   0  0  0  0  0  0  0  0  0  0  0  0
    7.4420   -0.6828   20.9941 C   0  0  2  0  0  0  0  0  0  0  0  0
    7.4644    0.0646   22.2329 O   0  0  0  0  0  0  0  0  0  0  0  0
    8.2136    1.1986   22.2556 C   0  0  0  0  0  0  0  0  0  0  0  0
    8.8728    1.5809   21.3163 O   0  0  0  0  0  0  0  0  0  0  0  0
    8.2151    1.9114   23.5635 C   0  0  0  0  0  0  0  0  0  0  0  0
    7.4160    1.7767   24.6315 C   0  0  0  0  0  0  0  0  0  0  0  0
    7.5490    2.7513   25.7932 C   0  0  0  0  0  0  0  0  0  0  0  0
    6.7641    2.5800   26.5353 H   0  0  0  0  0  0  0  0  0  0  0  0
    7.4766    3.7972   25.4602 H   0  0  0  0  0  0  0  0  0  0  0  0
    8.5165    2.6487   26.2997 H   0  0  0  0  0  0  0  0  0  0  0  0
    6.3378    0.7338   24.7174 C   0  0  0  0  0  0  0  0  0  0  0  0
    6.6881   -0.5905   25.0401 C   0  0  0  0  0  0  0  0  0  0  0  0
    5.7144   -1.5070   25.4379 C   0  0  0  0  0  0  0  0  0  0  0  0
    4.3753   -1.1126   25.5085 C   0  0  0  0  0  0  0  0  0  0  0  0
    3.9999    0.1653   25.0816 C   0  0  0  0  0  0  0  0  0  0  0  0
    4.9648    1.0788   24.6276 C   0  0  0  0  0  0  0  0  0  0  0  0
    4.5516    2.4153   24.0129 C   0  0  0  0  0  0  0  0  0  0  0  0
    4.8777    3.4688   24.7910 F   0  0  0  0  0  0  0  0  0  0  0  0
    3.2256    2.5152   23.8145 F   0  0  0  0  0  0  0  0  0  0  0  0
    5.1543    2.6123   22.8195 F   0  0  0  0  0  0  0  0  0  0  0  0
    2.9399    0.3989   25.0250 H   0  0  0  0  0  0  0  0  0  0  0  0
    3.6097   -1.8001   25.8584 H   0  0  0  0  0  0  0  0  0  0  0  0
    5.9924   -2.5339   25.6795 H   0  0  0  0  0  0  0  0  0  0  0  0
    7.7338   -0.8845   24.9965 H   0  0  0  0  0  0  0  0  0  0  0  0
    8.9547    2.7047   23.5628 H   0  0  0  0  0  0  0  0  0  0  0  0
    6.6958    0.0724   19.9063 C   0  0  0  0  0  0  0  0  0  0  0  0
    5.4798    0.7248   20.1388 C   0  0  0  0  0  0  0  0  0  0  0  0
    4.8323    1.3425   19.0665 C   0  0  0  0  0  0  0  0  0  0  0  0
    5.4325    1.3060   17.8053 C   0  0  0  0  0  0  0  0  0  0  0  0
    6.6069    0.7061   17.5646 N   0  0  0  0  0  0  0  0  0  0  0  0
    7.2176    0.1250   18.6051 C   0  0  0  0  0  0  0  0  0  0  0  0
    8.1756   -0.3477   18.3833 H   0  0  0  0  0  0  0  0  0  0  0  0
    4.9563    1.7850   16.9515 H   0  0  0  0  0  0  0  0  0  0  0  0
    3.8925    1.8643   19.2014 H   0  0  0  0  0  0  0  0  0  0  0  0
    5.0490    0.7639   21.1406 H   0  0  0  0  0  0  0  0  0  0  0  0
    8.4741   -0.8492   20.6662 H   0  0  0  0  0  0  0  0  0  0  0  0
    5.1032   -4.1999   21.2290 H   0  0  0  0  0  0  0  0  0  0  0  0
    4.1186   -3.2563   22.3927 H   0  0  0  0  0  0  0  0  0  0  0  0
    5.7420   -3.8495   22.8605 H   0  0  0  0  0  0  0  0  0  0  0  0
  1  2  1  0
  2  3  1  0
  3  4  2  0
  3  5  1  0
  5  6  1  0
  6  7  1  0
  7  8  2  0
  7  9  1  0
  9 10  2  3
 10 11  1  0
 11 12  1  0
 11 13  1  0
 11 14  1  0
 10 15  1  0
 15 16  2  0
 16 17  1  0
 17 18  2  0
 18 19  1  0
 19 20  2  0
 20 21  1  0
 21 22  1  0
 21 23  1  0
 21 24  1  0
 19 25  1  0
 18 26  1  0
 17 27  1  0
 16 28  1  0
  9 29  1  0
  5 30  1  0
 30 31  2  0
 31 32  1  0
 32 33  2  0
 33 34  1  0
 34 35  2  0
 35 36  1  0
 33 37  1  0
 32 38  1  0
 31 39  1  0
  5 40  1  6
  1 41  1  0
  1 42  1  0
  1 43  1  0
 20 15  1  0
 35 30  1  0
M  END
>  <cnnaffinity>  (1) 
-4.84245

>  <filename>  (1) 
COC(=O)[C@H](OC(=O)C=C(C)c1ccccc1C(F)(F)F)c1cccnc1

$$$$
