
     RDKit          3D

 48 51  0  0  0  0  0  0  0  0999 V2000
    5.6467   -4.0502   23.4226 C   0  0  0  0  0  0  0  0  0  0  0  0
    6.7235   -4.5215   22.6511 O   0  0  0  0  0  0  0  0  0  0  0  0
    8.0089   -4.3775   23.2262 C   0  0  0  0  0  0  0  0  0  0  0  0
    8.5861   -5.7554   23.5176 C   0  0  0  0  0  0  0  0  0  0  0  0
    7.9098   -6.3134   24.1703 H   0  0  0  0  0  0  0  0  0  0  0  0
    9.5468   -5.6698   24.0352 H   0  0  0  0  0  0  0  0  0  0  0  0
    8.7158   -6.3296   22.5937 H   0  0  0  0  0  0  0  0  0  0  0  0
    8.8224   -3.5953   22.2035 C   0  0  0  0  0  0  0  0  0  0  0  0
    8.2566   -2.2538   21.9435 C   0  0  0  0  0  0  0  0  0  0  0  0
    7.8820   -1.8780   20.7447 N   0  0  0  0  0  0  0  0  0  0  0  0
    7.3536   -0.6501   20.9576 N   0  0  0  0  0  0  0  0  0  0  0  0
    6.6406   -0.0041   19.9139 C   0  0  0  0  0  0  0  0  0  0  0  0
    5.4219    0.6376   20.1582 C   0  0  0  0  0  0  0  0  0  0  0  0
    4.8027    1.2940   19.0926 C   0  0  0  0  0  0  0  0  0  0  0  0
    5.4156    1.2802   17.8360 C   0  0  0  0  0  0  0  0  0  0  0  0
    6.5747    0.6435   17.5923 N   0  0  0  0  0  0  0  0  0  0  0  0
    7.1652    0.0100   18.6084 C   0  0  0  0  0  0  0  0  0  0  0  0
    8.1102   -0.4799   18.3846 H   0  0  0  0  0  0  0  0  0  0  0  0
    4.9691    1.8021   16.9921 H   0  0  0  0  0  0  0  0  0  0  0  0
    3.8734    1.8363   19.2325 H   0  0  0  0  0  0  0  0  0  0  0  0
    5.0024    0.6552   21.1646 H   0  0  0  0  0  0  0  0  0  0  0  0
    7.4964   -0.3321   22.2914 C   0  0  0  0  0  0  0  0  0  0  0  0
    7.2079    0.9773   22.8498 C   0  0  0  0  0  0  0  0  0  0  0  0
    7.5081    2.1531   22.1714 C   0  0  0  0  0  0  0  0  0  0  0  0
    7.1841    3.4055   22.7198 C   0  0  0  0  0  0  0  0  0  0  0  0
    6.5629    3.4952   23.9478 C   0  0  0  0  0  0  0  0  0  0  0  0
    6.2480    2.3154   24.6705 C   0  0  0  0  0  0  0  0  0  0  0  0
    5.5999    2.3272   25.9402 C   0  0  0  0  0  0  0  0  0  0  0  0
    5.3208    1.1350   26.5553 C   0  0  0  0  0  0  0  0  0  0  0  0
    5.6642   -0.0965   25.9146 C   0  0  0  0  0  0  0  0  0  0  0  0
    5.3443   -1.3984   26.6067 C   0  0  0  0  0  0  0  0  0  0  0  0
    5.8796   -2.2317   26.1385 H   0  0  0  0  0  0  0  0  0  0  0  0
    4.2684   -1.5980   26.5415 H   0  0  0  0  0  0  0  0  0  0  0  0
    5.6152   -1.3487   27.6674 H   0  0  0  0  0  0  0  0  0  0  0  0
    6.2377   -0.1477   24.7402 N   0  0  0  0  0  0  0  0  0  0  0  0
    6.5744    1.0264   24.1192 C   0  0  0  0  0  0  0  0  0  0  0  0
    4.8469    1.0725   27.5284 H   0  0  0  0  0  0  0  0  0  0  0  0
    5.3476    3.2876   26.3897 H   0  0  0  0  0  0  0  0  0  0  0  0
    6.3015    4.4597   24.3758 H   0  0  0  0  0  0  0  0  0  0  0  0
    7.4196    4.2961   22.1505 H   0  0  0  0  0  0  0  0  0  0  0  0
    7.9606    2.1046   21.1843 H   0  0  0  0  0  0  0  0  0  0  0  0
    8.0584   -1.3471   22.9229 N   0  0  0  0  0  0  0  0  0  0  0  0
    8.7713   -4.1175   21.2459 H   0  0  0  0  0  0  0  0  0  0  0  0
    9.8484   -3.4539   22.5489 H   0  0  0  0  0  0  0  0  0  0  0  0
    7.9455   -3.8174   24.1767 H   0  0  0  0  0  0  0  0  0  0  0  0
    4.7529   -4.2848   22.8394 H   0  0  0  0  0  0  0  0  0  0  0  0
    5.7179   -2.9615   23.6087 H   0  0  0  0  0  0  0  0  0  0  0  0
    5.5933   -4.5685   24.3945 H   0  0  0  0  0  0  0  0  0  0  0  0
  1  2  1  0
  2  3  1  0
  3  4  1  0
  4  5  1  0
  4  6  1  0
  4  7  1  0
  3  8  1  0
  8  9  1  0
  9 10  2  0
 10 11  1  0
 11 12  1  0
 12 13  2  0
 13 14  1  0
 14 15  2  0
 15 16  1  0
 16 17  2  0
 17 18  1  0
 15 19  1  0
 14 20  1  0
 13 21  1  0
 11 22  1  0
 22 23  1  0
 23 24  2  0
 24 25  1  0
 25 26  2  0
 26 27  1  0
 27 28  2  0
 28 29  1  0
 29 30  2  0
 30 31  1  0
 31 32  1  0
 31 33  1  0
 31 34  1  0
 30 35  1  0
 35 36  2  0
 29 37  1  0
 28 38  1  0
 26 39  1  0
 25 40  1  0
 24 41  1  0
 22 42  2  0
  8 43  1  0
  8 44  1  0
  3 45  1  0
  1 46  1  0
  1 47  1  0
  1 48  1  0
 42  9  1  0
 17 12  1  0
 36 23  1  0
 36 27  1  0
M  END
>  <cnnaffinity>  (1) 
-6.0288

>  <filename>  (1) 
COC(C)Cc1nc(-c2cccc3ccc(C)nc23)n(-c2cccnc2)n1

$$$$
