
     RDKit          3D

 50 54  0  0  0  0  0  0  0  0999 V2000
   11.7394    2.9841   20.9937 C   0  0  0  0  0  0  0  0  0  0  0  0
   12.2735    1.8198   21.5670 O   0  0  0  0  0  0  0  0  0  0  0  0
   11.6177    1.3570   22.7378 C   0  0  0  0  0  0  0  0  0  0  0  0
   10.1580    0.9923   22.4698 C   0  0  0  0  0  0  0  0  0  0  0  0
    9.6988    0.0374   21.6804 N   0  0  0  0  0  0  0  0  0  0  0  0
    8.3497    0.2027   21.7352 C   0  0  0  0  0  0  0  0  0  0  0  0
    7.3913   -0.6738   20.9674 C   0  0  0  0  0  0  0  0  0  0  0  0
    6.6621   -0.0070   19.7985 C   0  0  0  0  0  0  0  0  0  0  0  0
    5.4593    0.6781   20.0156 C   0  0  0  0  0  0  0  0  0  0  0  0
    4.8380    1.3306   18.9473 C   0  0  0  0  0  0  0  0  0  0  0  0
    5.4430    1.2773   17.6903 C   0  0  0  0  0  0  0  0  0  0  0  0
    6.5840    0.6128   17.4479 N   0  0  0  0  0  0  0  0  0  0  0  0
    7.1673   -0.0066   18.4821 C   0  0  0  0  0  0  0  0  0  0  0  0
    8.1033   -0.5227   18.2578 H   0  0  0  0  0  0  0  0  0  0  0  0
    5.0013    1.7979   16.8419 H   0  0  0  0  0  0  0  0  0  0  0  0
    3.9173    1.8889   19.0811 H   0  0  0  0  0  0  0  0  0  0  0  0
    5.0245    0.7074   21.0161 H   0  0  0  0  0  0  0  0  0  0  0  0
    7.9721   -1.5353   20.6252 H   0  0  0  0  0  0  0  0  0  0  0  0
    6.6576   -1.0472   21.6937 H   0  0  0  0  0  0  0  0  0  0  0  0
    7.9491    1.1726   22.5315 N   0  0  0  0  0  0  0  0  0  0  0  0
    9.1131    1.7158   22.9675 N   0  0  0  0  0  0  0  0  0  0  0  0
    9.1250    2.7891   23.9278 C   0  0  0  0  0  0  0  0  0  0  0  0
    8.6933    2.5113   25.2485 C   0  0  0  0  0  0  0  0  0  0  0  0
    8.7520    3.4837   26.2468 C   0  0  0  0  0  0  0  0  0  0  0  0
    9.2394    4.7491   25.8937 C   0  0  0  0  0  0  0  0  0  0  0  0
    9.4304    5.9314   26.5893 N   0  0  0  0  0  0  0  0  0  0  0  0
    9.8937    6.8595   25.6905 C   0  0  0  0  0  0  0  0  0  0  0  0
   10.1956    8.2583   26.1171 C   0  0  0  0  0  0  0  0  0  0  0  0
   10.1412    8.9316   25.2608 H   0  0  0  0  0  0  0  0  0  0  0  0
   11.1996    8.3253   26.5482 H   0  0  0  0  0  0  0  0  0  0  0  0
    9.4844    8.5991   26.8747 H   0  0  0  0  0  0  0  0  0  0  0  0
   10.0449    6.3762   24.4908 N   0  0  0  0  0  0  0  0  0  0  0  0
    9.6419    5.0529   24.5778 C   0  0  0  0  0  0  0  0  0  0  0  0
    9.5775    4.0647   23.5814 C   0  0  0  0  0  0  0  0  0  0  0  0
    9.8574    4.3273   22.5682 H   0  0  0  0  0  0  0  0  0  0  0  0
    9.1351    6.1441   27.5246 H   0  0  0  0  0  0  0  0  0  0  0  0
    8.4189    3.2552   27.2560 H   0  0  0  0  0  0  0  0  0  0  0  0
    8.3092    1.5207   25.4741 H   0  0  0  0  0  0  0  0  0  0  0  0
   12.4037    0.1748   23.2944 C   0  0  0  0  0  0  0  0  0  0  0  0
   12.9162   -0.8908   22.3704 C   0  0  0  0  0  0  0  0  0  0  0  0
   13.8774    0.0533   23.0429 C   0  0  0  0  0  0  0  0  0  0  0  0
   14.3007    0.8221   22.4056 H   0  0  0  0  0  0  0  0  0  0  0  0
   14.5488   -0.2641   23.8362 H   0  0  0  0  0  0  0  0  0  0  0  0
   12.7012   -0.7283   21.3198 H   0  0  0  0  0  0  0  0  0  0  0  0
   12.8514   -1.9382   22.6433 H   0  0  0  0  0  0  0  0  0  0  0  0
   12.0468   -0.1419   24.2710 H   0  0  0  0  0  0  0  0  0  0  0  0
   11.6317    2.1614   23.4878 H   0  0  0  0  0  0  0  0  0  0  0  0
   10.6974    2.8129   20.6903 H   0  0  0  0  0  0  0  0  0  0  0  0
   12.3313    3.2208   20.1099 H   0  0  0  0  0  0  0  0  0  0  0  0
   11.7907    3.8409   21.6788 H   0  0  0  0  0  0  0  0  0  0  0  0
  1  2  1  0
  2  3  1  0
  3  4  1  0
  4  5  2  0
  5  6  1  0
  6  7  1  0
  7  8  1  0
  8  9  2  0
  9 10  1  0
 10 11  2  0
 11 12  1  0
 12 13  2  0
 13 14  1  0
 11 15  1  0
 10 16  1  0
  9 17  1  0
  7 18  1  0
  7 19  1  0
  6 20  2  0
 20 21  1  0
 21 22  1  0
 22 23  2  0
 23 24  1  0
 24 25  2  0
 25 26  1  0
 26 27  1  0
 27 28  1  0
 28 29  1  0
 28 30  1  0
 28 31  1  0
 27 32  2  0
 32 33  1  0
 33 34  2  0
 34 35  1  0
 26 36  1  0
 24 37  1  0
 23 38  1  0
  3 39  1  0
 39 40  1  0
 40 41  1  0
 41 42  1  0
 41 43  1  0
 40 44  1  0
 40 45  1  0
 39 46  1  0
  3 47  1  0
  1 48  1  0
  1 49  1  0
  1 50  1  0
 21  4  1  0
 34 22  1  0
 41 39  1  0
 13  8  1  0
 33 25  1  0
M  END
>  <cnnaffinity>  (1) 
-6.33311

>  <filename>  (1) 
COC(c1nc(Cc2cccnc2)nn1-c1ccc2[nH]c(C)nc2c1)C1CC1

$$$$
