
     RDKit          3D

 48 52  0  0  0  0  0  0  0  0999 V2000
    9.5028    6.7171   27.1561 C   0  0  0  0  0  0  0  0  0  0  0  0
    8.9222    5.4415   27.3411 O   0  0  0  0  0  0  0  0  0  0  0  0
    8.9079    4.5628   26.2981 C   0  0  0  0  0  0  0  0  0  0  0  0
    9.3900    4.8396   25.0114 C   0  0  0  0  0  0  0  0  0  0  0  0
    9.3482    3.8528   24.0230 C   0  0  0  0  0  0  0  0  0  0  0  0
    8.8050    2.5914   24.3028 C   0  0  0  0  0  0  0  0  0  0  0  0
    8.8037    1.5810   23.2955 N   0  0  0  0  0  0  0  0  0  0  0  0
    7.6943    0.8723   22.9413 N   0  0  0  0  0  0  0  0  0  0  0  0
    8.0861    0.2645   21.8366 C   0  0  0  0  0  0  0  0  0  0  0  0
    7.2490   -0.6779   21.0265 C   0  0  0  0  0  0  0  0  0  0  0  0
    6.5644   -0.0268   19.8322 C   0  0  0  0  0  0  0  0  0  0  0  0
    5.3916    0.7158   20.0197 C   0  0  0  0  0  0  0  0  0  0  0  0
    4.8259    1.3792   18.9301 C   0  0  0  0  0  0  0  0  0  0  0  0
    5.4530    1.2779   17.6852 C   0  0  0  0  0  0  0  0  0  0  0  0
    6.5689    0.5625   17.4769 N   0  0  0  0  0  0  0  0  0  0  0  0
    7.1035   -0.0632   18.5332 C   0  0  0  0  0  0  0  0  0  0  0  0
    8.0281   -0.6123   18.3441 H   0  0  0  0  0  0  0  0  0  0  0  0
    5.0436    1.7888   16.8153 H   0  0  0  0  0  0  0  0  0  0  0  0
    3.9343    1.9874   19.0347 H   0  0  0  0  0  0  0  0  0  0  0  0
    4.9438    0.7853   21.0135 H   0  0  0  0  0  0  0  0  0  0  0  0
    6.5142   -1.1040   21.7121 H   0  0  0  0  0  0  0  0  0  0  0  0
    7.9102   -1.4924   20.7058 H   0  0  0  0  0  0  0  0  0  0  0  0
    9.3618    0.5067   21.4671 N   0  0  0  0  0  0  0  0  0  0  0  0
    9.8176    1.2817   22.4410 C   0  0  0  0  0  0  0  0  0  0  0  0
   11.2507    1.6137   22.6947 C   0  0  0  0  0  0  0  0  0  0  0  0
   11.6859    1.6331   24.1480 C   0  0  0  0  0  0  0  0  0  0  0  0
   12.6787    0.6302   24.6650 C   0  0  0  0  0  0  0  0  0  0  0  0
   11.2263    0.5077   25.0316 C   0  0  0  0  0  0  0  0  0  0  0  0
   10.9427    0.7406   26.0568 H   0  0  0  0  0  0  0  0  0  0  0  0
   10.6098   -0.2499   24.5520 H   0  0  0  0  0  0  0  0  0  0  0  0
   13.3372    0.9092   25.4759 H   0  0  0  0  0  0  0  0  0  0  0  0
   13.1429   -0.0627   23.9640 H   0  0  0  0  0  0  0  0  0  0  0  0
   11.6810    2.6380   24.5729 H   0  0  0  0  0  0  0  0  0  0  0  0
   12.1997    1.0507   21.6732 C   0  0  0  0  0  0  0  0  0  0  0  0
   11.9546    2.5206   21.7082 C   0  0  0  0  0  0  0  0  0  0  0  0
   12.7393    3.1725   22.0801 H   0  0  0  0  0  0  0  0  0  0  0  0
   11.3413    2.9352   20.9105 H   0  0  0  0  0  0  0  0  0  0  0  0
   11.7008    0.4882   20.8948 H   0  0  0  0  0  0  0  0  0  0  0  0
   13.1548    0.6159   21.9667 H   0  0  0  0  0  0  0  0  0  0  0  0
    8.2849    2.3263   25.5781 C   0  0  0  0  0  0  0  0  0  0  0  0
    8.3547    3.3003   26.5714 C   0  0  0  0  0  0  0  0  0  0  0  0
    7.9930    3.1127   27.5785 H   0  0  0  0  0  0  0  0  0  0  0  0
    7.8367    1.3551   25.7782 H   0  0  0  0  0  0  0  0  0  0  0  0
    9.7522    4.0708   23.0347 H   0  0  0  0  0  0  0  0  0  0  0  0
    9.7830    5.8225   24.7802 H   0  0  0  0  0  0  0  0  0  0  0  0
    9.4541    7.2234   28.1214 H   0  0  0  0  0  0  0  0  0  0  0  0
   10.5535    6.6444   26.8425 H   0  0  0  0  0  0  0  0  0  0  0  0
    8.9466    7.3006   26.4106 H   0  0  0  0  0  0  0  0  0  0  0  0
  1  2  1  0
  2  3  1  0
  3  4  2  0
  4  5  1  0
  5  6  2  0
  6  7  1  0
  7  8  1  0
  8  9  2  0
  9 10  1  0
 10 11  1  0
 11 12  2  0
 12 13  1  0
 13 14  2  0
 14 15  1  0
 15 16  2  0
 16 17  1  0
 14 18  1  0
 13 19  1  0
 12 20  1  0
 10 21  1  0
 10 22  1  0
  9 23  1  0
 23 24  2  0
 24 25  1  0
 25 26  1  0
 26 27  1  0
 27 28  1  0
 28 29  1  0
 28 30  1  0
 27 31  1  0
 27 32  1  0
 26 33  1  0
 25 34  1  0
 34 35  1  0
 35 36  1  0
 35 37  1  0
 34 38  1  0
 34 39  1  0
  6 40  1  0
 40 41  2  0
 41 42  1  0
 40 43  1  0
  5 44  1  0
  4 45  1  0
  1 46  1  0
  1 47  1  0
  1 48  1  0
 41  3  1  0
 24  7  1  0
 35 25  1  0
 16 11  1  0
 28 26  1  0
M  END
>  <cnnaffinity>  (1) 
-6.1819

>  <filename>  (1) 
COc1ccc(-n2nc(Cc3cccnc3)nc2C2(C3CC3)CC2)cc1

$$$$
