
     RDKit          3D

 50 54  0  0  0  0  0  0  0  0999 V2000
   10.9743    6.0475   24.0969 C   0  0  0  0  0  0  0  0  0  0  0  0
    9.6730    6.5448   23.8688 O   0  0  0  0  0  0  0  0  0  0  0  0
    8.6293    5.6050   24.0256 C   0  0  0  0  0  0  0  0  0  0  0  0
    7.3135    6.0828   23.3862 C   0  0  0  0  0  0  0  0  0  0  0  0
    7.2544    4.7942   22.5265 C   0  0  0  0  0  0  0  0  0  0  0  0
    8.6463    4.3869   23.0615 C   0  0  0  0  0  0  0  0  0  0  0  0
    8.7415    2.9729   23.6476 C   0  0  0  0  0  0  0  0  0  0  0  0
    8.6932    1.8905   22.6076 C   0  0  0  0  0  0  0  0  0  0  0  0
    7.6806    1.0807   22.3693 N   0  0  0  0  0  0  0  0  0  0  0  0
    8.1177    0.3299   21.3190 C   0  0  0  0  0  0  0  0  0  0  0  0
    7.2700   -0.7263   20.6577 C   0  0  0  0  0  0  0  0  0  0  0  0
    6.4379   -0.1713   19.5086 C   0  0  0  0  0  0  0  0  0  0  0  0
    5.2753    0.5677   19.7688 C   0  0  0  0  0  0  0  0  0  0  0  0
    4.6845    1.2850   18.7255 C   0  0  0  0  0  0  0  0  0  0  0  0
    5.2761    1.2321   17.4594 C   0  0  0  0  0  0  0  0  0  0  0  0
    6.3302    0.4549   17.1700 N   0  0  0  0  0  0  0  0  0  0  0  0
    6.8703   -0.2429   18.1756 C   0  0  0  0  0  0  0  0  0  0  0  0
    7.7059   -0.8926   17.9138 H   0  0  0  0  0  0  0  0  0  0  0  0
    4.8928    1.8301   16.6345 H   0  0  0  0  0  0  0  0  0  0  0  0
    3.8148    1.9125   18.8866 H   0  0  0  0  0  0  0  0  0  0  0  0
    4.8651    0.5941   20.7808 H   0  0  0  0  0  0  0  0  0  0  0  0
    6.6086   -1.1235   21.4312 H   0  0  0  0  0  0  0  0  0  0  0  0
    7.9173   -1.5439   20.3163 H   0  0  0  0  0  0  0  0  0  0  0  0
    9.3363    0.6128   20.9097 N   0  0  0  0  0  0  0  0  0  0  0  0
    9.7195    1.6162   21.7475 N   0  0  0  0  0  0  0  0  0  0  0  0
   11.0897    2.0219   21.9184 C   0  0  0  0  0  0  0  0  0  0  0  0
   11.7304    3.0273   21.1898 C   0  0  0  0  0  0  0  0  0  0  0  0
   12.8836    3.6683   21.7047 C   0  0  0  0  0  0  0  0  0  0  0  0
   13.5142    3.1913   22.8521 C   0  0  0  0  0  0  0  0  0  0  0  0
   12.9962    2.0317   23.4745 C   0  0  0  0  0  0  0  0  0  0  0  0
   11.8075    1.4674   22.9888 C   0  0  0  0  0  0  0  0  0  0  0  0
   11.5563    0.3795   23.7939 N   0  0  0  0  0  0  0  0  0  0  0  0
   12.5601    0.3453   24.7153 C   0  0  0  0  0  0  0  0  0  0  0  0
   13.4308    1.2973   24.5640 N   0  0  0  0  0  0  0  0  0  0  0  0
   12.5655   -0.3945   25.5067 H   0  0  0  0  0  0  0  0  0  0  0  0
   10.9108   -0.3605   23.5643 H   0  0  0  0  0  0  0  0  0  0  0  0
   14.4021    3.6713   23.2386 H   0  0  0  0  0  0  0  0  0  0  0  0
   13.2952    4.5392   21.1896 H   0  0  0  0  0  0  0  0  0  0  0  0
   11.3658    3.3079   20.2102 H   0  0  0  0  0  0  0  0  0  0  0  0
    9.6500    2.8609   24.2506 H   0  0  0  0  0  0  0  0  0  0  0  0
    7.8983    2.7975   24.3223 H   0  0  0  0  0  0  0  0  0  0  0  0
    9.4321    4.5500   22.3189 H   0  0  0  0  0  0  0  0  0  0  0  0
    6.4694    4.0866   22.8207 H   0  0  0  0  0  0  0  0  0  0  0  0
    7.1826    4.9366   21.4434 H   0  0  0  0  0  0  0  0  0  0  0  0
    6.4746    6.2367   24.0691 H   0  0  0  0  0  0  0  0  0  0  0  0
    7.4570    6.9992   22.8081 H   0  0  0  0  0  0  0  0  0  0  0  0
    8.5215    5.3097   25.0839 H   0  0  0  0  0  0  0  0  0  0  0  0
   11.1742    5.1125   23.5488 H   0  0  0  0  0  0  0  0  0  0  0  0
   11.1797    5.8801   25.1663 H   0  0  0  0  0  0  0  0  0  0  0  0
   11.6638    6.8090   23.7234 H   0  0  0  0  0  0  0  0  0  0  0  0
  1  2  1  0
  2  3  1  0
  3  4  1  0
  4  5  1  0
  5  6  1  0
  6  7  1  0
  7  8  1  0
  8  9  2  0
  9 10  1  0
 10 11  1  0
 11 12  1  0
 12 13  2  0
 13 14  1  0
 14 15  2  0
 15 16  1  0
 16 17  2  0
 17 18  1  0
 15 19  1  0
 14 20  1  0
 13 21  1  0
 11 22  1  0
 11 23  1  0
 10 24  2  0
 24 25  1  0
 25 26  1  0
 26 27  2  0
 27 28  1  0
 28 29  2  0
 29 30  1  0
 30 31  2  0
 31 32  1  0
 32 33  1  0
 33 34  2  0
 33 35  1  0
 32 36  1  0
 29 37  1  0
 28 38  1  0
 27 39  1  0
  7 40  1  0
  7 41  1  0
  6 42  1  0
  5 43  1  0
  5 44  1  0
  4 45  1  0
  4 46  1  0
  3 47  1  0
  1 48  1  0
  1 49  1  0
  1 50  1  0
  6  3  1  0
 25  8  1  0
 31 26  1  0
 17 12  1  0
 34 30  1  0
M  END
>  <cnnaffinity>  (1) 
-6.13911

>  <filename>  (1) 
COC1CCC1Cc1nc(Cc2cccnc2)nn1-c1cccc2nc[nH]c12

$$$$
