
     RDKit          3D

 53 57  0  0  0  0  0  0  0  0999 V2000
    7.5814    4.6498   21.8800 C   0  0  0  0  0  0  0  0  0  0  0  0
    7.6827    4.7787   23.2821 O   0  0  0  0  0  0  0  0  0  0  0  0
    6.8324    3.9246   24.0423 C   0  0  0  0  0  0  0  0  0  0  0  0
    6.4184    4.6508   25.3398 C   0  0  0  0  0  0  0  0  0  0  0  0
    7.3544    4.3077   26.5101 C   0  0  0  0  0  0  0  0  0  0  0  0
    7.2273    2.8118   26.8632 C   0  0  0  0  0  0  0  0  0  0  0  0
    7.1477    1.8958   25.6124 C   0  0  0  0  0  0  0  0  0  0  0  0
    7.6328    2.6208   24.3333 C   0  0  0  0  0  0  0  0  0  0  0  0
    7.6321    1.7391   23.1231 C   0  0  0  0  0  0  0  0  0  0  0  0
    6.5512    1.1374   22.6503 N   0  0  0  0  0  0  0  0  0  0  0  0
    7.0298    0.3599   21.6434 C   0  0  0  0  0  0  0  0  0  0  0  0
    6.1874   -0.5414   20.7815 C   0  0  0  0  0  0  0  0  0  0  0  0
    5.8126    0.1076   19.4553 C   0  0  0  0  0  0  0  0  0  0  0  0
    4.7933    1.0676   19.4416 C   0  0  0  0  0  0  0  0  0  0  0  0
    4.5862    1.8177   18.2860 C   0  0  0  0  0  0  0  0  0  0  0  0
    5.4018    1.5736   17.1786 C   0  0  0  0  0  0  0  0  0  0  0  0
    6.3306    0.6059   17.1376 N   0  0  0  0  0  0  0  0  0  0  0  0
    6.5096   -0.1139   18.2539 C   0  0  0  0  0  0  0  0  0  0  0  0
    7.2616   -0.9023   18.1952 H   0  0  0  0  0  0  0  0  0  0  0  0
    5.2922    2.1719   16.2783 H   0  0  0  0  0  0  0  0  0  0  0  0
    3.8361    2.5999   18.2426 H   0  0  0  0  0  0  0  0  0  0  0  0
    4.1895    1.2263   20.3375 H   0  0  0  0  0  0  0  0  0  0  0  0
    5.2849   -0.7910   21.3442 H   0  0  0  0  0  0  0  0  0  0  0  0
    6.7427   -1.4737   20.6329 H   0  0  0  0  0  0  0  0  0  0  0  0
    8.3292    0.4471   21.4525 N   0  0  0  0  0  0  0  0  0  0  0  0
    8.7191    1.3639   22.3793 N   0  0  0  0  0  0  0  0  0  0  0  0
   10.1057    1.6703   22.5261 C   0  0  0  0  0  0  0  0  0  0  0  0
   10.5413    3.0152   22.7220 C   0  0  0  0  0  0  0  0  0  0  0  0
   11.8882    3.3200   22.8619 C   0  0  0  0  0  0  0  0  0  0  0  0
   12.7929    2.2379   22.8213 C   0  0  0  0  0  0  0  0  0  0  0  0
   14.1437    2.1840   22.9189 N   0  0  0  0  0  0  0  0  0  0  0  0
   14.6297    0.9235   22.8494 N   0  0  0  0  0  0  0  0  0  0  0  0
   13.5845    0.1413   22.6901 C   0  0  0  0  0  0  0  0  0  0  0  0
   12.3739    0.8990   22.6529 C   0  0  0  0  0  0  0  0  0  0  0  0
   11.0015    0.6146   22.4749 C   0  0  0  0  0  0  0  0  0  0  0  0
   10.6216   -0.3895   22.3027 H   0  0  0  0  0  0  0  0  0  0  0  0
   13.7085   -0.9344   22.6093 H   0  0  0  0  0  0  0  0  0  0  0  0
   14.7721    2.9617   23.0758 H   0  0  0  0  0  0  0  0  0  0  0  0
   12.2381    4.3335   23.0272 H   0  0  0  0  0  0  0  0  0  0  0  0
    9.8043    3.8127   22.7608 H   0  0  0  0  0  0  0  0  0  0  0  0
    8.6602    2.9392   24.5275 H   0  0  0  0  0  0  0  0  0  0  0  0
    6.1150    1.5661   25.4500 H   0  0  0  0  0  0  0  0  0  0  0  0
    7.7357    0.9834   25.7672 H   0  0  0  0  0  0  0  0  0  0  0  0
    8.0605    2.5218   27.5126 H   0  0  0  0  0  0  0  0  0  0  0  0
    6.3164    2.6647   27.4570 H   0  0  0  0  0  0  0  0  0  0  0  0
    8.3845    4.5473   26.2090 H   0  0  0  0  0  0  0  0  0  0  0  0
    7.1438    4.9240   27.3894 H   0  0  0  0  0  0  0  0  0  0  0  0
    5.3951    4.3424   25.6034 H   0  0  0  0  0  0  0  0  0  0  0  0
    6.3786    5.7263   25.1419 H   0  0  0  0  0  0  0  0  0  0  0  0
    5.9192    3.7039   23.4640 H   0  0  0  0  0  0  0  0  0  0  0  0
    6.5646    4.8761   21.5304 H   0  0  0  0  0  0  0  0  0  0  0  0
    7.8599    3.6442   21.5354 H   0  0  0  0  0  0  0  0  0  0  0  0
    8.2775    5.3724   21.4429 H   0  0  0  0  0  0  0  0  0  0  0  0
  1  2  1  0
  2  3  1  0
  3  4  1  0
  4  5  1  0
  5  6  1  0
  6  7  1  0
  7  8  1  0
  8  9  1  0
  9 10  2  0
 10 11  1  0
 11 12  1  0
 12 13  1  0
 13 14  2  0
 14 15  1  0
 15 16  2  0
 16 17  1  0
 17 18  2  0
 18 19  1  0
 16 20  1  0
 15 21  1  0
 14 22  1  0
 12 23  1  0
 12 24  1  0
 11 25  2  0
 25 26  1  0
 26 27  1  0
 27 28  2  0
 28 29  1  0
 29 30  2  0
 30 31  1  0
 31 32  1  0
 32 33  2  0
 33 34  1  0
 34 35  2  0
 35 36  1  0
 33 37  1  0
 31 38  1  0
 29 39  1  0
 28 40  1  0
  8 41  1  0
  7 42  1  0
  7 43  1  0
  6 44  1  0
  6 45  1  0
  5 46  1  0
  5 47  1  0
  4 48  1  0
  4 49  1  0
  3 50  1  0
  1 51  1  0
  1 52  1  0
  1 53  1  0
  8  3  1  0
 26  9  1  0
 35 27  1  0
 18 13  1  0
 34 30  1  0
M  END
>  <cnnaffinity>  (1) 
-6.41173

>  <filename>  (1) 
COC1CCCCC1c1nc(Cc2cccnc2)nn1-c1ccc2[nH]ncc2c1

$$$$
