
     RDKit          3D

 44 47  0  0  0  0  0  0  0  0999 V2000
    1.7937   -2.8718   26.7674 C   0  0  0  0  0  0  0  0  0  0  0  0
    2.9252   -2.3974   27.4582 O   0  0  0  0  0  0  0  0  0  0  0  0
    4.1030   -2.3142   26.7904 C   0  0  0  0  0  0  0  0  0  0  0  0
    5.1664   -1.8360   27.5790 C   0  0  0  0  0  0  0  0  0  0  0  0
    6.4404   -1.6888   27.0562 C   0  0  0  0  0  0  0  0  0  0  0  0
    6.6306   -2.0432   25.7164 C   0  0  0  0  0  0  0  0  0  0  0  0
    5.5955   -2.5190   24.9307 C   0  0  0  0  0  0  0  0  0  0  0  0
    4.3048   -2.6591   25.4551 C   0  0  0  0  0  0  0  0  0  0  0  0
    3.5078   -3.0247   24.8157 H   0  0  0  0  0  0  0  0  0  0  0  0
    6.0274   -2.8651   23.5586 C   0  0  0  0  0  0  0  0  0  0  0  0
    5.3511   -3.3898   22.6991 O   0  0  0  0  0  0  0  0  0  0  0  0
    7.3442   -2.5208   23.3773 N   0  0  0  0  0  0  0  0  0  0  0  0
    8.1507   -3.0263   22.2666 C   0  0  0  0  0  0  0  0  0  0  0  0
    9.1245   -1.9806   21.7837 C   0  0  0  0  0  0  0  0  0  0  0  0
   10.5010   -2.1274   21.9914 C   0  0  0  0  0  0  0  0  0  0  0  0
   11.4006   -1.0968   21.6960 C   0  0  0  0  0  0  0  0  0  0  0  0
   10.9058    0.1036   21.1827 C   0  0  0  0  0  0  0  0  0  0  0  0
    9.5466    0.2427   20.8813 C   0  0  0  0  0  0  0  0  0  0  0  0
    8.6637   -0.8042   21.1601 C   0  0  0  0  0  0  0  0  0  0  0  0
    7.3075   -0.7238   20.9158 O   0  0  0  0  0  0  0  0  0  0  0  0
    6.7405   -0.0184   19.8843 C   0  0  0  0  0  0  0  0  0  0  0  0
    5.5249    0.6147   20.1632 C   0  0  0  0  0  0  0  0  0  0  0  0
    4.8727    1.2771   19.1223 C   0  0  0  0  0  0  0  0  0  0  0  0
    5.4425    1.2779   17.8447 C   0  0  0  0  0  0  0  0  0  0  0  0
    6.5988    0.6550   17.5694 N   0  0  0  0  0  0  0  0  0  0  0  0
    7.2348    0.0230   18.5674 C   0  0  0  0  0  0  0  0  0  0  0  0
    8.1729   -0.4716   18.3110 H   0  0  0  0  0  0  0  0  0  0  0  0
    4.9518    1.7890   17.0171 H   0  0  0  0  0  0  0  0  0  0  0  0
    3.9359    1.7913   19.2919 H   0  0  0  0  0  0  0  0  0  0  0  0
    5.1313    0.5765   21.1779 H   0  0  0  0  0  0  0  0  0  0  0  0
    9.1719    1.1426   20.4098 H   0  0  0  0  0  0  0  0  0  0  0  0
   11.5681    0.9386   20.9714 H   0  0  0  0  0  0  0  0  0  0  0  0
   12.4640   -1.2568   21.8531 H   0  0  0  0  0  0  0  0  0  0  0  0
   10.8718   -3.0591   22.4185 H   0  0  0  0  0  0  0  0  0  0  0  0
    8.6840   -3.9373   22.5771 H   0  0  0  0  0  0  0  0  0  0  0  0
    7.4594   -3.3112   21.4636 H   0  0  0  0  0  0  0  0  0  0  0  0
    8.1072   -1.9706   24.7670 S   0  0  0  0  0  0  0  0  0  0  0  0
    8.5325   -0.5925   24.6130 O   0  0  0  0  0  0  0  0  0  0  0  0
    9.0520   -2.9901   25.1830 O   0  0  0  0  0  0  0  0  0  0  0  0
    7.2293   -1.3025   27.6948 H   0  0  0  0  0  0  0  0  0  0  0  0
    4.9249   -1.5999   28.6072 H   0  0  0  0  0  0  0  0  0  0  0  0
    0.9772   -2.8545   27.4873 H   0  0  0  0  0  0  0  0  0  0  0  0
    1.9416   -3.8986   26.4079 H   0  0  0  0  0  0  0  0  0  0  0  0
    1.5439   -2.2258   25.9158 H   0  0  0  0  0  0  0  0  0  0  0  0
  1  2  1  0
  2  3  1  0
  3  4  2  0
  4  5  1  0
  5  6  2  0
  6  7  1  0
  7  8  2  0
  8  9  1  0
  7 10  1  0
 10 11  2  0
 10 12  1  0
 12 13  1  0
 13 14  1  0
 14 15  2  0
 15 16  1  0
 16 17  2  0
 17 18  1  0
 18 19  2  0
 19 20  1  0
 20 21  1  0
 21 22  2  0
 22 23  1  0
 23 24  2  0
 24 25  1  0
 25 26  2  0
 26 27  1  0
 24 28  1  0
 23 29  1  0
 22 30  1  0
 18 31  1  0
 17 32  1  0
 16 33  1  0
 15 34  1  0
 13 35  1  0
 13 36  1  0
 12 37  1  0
 37 38  2  0
 37 39  2  0
  5 40  1  0
  4 41  1  0
  1 42  1  0
  1 43  1  0
  1 44  1  0
  8  3  1  0
 19 14  1  0
 26 21  1  0
 37  6  1  0
M  END
>  <cnnaffinity>  (1) 
-5.84825

>  <filename>  (1) 
COc1ccc2c(c1)C(=O)N(Cc1ccccc1Oc1cccnc1)S2(=O)=O

$$$$
