
     RDKit          3D

 36 37  0  0  0  0  0  0  0  0999 V2000
    5.1163   -5.0898   26.2190 C   0  0  0  0  0  0  0  0  0  0  0  0
    5.8162   -4.6600   25.0688 O   0  0  0  0  0  0  0  0  0  0  0  0
    7.1642   -4.8442   25.0122 C   0  0  0  0  0  0  0  0  0  0  0  0
    7.8928   -5.6945   25.8503 C   0  0  0  0  0  0  0  0  0  0  0  0
    9.2789   -5.8038   25.6738 C   0  0  0  0  0  0  0  0  0  0  0  0
    9.9374   -5.0564   24.7070 C   0  0  0  0  0  0  0  0  0  0  0  0
    9.1928   -4.2218   23.8558 C   0  0  0  0  0  0  0  0  0  0  0  0
    9.9196   -3.5142   22.9506 O   0  0  0  0  0  0  0  0  0  0  0  0
    9.2785   -2.7923   21.9118 C   0  0  0  0  0  0  0  0  0  0  0  0
    9.1624   -1.3249   22.3233 C   0  0  0  0  0  0  0  0  0  0  0  0
    8.7154   -0.5289   21.1199 C   0  0  0  0  0  0  0  0  0  0  0  0
    9.4867    0.0328   20.3713 O   0  0  0  0  0  0  0  0  0  0  0  0
    7.3606   -0.5962   20.8726 N   0  0  0  0  0  0  0  0  0  0  0  0
    6.6634    0.0417   19.8165 C   0  0  0  0  0  0  0  0  0  0  0  0
    5.4322    0.6483   20.0950 C   0  0  0  0  0  0  0  0  0  0  0  0
    4.7734    1.3140   19.0567 C   0  0  0  0  0  0  0  0  0  0  0  0
    5.3481    1.3236   17.7800 C   0  0  0  0  0  0  0  0  0  0  0  0
    6.5047    0.7069   17.4864 N   0  0  0  0  0  0  0  0  0  0  0  0
    7.1433    0.0870   18.4879 C   0  0  0  0  0  0  0  0  0  0  0  0
    8.0790   -0.4041   18.2429 H   0  0  0  0  0  0  0  0  0  0  0  0
    4.8664    1.8538   16.9625 H   0  0  0  0  0  0  0  0  0  0  0  0
    3.8375    1.8360   19.2319 H   0  0  0  0  0  0  0  0  0  0  0  0
    5.0218    0.6169   21.1065 H   0  0  0  0  0  0  0  0  0  0  0  0
    6.7840   -0.9240   21.6237 H   0  0  0  0  0  0  0  0  0  0  0  0
    8.4676   -1.2252   23.1695 H   0  0  0  0  0  0  0  0  0  0  0  0
   10.1528   -0.9792   22.6348 H   0  0  0  0  0  0  0  0  0  0  0  0
    8.3004   -3.2250   21.6593 H   0  0  0  0  0  0  0  0  0  0  0  0
    9.9055   -2.8996   21.0195 H   0  0  0  0  0  0  0  0  0  0  0  0
    7.8074   -4.1346   23.9895 C   0  0  0  0  0  0  0  0  0  0  0  0
    7.1997   -3.5397   23.3232 H   0  0  0  0  0  0  0  0  0  0  0  0
   11.0132   -5.0892   24.5679 H   0  0  0  0  0  0  0  0  0  0  0  0
    9.8376   -6.4928   26.3022 H   0  0  0  0  0  0  0  0  0  0  0  0
    7.3880   -6.2618   26.6203 H   0  0  0  0  0  0  0  0  0  0  0  0
    4.0987   -4.7043   26.1419 H   0  0  0  0  0  0  0  0  0  0  0  0
    5.5783   -4.6948   27.1319 H   0  0  0  0  0  0  0  0  0  0  0  0
    5.0732   -6.1842   26.2762 H   0  0  0  0  0  0  0  0  0  0  0  0
  1  2  1  0
  2  3  1  0
  3  4  2  0
  4  5  1  0
  5  6  2  0
  6  7  1  0
  7  8  1  0
  8  9  1  0
  9 10  1  0
 10 11  1  0
 11 12  2  0
 11 13  1  0
 13 14  1  0
 14 15  2  0
 15 16  1  0
 16 17  2  0
 17 18  1  0
 18 19  2  0
 19 20  1  0
 17 21  1  0
 16 22  1  0
 15 23  1  0
 13 24  1  0
 10 25  1  0
 10 26  1  0
  9 27  1  0
  9 28  1  0
  7 29  2  0
 29 30  1  0
  6 31  1  0
  5 32  1  0
  4 33  1  0
  1 34  1  0
  1 35  1  0
  1 36  1  0
 29  3  1  0
 19 14  1  0
M  END
>  <cnnaffinity>  (1) 
-5.17923

>  <filename>  (1) 
COc1cccc(OCCC(=O)Nc2cccnc2)c1

$$$$
