
     RDKit          3D

 40 42  0  0  0  0  0  0  0  0999 V2000
    5.6579   -1.6868   21.6951 H   0  0  0  0  0  0  0  0  0  0  0  0
    6.7198   -1.5284   21.7957 C   0  0  0  0  0  0  0  0  0  0  0  0
    7.3878   -0.7059   20.9592 C   0  0  0  0  0  0  0  0  0  0  0  0
    6.7053    0.0501   19.9087 C   0  0  0  0  0  0  0  0  0  0  0  0
    7.2038    0.0861   18.5952 C   0  0  0  0  0  0  0  0  0  0  0  0
    8.1339   -0.4233   18.3410 H   0  0  0  0  0  0  0  0  0  0  0  0
    6.5724    0.6750   17.5733 N   0  0  0  0  0  0  0  0  0  0  0  0
    5.4087    1.2887   17.8389 C   0  0  0  0  0  0  0  0  0  0  0  0
    4.9274    1.7817   16.9969 H   0  0  0  0  0  0  0  0  0  0  0  0
    4.8197    1.3132   19.1085 C   0  0  0  0  0  0  0  0  0  0  0  0
    3.8796    1.8318   19.2550 H   0  0  0  0  0  0  0  0  0  0  0  0
    5.4669    0.6675   20.1600 C   0  0  0  0  0  0  0  0  0  0  0  0
    5.0325    0.6331   21.1627 H   0  0  0  0  0  0  0  0  0  0  0  0
    8.7648   -0.5792   21.0924 N   0  0  0  0  0  0  0  0  0  0  0  0
    9.3245    0.0855   20.5872 H   0  0  0  0  0  0  0  0  0  0  0  0
    9.4885   -1.1891   22.0623 C   0  0  0  0  0  0  0  0  0  0  0  0
   11.1209   -0.9359   22.2104 S   0  0  0  0  0  0  0  0  0  0  0  0
    8.8340   -2.0341   22.8679 N   0  0  0  0  0  0  0  0  0  0  0  0
    9.4302   -2.3978   23.5912 H   0  0  0  0  0  0  0  0  0  0  0  0
    7.3835   -2.1976   22.9397 C   0  0  1  0  0  0  0  0  0  0  0  0
    7.1911   -3.2836   22.8724 H   0  0  0  0  0  0  0  0  0  0  0  0
    6.8028   -1.7622   24.2964 C   0  0  0  0  0  0  0  0  0  0  0  0
    6.0897   -2.6713   25.0716 C   0  0  0  0  0  0  0  0  0  0  0  0
    5.9815   -3.6929   24.7081 H   0  0  0  0  0  0  0  0  0  0  0  0
    5.5026   -2.3124   26.2863 C   0  0  0  0  0  0  0  0  0  0  0  0
    4.9569   -3.0438   26.8692 H   0  0  0  0  0  0  0  0  0  0  0  0
    5.6323   -0.9952   26.7344 C   0  0  0  0  0  0  0  0  0  0  0  0
    5.1101   -0.5252   27.8979 O   0  0  0  0  0  0  0  0  0  0  0  0
    4.3816   -1.3834   28.7582 C   0  0  0  0  0  0  0  0  0  0  0  0
    3.4768   -1.7854   28.2789 H   0  0  0  0  0  0  0  0  0  0  0  0
    4.0912   -0.7543   29.6005 H   0  0  0  0  0  0  0  0  0  0  0  0
    4.9886   -2.2232   29.1272 H   0  0  0  0  0  0  0  0  0  0  0  0
    6.3391   -0.0522   25.9700 C   0  0  0  0  0  0  0  0  0  0  0  0
    6.4168    0.9613   26.3425 H   0  0  0  0  0  0  0  0  0  0  0  0
    6.9213   -0.4320   24.7555 C   0  0  0  0  0  0  0  0  0  0  0  0
    7.6005    0.4167   23.9372 O   0  0  0  0  0  0  0  0  0  0  0  0
    7.7864    1.7743   24.2771 C   0  0  0  0  0  0  0  0  0  0  0  0
    6.8360    2.3222   24.3518 H   0  0  0  0  0  0  0  0  0  0  0  0
    8.3678    2.1868   23.4502 H   0  0  0  0  0  0  0  0  0  0  0  0
    8.3551    1.9020   25.2094 H   0  0  0  0  0  0  0  0  0  0  0  0
  1  2  1  0
  2  3  2  0
  3  4  1  0
  4  5  2  0
  5  6  1  0
  5  7  1  0
  7  8  2  0
  8  9  1  0
  8 10  1  0
 10 11  1  0
 10 12  2  0
 12 13  1  0
  3 14  1  0
 14 15  1  0
 14 16  1  0
 16 17  2  0
 16 18  1  0
 18 19  1  0
 18 20  1  0
 20 21  1  6
 20 22  1  0
 22 23  2  0
 23 24  1  0
 23 25  1  0
 25 26  1  0
 25 27  2  0
 27 28  1  0
 28 29  1  0
 29 30  1  0
 29 31  1  0
 29 32  1  0
 27 33  1  0
 33 34  1  0
 33 35  2  0
 35 36  1  0
 36 37  1  0
 37 38  1  0
 37 39  1  0
 37 40  1  0
 20  2  1  0
 35 22  1  0
 12  4  1  0
M  END
>  <cnnaffinity>  (1) 
-5.17904

>  <filename>  (1) 
COc1ccc([C@H]2C=C(c3cccnc3)NC(=S)N2)c(OC)c1

$$$$
