
     RDKit          3D

 35 36  0  0  0  0  0  0  0  0999 V2000
    7.3172   -5.5741   20.8634 C   0  0  0  0  0  0  0  0  0  0  0  0
    6.8992   -4.6125   21.8441 O   0  0  0  0  0  0  0  0  0  0  0  0
    5.6773   -4.8515   22.4293 C   0  0  0  0  0  0  0  0  0  0  0  0
    4.8443   -5.8949   22.0005 C   0  0  0  0  0  0  0  0  0  0  0  0
    3.5892   -6.1019   22.5620 C   0  0  0  0  0  0  0  0  0  0  0  0
    2.4317   -7.4692   21.9100 Br  0  0  0  0  0  0  0  0  0  0  0  0
    3.1760   -5.2771   23.6031 C   0  0  0  0  0  0  0  0  0  0  0  0
    4.0004   -4.2648   24.0829 C   0  0  0  0  0  0  0  0  0  0  0  0
    5.2530   -4.0263   23.4838 C   0  0  0  0  0  0  0  0  0  0  0  0
    6.1094   -2.9100   23.9163 C   0  0  0  0  0  0  0  0  0  0  0  0
    5.7622   -2.2609   24.8993 O   0  0  0  0  0  0  0  0  0  0  0  0
    7.2345   -2.6586   23.1709 O   0  0  0  0  0  0  0  0  0  0  0  0
    7.8317   -1.3338   23.2580 C   0  0  0  0  0  0  0  0  0  0  0  0
    7.3229   -0.3438   22.1879 C   0  0  0  0  0  0  0  0  0  0  0  0
    6.8198    0.7144   22.5447 O   0  0  0  0  0  0  0  0  0  0  0  0
    7.4581   -0.6217   20.8297 N   0  0  0  0  0  0  0  0  0  0  0  0
    6.7796    0.0653   19.7951 C   0  0  0  0  0  0  0  0  0  0  0  0
    5.6083    0.7649   20.0945 C   0  0  0  0  0  0  0  0  0  0  0  0
    4.9105    1.3882   19.0548 C   0  0  0  0  0  0  0  0  0  0  0  0
    5.4088    1.3248   17.7465 C   0  0  0  0  0  0  0  0  0  0  0  0
    6.5406    0.6652   17.4353 N   0  0  0  0  0  0  0  0  0  0  0  0
    7.2012    0.0467   18.4397 C   0  0  0  0  0  0  0  0  0  0  0  0
    8.1094   -0.4932   18.1920 H   0  0  0  0  0  0  0  0  0  0  0  0
    4.8584    1.8195   16.9532 H   0  0  0  0  0  0  0  0  0  0  0  0
    3.9866    1.9244   19.2461 H   0  0  0  0  0  0  0  0  0  0  0  0
    5.2462    0.8006   21.1209 H   0  0  0  0  0  0  0  0  0  0  0  0
    7.9639   -1.4700   20.5909 H   0  0  0  0  0  0  0  0  0  0  0  0
    7.6771   -0.8845   24.2464 H   0  0  0  0  0  0  0  0  0  0  0  0
    8.9104   -1.4411   23.1141 H   0  0  0  0  0  0  0  0  0  0  0  0
    3.6539   -3.6657   24.9249 H   0  0  0  0  0  0  0  0  0  0  0  0
    2.2060   -5.4209   24.0591 H   0  0  0  0  0  0  0  0  0  0  0  0
    5.1835   -6.5507   21.2107 H   0  0  0  0  0  0  0  0  0  0  0  0
    6.5584   -5.6734   20.0775 H   0  0  0  0  0  0  0  0  0  0  0  0
    8.2643   -5.2713   20.4010 H   0  0  0  0  0  0  0  0  0  0  0  0
    7.4546   -6.5485   21.3438 H   0  0  0  0  0  0  0  0  0  0  0  0
  1  2  1  0
  2  3  1  0
  3  4  2  0
  4  5  1  0
  5  6  1  0
  5  7  2  0
  7  8  1  0
  8  9  2  0
  9 10  1  0
 10 11  2  0
 10 12  1  0
 12 13  1  0
 13 14  1  0
 14 15  2  0
 14 16  1  0
 16 17  1  0
 17 18  2  0
 18 19  1  0
 19 20  2  0
 20 21  1  0
 21 22  2  0
 22 23  1  0
 20 24  1  0
 19 25  1  0
 18 26  1  0
 16 27  1  0
 13 28  1  0
 13 29  1  0
  8 30  1  0
  7 31  1  0
  4 32  1  0
  1 33  1  0
  1 34  1  0
  1 35  1  0
  9  3  1  0
 22 17  1  0
M  END
>  <cnnaffinity>  (1) 
-4.4768

>  <filename>  (1) 
COc1cc(Br)ccc1C(=O)OCC(=O)Nc1cccnc1

$$$$
