
     RDKit          3D

 34 35  0  0  0  0  0  0  0  0999 V2000
    9.2627    0.4242   21.0425 H   0  0  0  0  0  0  0  0  0  0  0  0
    9.6241   -0.3160   20.5276 O   0  0  0  0  0  0  0  0  0  0  0  0
    8.6493   -1.2758   20.8568 C   0  0  2  0  0  0  0  0  0  0  0  0
    8.6036   -1.9950   20.0259 H   0  0  0  0  0  0  0  0  0  0  0  0
    7.4202   -0.5442   21.0287 N   0  0  0  0  0  0  0  0  0  0  0  0
    6.8413   -0.7871   21.8238 H   0  0  0  0  0  0  0  0  0  0  0  0
    6.7172    0.0121   19.9440 C   0  0  0  0  0  0  0  0  0  0  0  0
    7.2010    0.0568   18.5992 C   0  0  0  0  0  0  0  0  0  0  0  0
    8.1535   -0.4021   18.3464 H   0  0  0  0  0  0  0  0  0  0  0  0
    6.5681    0.6567   17.5774 N   0  0  0  0  0  0  0  0  0  0  0  0
    5.4066    1.2747   17.8461 C   0  0  0  0  0  0  0  0  0  0  0  0
    4.9325    1.7897   17.0147 H   0  0  0  0  0  0  0  0  0  0  0  0
    4.8267    1.2791   19.1189 C   0  0  0  0  0  0  0  0  0  0  0  0
    3.8937    1.8114   19.2782 H   0  0  0  0  0  0  0  0  0  0  0  0
    5.4737    0.6283   20.1750 C   0  0  0  0  0  0  0  0  0  0  0  0
    5.0411    0.6185   21.1751 H   0  0  0  0  0  0  0  0  0  0  0  0
    9.0185   -2.0550   22.1232 C   0  0  0  0  0  0  0  0  0  0  0  0
    8.2712   -2.8375   22.2866 H   0  0  0  0  0  0  0  0  0  0  0  0
    9.9723   -2.5466   21.9014 H   0  0  0  0  0  0  0  0  0  0  0  0
    9.1853   -1.2043   23.3720 C   0  0  0  0  0  0  0  0  0  0  0  0
   10.3619   -0.4678   23.5427 C   0  0  0  0  0  0  0  0  0  0  0  0
   11.1202   -0.5457   22.7657 H   0  0  0  0  0  0  0  0  0  0  0  0
   10.5464    0.3763   24.6450 C   0  0  0  0  0  0  0  0  0  0  0  0
   11.4715    0.9337   24.7414 H   0  0  0  0  0  0  0  0  0  0  0  0
    9.5365    0.5005   25.6009 C   0  0  0  0  0  0  0  0  0  0  0  0
    9.6686    1.1579   26.4581 H   0  0  0  0  0  0  0  0  0  0  0  0
    8.3449   -0.2208   25.4581 C   0  0  0  0  0  0  0  0  0  0  0  0
    7.5447   -0.1305   26.1853 H   0  0  0  0  0  0  0  0  0  0  0  0
    8.1680   -1.0609   24.3479 C   0  0  0  0  0  0  0  0  0  0  0  0
    7.0214   -1.7569   24.0973 O   0  0  0  0  0  0  0  0  0  0  0  0
    5.9582   -1.7406   25.0267 C   0  0  0  0  0  0  0  0  0  0  0  0
    5.5259   -0.7336   25.1133 H   0  0  0  0  0  0  0  0  0  0  0  0
    6.2803   -2.0811   26.0213 H   0  0  0  0  0  0  0  0  0  0  0  0
    5.2249   -2.4370   24.6133 H   0  0  0  0  0  0  0  0  0  0  0  0
  1  2  1  0
  2  3  1  0
  3  4  1  6
  3  5  1  0
  5  6  1  0
  5  7  1  0
  7  8  2  0
  8  9  1  0
  8 10  1  0
 10 11  2  0
 11 12  1  0
 11 13  1  0
 13 14  1  0
 13 15  2  0
 15 16  1  0
  3 17  1  0
 17 18  1  0
 17 19  1  0
 17 20  1  0
 20 21  2  0
 21 22  1  0
 21 23  1  0
 23 24  1  0
 23 25  2  0
 25 26  1  0
 25 27  1  0
 27 28  1  0
 27 29  2  0
 29 30  1  0
 30 31  1  0
 31 32  1  0
 31 33  1  0
 31 34  1  0
 15  7  1  0
 29 20  1  0
M  END
>  <cnnaffinity>  (1) 
-4.70923

>  <filename>  (1) 
COc1ccccc1C[C@H](O)Nc1cccnc1

$$$$
