
     RDKit          3D

 30 31  0  0  0  0  0  0  0  0999 V2000
    4.9163    1.7940   16.9859 H   0  0  0  0  0  0  0  0  0  0  0  0
    5.3929    1.2989   17.8285 C   0  0  0  0  0  0  0  0  0  0  0  0
    6.5556    0.6843   17.5614 N   0  0  0  0  0  0  0  0  0  0  0  0
    7.1552    0.0577   18.5817 C   0  0  0  0  0  0  0  0  0  0  0  0
    8.1141   -0.4110   18.3625 H   0  0  0  0  0  0  0  0  0  0  0  0
    6.6387   -0.0142   19.8919 C   0  0  0  0  0  0  0  0  0  0  0  0
    7.4071   -0.7010   21.0017 C   0  0  0  0  0  0  0  0  0  0  0  0
    6.7314   -1.0351   21.7971 H   0  0  0  0  0  0  0  0  0  0  0  0
    7.9439   -1.5826   20.6317 H   0  0  0  0  0  0  0  0  0  0  0  0
    8.4537    0.1992   21.6860 C   0  0  0  0  0  0  0  0  0  0  0  0
    9.1711   -0.5462   22.5714 F   0  0  0  0  0  0  0  0  0  0  0  0
    9.3618    0.5856   20.7205 F   0  0  0  0  0  0  0  0  0  0  0  0
    7.8345    1.4444   22.3612 C   0  0  0  0  0  0  0  0  0  0  0  0
    7.2719    1.2747   23.5716 N   0  0  0  0  0  0  0  0  0  0  0  0
    6.6926    2.3283   24.1291 C   0  0  0  0  0  0  0  0  0  0  0  0
    6.1508    2.2311   25.3598 O   0  0  0  0  0  0  0  0  0  0  0  0
    6.2096    0.9916   26.0640 C   0  0  0  0  0  0  0  0  0  0  0  0
    7.2377    0.6695   26.2627 H   0  0  0  0  0  0  0  0  0  0  0  0
    5.7051    1.1869   27.0084 H   0  0  0  0  0  0  0  0  0  0  0  0
    5.6901    0.1850   25.5353 H   0  0  0  0  0  0  0  0  0  0  0  0
    6.5808    3.5917   23.5078 C   0  0  0  0  0  0  0  0  0  0  0  0
    6.0761    4.3827   24.0486 H   0  0  0  0  0  0  0  0  0  0  0  0
    7.1214    3.7532   22.2441 C   0  0  0  0  0  0  0  0  0  0  0  0
    7.0441    4.7100   21.7124 H   0  0  0  0  0  0  0  0  0  0  0  0
    7.7768    2.6503   21.6654 C   0  0  0  0  0  0  0  0  0  0  0  0
    8.2251    2.6846   20.6847 H   0  0  0  0  0  0  0  0  0  0  0  0
    5.4237    0.6359   20.1435 C   0  0  0  0  0  0  0  0  0  0  0  0
    5.0115    0.6327   21.1589 H   0  0  0  0  0  0  0  0  0  0  0  0
    4.7955    1.3111   19.0936 C   0  0  0  0  0  0  0  0  0  0  0  0
    3.8688    1.8479   19.2449 H   0  0  0  0  0  0  0  0  0  0  0  0
  1  2  1  0
  2  3  2  0
  3  4  1  0
  4  5  1  0
  4  6  2  0
  6  7  1  0
  7  8  1  0
  7  9  1  0
  7 10  1  0
 10 11  1  0
 10 12  1  0
 10 13  1  0
 13 14  2  0
 14 15  1  0
 15 16  1  0
 16 17  1  0
 17 18  1  0
 17 19  1  0
 17 20  1  0
 15 21  2  0
 21 22  1  0
 21 23  1  0
 23 24  1  0
 23 25  2  0
 25 26  1  0
  6 27  1  0
 27 28  1  0
 27 29  2  0
 29 30  1  0
 29  2  1  0
 25 13  1  0
M  END
>  <cnnaffinity>  (1) 
-4.61992

>  <filename>  (1) 
COc1cccc(C(F)(F)Cc2cccnc2)n1

$$$$
