
     RDKit          3D

 34 36  0  0  0  0  0  0  0  0999 V2000
    4.9195    1.8328   16.9716 H   0  0  0  0  0  0  0  0  0  0  0  0
    5.3911    1.3142   17.8002 C   0  0  0  0  0  0  0  0  0  0  0  0
    6.5481    0.6913   17.5309 N   0  0  0  0  0  0  0  0  0  0  0  0
    7.1719    0.0736   18.5468 C   0  0  0  0  0  0  0  0  0  0  0  0
    8.0957   -0.4453   18.3011 H   0  0  0  0  0  0  0  0  0  0  0  0
    6.6763    0.0388   19.8792 C   0  0  0  0  0  0  0  0  0  0  0  0
    7.3186   -0.5678   20.9687 N   0  0  0  0  0  0  0  0  0  0  0  0
    6.7455   -1.2033   21.5036 H   0  0  0  0  0  0  0  0  0  0  0  0
    8.6880   -0.7534   21.1435 C   0  0  0  0  0  0  0  0  0  0  0  0
    9.7293    0.1164   20.7456 C   0  0  0  0  0  0  0  0  0  0  0  0
    9.6239    1.0374   20.1833 H   0  0  0  0  0  0  0  0  0  0  0  0
   10.9175   -0.3273   21.1418 N   0  0  0  0  0  0  0  0  0  0  0  0
   10.6457   -1.4577   21.8186 N   0  0  0  0  0  0  0  0  0  0  0  0
   11.4267   -2.0208   22.1409 H   0  0  0  0  0  0  0  0  0  0  0  0
    9.3132   -1.7783   21.8524 C   0  0  0  0  0  0  0  0  0  0  0  0
    8.7740   -2.9620   22.5712 C   0  0  0  0  0  0  0  0  0  0  0  0
    9.3137   -3.3040   23.8315 C   0  0  0  0  0  0  0  0  0  0  0  0
   10.0960   -2.6797   24.2630 H   0  0  0  0  0  0  0  0  0  0  0  0
    8.8539   -4.4034   24.5515 C   0  0  0  0  0  0  0  0  0  0  0  0
    9.2539   -4.6134   25.5400 H   0  0  0  0  0  0  0  0  0  0  0  0
    7.8889   -5.2387   23.9921 C   0  0  0  0  0  0  0  0  0  0  0  0
    7.5518   -6.1145   24.5385 H   0  0  0  0  0  0  0  0  0  0  0  0
    7.3421   -4.9461   22.7435 C   0  0  0  0  0  0  0  0  0  0  0  0
    6.6134   -5.6276   22.3161 H   0  0  0  0  0  0  0  0  0  0  0  0
    7.7179   -3.7765   22.0580 C   0  0  0  0  0  0  0  0  0  0  0  0
    7.0729   -3.3778   20.9184 O   0  0  0  0  0  0  0  0  0  0  0  0
    6.2336   -4.2922   20.2351 C   0  0  0  0  0  0  0  0  0  0  0  0
    6.0035   -3.8463   19.2660 H   0  0  0  0  0  0  0  0  0  0  0  0
    6.7420   -5.2518   20.0706 H   0  0  0  0  0  0  0  0  0  0  0  0
    5.3021   -4.4508   20.7913 H   0  0  0  0  0  0  0  0  0  0  0  0
    5.4367    0.6444   20.1199 C   0  0  0  0  0  0  0  0  0  0  0  0
    5.0171    0.6157   21.1280 H   0  0  0  0  0  0  0  0  0  0  0  0
    4.7963    1.3036   19.0708 C   0  0  0  0  0  0  0  0  0  0  0  0
    3.8534    1.8153   19.2240 H   0  0  0  0  0  0  0  0  0  0  0  0
  1  2  1  0
  2  3  2  0
  3  4  1  0
  4  5  1  0
  4  6  2  0
  6  7  1  0
  7  8  1  0
  7  9  1  0
  9 10  1  0
 10 11  1  0
 10 12  2  0
 12 13  1  0
 13 14  1  0
 13 15  1  0
 15 16  1  0
 16 17  2  0
 17 18  1  0
 17 19  1  0
 19 20  1  0
 19 21  2  0
 21 22  1  0
 21 23  1  0
 23 24  1  0
 23 25  2  0
 25 26  1  0
 26 27  1  0
 27 28  1  0
 27 29  1  0
 27 30  1  0
  6 31  1  0
 31 32  1  0
 31 33  2  0
 33 34  1  0
 33  2  1  0
 15  9  2  0
 25 16  1  0
M  END
>  <cnnaffinity>  (1) 
-5.27996

>  <filename>  (1) 
COc1ccccc1-c1[nH]ncc1Nc1cccnc1

$$$$
