
     RDKit          3D

 40 42  0  0  0  0  0  0  0  0999 V2000
   11.0744    0.4927   25.5732 C   0  0  0  0  0  0  0  0  0  0  0  0
   10.6846   -0.1719   24.3896 O   0  0  0  0  0  0  0  0  0  0  0  0
   11.6401   -0.3872   23.4341 C   0  0  0  0  0  0  0  0  0  0  0  0
   12.9051    0.2365   23.4287 C   0  0  0  0  0  0  0  0  0  0  0  0
   13.8882   -0.1428   22.5008 C   0  0  0  0  0  0  0  0  0  0  0  0
   13.5491   -1.0923   21.5418 C   0  0  0  0  0  0  0  0  0  0  0  0
   14.6481   -1.5704   20.2914 Cl  0  0  0  0  0  0  0  0  0  0  0  0
   12.2766   -1.6541   21.5056 C   0  0  0  0  0  0  0  0  0  0  0  0
   11.3193   -1.3629   22.4694 C   0  0  0  0  0  0  0  0  0  0  0  0
   10.0367   -2.1868   22.5059 C   0  0  0  0  0  0  0  0  0  0  0  0
    8.7693   -1.4768   22.1580 C   0  0  0  0  0  0  0  0  0  0  0  0
    8.4529   -1.0637   20.9467 N   0  0  0  0  0  0  0  0  0  0  0  0
    7.1994   -0.5613   21.1023 C   0  0  0  0  0  0  0  0  0  0  0  0
    6.4941    0.0700   19.9932 C   0  0  0  0  0  0  0  0  0  0  0  0
    5.2675    0.7428   20.1221 C   0  0  0  0  0  0  0  0  0  0  0  0
    4.7482    1.3614   18.9871 C   0  0  0  0  0  0  0  0  0  0  0  0
    5.4543    1.2764   17.7808 C   0  0  0  0  0  0  0  0  0  0  0  0
    6.6090    0.6095   17.6454 N   0  0  0  0  0  0  0  0  0  0  0  0
    7.1130    0.0269   18.7364 C   0  0  0  0  0  0  0  0  0  0  0  0
    8.0509   -0.5095   18.6067 H   0  0  0  0  0  0  0  0  0  0  0  0
    5.0752    1.7575   16.8816 H   0  0  0  0  0  0  0  0  0  0  0  0
    3.8188    1.9172   19.0211 H   0  0  0  0  0  0  0  0  0  0  0  0
    4.7466    0.7737   21.0825 H   0  0  0  0  0  0  0  0  0  0  0  0
    6.7124   -0.6797   22.3220 N   0  0  0  0  0  0  0  0  0  0  0  0
    7.7285   -1.2582   22.9986 N   0  0  0  0  0  0  0  0  0  0  0  0
    7.5025   -1.6697   24.3659 C   0  0  0  0  0  0  0  0  0  0  0  0
    6.8439   -3.0355   24.4558 C   0  0  0  0  0  0  0  0  0  0  0  0
    6.6437   -3.3291   25.7686 F   0  0  0  0  0  0  0  0  0  0  0  0
    7.6783   -3.9887   23.9472 F   0  0  0  0  0  0  0  0  0  0  0  0
    5.8885   -3.0868   23.9242 H   0  0  0  0  0  0  0  0  0  0  0  0
    6.8299   -0.9318   24.8028 H   0  0  0  0  0  0  0  0  0  0  0  0
    8.4436   -1.6702   24.9190 H   0  0  0  0  0  0  0  0  0  0  0  0
   10.1210   -2.9713   21.7520 H   0  0  0  0  0  0  0  0  0  0  0  0
    9.9366   -2.6983   23.4694 H   0  0  0  0  0  0  0  0  0  0  0  0
   12.0415   -2.3041   20.6766 H   0  0  0  0  0  0  0  0  0  0  0  0
   14.8940    0.2725   22.5302 H   0  0  0  0  0  0  0  0  0  0  0  0
   13.1027    1.0215   24.1492 H   0  0  0  0  0  0  0  0  0  0  0  0
   11.1169    1.5808   25.4272 H   0  0  0  0  0  0  0  0  0  0  0  0
   10.3385    0.2396   26.3391 H   0  0  0  0  0  0  0  0  0  0  0  0
   12.0613    0.1403   25.8851 H   0  0  0  0  0  0  0  0  0  0  0  0
  1  2  1  0
  2  3  1  0
  3  4  2  0
  4  5  1  0
  5  6  2  0
  6  7  1  0
  6  8  1  0
  8  9  2  0
  9 10  1  0
 10 11  1  0
 11 12  2  0
 12 13  1  0
 13 14  1  0
 14 15  2  0
 15 16  1  0
 16 17  2  0
 17 18  1  0
 18 19  2  0
 19 20  1  0
 17 21  1  0
 16 22  1  0
 15 23  1  0
 13 24  2  0
 24 25  1  0
 25 26  1  0
 26 27  1  0
 27 28  1  0
 27 29  1  0
 27 30  1  0
 26 31  1  0
 26 32  1  0
 10 33  1  0
 10 34  1  0
  8 35  1  0
  5 36  1  0
  4 37  1  0
  1 38  1  0
  1 39  1  0
  1 40  1  0
  9  3  1  0
 25 11  1  0
 19 14  1  0
M  END
>  <cnnaffinity>  (1) 
-6.56855

>  <filename>  (1) 
COc1ccc(Cl)cc1Cc1nc(-c2cccnc2)nn1CC(F)F

$$$$
