
     RDKit          3D

 38 40  0  0  0  0  0  0  0  0999 V2000
    4.9447    1.7739   17.0081 H   0  0  0  0  0  0  0  0  0  0  0  0
    5.4146    1.2748   17.8519 C   0  0  0  0  0  0  0  0  0  0  0  0
    6.5745    0.6541   17.5939 N   0  0  0  0  0  0  0  0  0  0  0  0
    7.1936    0.0552   18.6153 C   0  0  0  0  0  0  0  0  0  0  0  0
    8.1442   -0.4219   18.3808 H   0  0  0  0  0  0  0  0  0  0  0  0
    6.6807    0.0137   19.9179 C   0  0  0  0  0  0  0  0  0  0  0  0
    7.4486   -0.7024   20.9590 C   0  0  0  0  0  0  0  0  0  0  0  0
    8.7528   -0.6842   20.8674 N   0  0  0  0  0  0  0  0  0  0  0  0
    9.4674   -1.3185   21.8477 C   0  0  0  0  0  0  0  0  0  0  0  0
   10.6753   -1.3590   21.9322 O   0  0  0  0  0  0  0  0  0  0  0  0
    8.7724   -2.0044   22.8427 N   0  0  0  0  0  0  0  0  0  0  0  0
    9.4307   -2.3612   23.5086 H   0  0  0  0  0  0  0  0  0  0  0  0
    7.4234   -2.0422   22.9599 C   0  0  0  0  0  0  0  0  0  0  0  0
    6.8038   -2.7842   24.0959 C   0  0  0  0  0  0  0  0  0  0  0  0
    7.2725   -4.0371   24.5152 C   0  0  0  0  0  0  0  0  0  0  0  0
    8.1446   -4.4776   24.0388 H   0  0  0  0  0  0  0  0  0  0  0  0
    6.6240   -4.7373   25.5413 C   0  0  0  0  0  0  0  0  0  0  0  0
    7.0157   -5.6976   25.8723 H   0  0  0  0  0  0  0  0  0  0  0  0
    5.4834   -4.2167   26.1663 C   0  0  0  0  0  0  0  0  0  0  0  0
    4.8111   -4.8395   27.1676 O   0  0  0  0  0  0  0  0  0  0  0  0
    5.2510   -6.0883   27.6629 C   0  0  0  0  0  0  0  0  0  0  0  0
    6.2645   -6.0272   28.0846 H   0  0  0  0  0  0  0  0  0  0  0  0
    4.5365   -6.3359   28.4495 H   0  0  0  0  0  0  0  0  0  0  0  0
    5.2317   -6.8616   26.8823 H   0  0  0  0  0  0  0  0  0  0  0  0
    4.9884   -2.9335   25.7496 C   0  0  0  0  0  0  0  0  0  0  0  0
    3.8642   -2.4715   26.3648 O   0  0  0  0  0  0  0  0  0  0  0  0
    3.2831   -1.2321   26.0062 C   0  0  0  0  0  0  0  0  0  0  0  0
    2.9394   -1.2228   24.9637 H   0  0  0  0  0  0  0  0  0  0  0  0
    2.4209   -1.1292   26.6681 H   0  0  0  0  0  0  0  0  0  0  0  0
    3.9645   -0.3863   26.1699 H   0  0  0  0  0  0  0  0  0  0  0  0
    5.6920   -2.2321   24.7702 C   0  0  0  0  0  0  0  0  0  0  0  0
    5.4011   -1.2088   24.5556 H   0  0  0  0  0  0  0  0  0  0  0  0
    6.7312   -1.3900   21.9784 C   0  0  0  0  0  0  0  0  0  0  0  0
    5.6599   -1.4490   21.9278 H   0  0  0  0  0  0  0  0  0  0  0  0
    5.4529    0.6481   20.1699 C   0  0  0  0  0  0  0  0  0  0  0  0
    5.0098    0.6483   21.1687 H   0  0  0  0  0  0  0  0  0  0  0  0
    4.8183    1.3005   19.1170 C   0  0  0  0  0  0  0  0  0  0  0  0
    3.8836    1.8317   19.2589 H   0  0  0  0  0  0  0  0  0  0  0  0
  1  2  1  0
  2  3  2  0
  3  4  1  0
  4  5  1  0
  4  6  2  0
  6  7  1  0
  7  8  2  0
  8  9  1  0
  9 10  2  0
  9 11  1  0
 11 12  1  0
 11 13  1  0
 13 14  1  0
 14 15  2  0
 15 16  1  0
 15 17  1  0
 17 18  1  0
 17 19  2  0
 19 20  1  0
 20 21  1  0
 21 22  1  0
 21 23  1  0
 21 24  1  0
 19 25  1  0
 25 26  1  0
 26 27  1  0
 27 28  1  0
 27 29  1  0
 27 30  1  0
 25 31  2  0
 31 32  1  0
 13 33  2  0
 33 34  1  0
  6 35  1  0
 35 36  1  0
 35 37  2  0
 37 38  1  0
 37  2  1  0
 33  7  1  0
 31 14  1  0
M  END
>  <cnnaffinity>  (1) 
-5.15595

>  <filename>  (1) 
COc1ccc(-c2cc(-c3cccnc3)nc(=O)[nH]2)cc1OC

$$$$
