
     RDKit          3D

 44 46  0  0  0  0  0  0  0  0999 V2000
    4.9704    1.7839   16.9239 H   0  0  0  0  0  0  0  0  0  0  0  0
    5.4276    1.2898   17.7808 C   0  0  0  0  0  0  0  0  0  0  0  0
    6.5854    0.6595   17.5591 N   0  0  0  0  0  0  0  0  0  0  0  0
    7.1676    0.0495   18.6066 C   0  0  0  0  0  0  0  0  0  0  0  0
    8.1078   -0.4382   18.3627 H   0  0  0  0  0  0  0  0  0  0  0  0
    6.6530    0.0175   19.9250 C   0  0  0  0  0  0  0  0  0  0  0  0
    7.3217   -0.8001   21.0678 C   0  0  0  0  0  0  0  0  0  0  0  0
    6.6112   -2.2010   21.0593 C   0  0  0  0  0  0  0  0  0  0  0  0
    6.6831   -2.6033   20.0418 H   0  0  0  0  0  0  0  0  0  0  0  0
    5.5451   -2.0083   21.2250 H   0  0  0  0  0  0  0  0  0  0  0  0
    7.0475   -3.2673   22.0413 C   0  0  0  0  0  0  0  0  0  0  0  0
    7.9956   -4.2376   21.6658 C   0  0  0  0  0  0  0  0  0  0  0  0
    8.4441   -4.2200   20.6813 H   0  0  0  0  0  0  0  0  0  0  0  0
    8.3776   -5.2492   22.5403 C   0  0  0  0  0  0  0  0  0  0  0  0
    9.0721   -6.0254   22.2250 H   0  0  0  0  0  0  0  0  0  0  0  0
    7.8590   -5.3000   23.8345 C   0  0  0  0  0  0  0  0  0  0  0  0
    8.1976   -6.0675   24.5220 H   0  0  0  0  0  0  0  0  0  0  0  0
    6.9207   -4.3381   24.2352 C   0  0  0  0  0  0  0  0  0  0  0  0
    6.3792   -4.2702   25.4847 O   0  0  0  0  0  0  0  0  0  0  0  0
    6.8011   -5.2095   26.4566 C   0  0  0  0  0  0  0  0  0  0  0  0
    7.8495   -5.0424   26.7399 H   0  0  0  0  0  0  0  0  0  0  0  0
    6.6952   -6.2312   26.0719 H   0  0  0  0  0  0  0  0  0  0  0  0
    6.1590   -5.0769   27.3311 H   0  0  0  0  0  0  0  0  0  0  0  0
    6.4963   -3.3491   23.3298 C   0  0  0  0  0  0  0  0  0  0  0  0
    5.7450   -2.6337   23.6639 H   0  0  0  0  0  0  0  0  0  0  0  0
    7.1304   -0.1236   22.4642 C   0  0  0  0  0  0  0  0  0  0  0  0
    6.0676   -0.0511   22.7213 H   0  0  0  0  0  0  0  0  0  0  0  0
    7.5837   -0.7815   23.2220 H   0  0  0  0  0  0  0  0  0  0  0  0
    7.7947    1.2560   22.5774 C   0  0  0  0  0  0  0  0  0  0  0  0
    7.6216    1.6657   23.5811 H   0  0  0  0  0  0  0  0  0  0  0  0
    7.3265    1.9589   21.8709 H   0  0  0  0  0  0  0  0  0  0  0  0
    9.3025    1.1604   22.3081 C   0  0  0  0  0  0  0  0  0  0  0  0
    9.7373    2.1690   22.2721 H   0  0  0  0  0  0  0  0  0  0  0  0
    9.7848    0.6400   23.1511 H   0  0  0  0  0  0  0  0  0  0  0  0
    9.6055    0.4154   20.9968 C   0  0  0  0  0  0  0  0  0  0  0  0
    9.3155    1.0567   20.1553 H   0  0  0  0  0  0  0  0  0  0  0  0
   10.6863    0.2471   20.9184 H   0  0  0  0  0  0  0  0  0  0  0  0
    8.8618   -0.9298   20.8672 C   0  0  0  0  0  0  0  0  0  0  0  0
    9.0822   -1.3856   19.8943 H   0  0  0  0  0  0  0  0  0  0  0  0
    9.2513   -1.6328   21.6168 H   0  0  0  0  0  0  0  0  0  0  0  0
    5.4279    0.6834   20.1134 C   0  0  0  0  0  0  0  0  0  0  0  0
    4.9496    0.7109   21.0941 H   0  0  0  0  0  0  0  0  0  0  0  0
    4.8082    1.3256   19.0341 C   0  0  0  0  0  0  0  0  0  0  0  0
    3.8686    1.8527   19.1537 H   0  0  0  0  0  0  0  0  0  0  0  0
  1  2  1  0
  2  3  2  0
  3  4  1  0
  4  5  1  0
  4  6  2  0
  6  7  1  0
  7  8  1  0
  8  9  1  0
  8 10  1  0
  8 11  1  0
 11 12  2  0
 12 13  1  0
 12 14  1  0
 14 15  1  0
 14 16  2  0
 16 17  1  0
 16 18  1  0
 18 19  1  0
 19 20  1  0
 20 21  1  0
 20 22  1  0
 20 23  1  0
 18 24  2  0
 24 25  1  0
  7 26  1  0
 26 27  1  0
 26 28  1  0
 26 29  1  0
 29 30  1  0
 29 31  1  0
 29 32  1  0
 32 33  1  0
 32 34  1  0
 32 35  1  0
 35 36  1  0
 35 37  1  0
 35 38  1  0
 38 39  1  0
 38 40  1  0
  6 41  1  0
 41 42  1  0
 41 43  2  0
 43 44  1  0
 43  2  1  0
 38  7  1  0
 24 11  1  0
M  END
>  <cnnaffinity>  (1) 
-5.41216

>  <filename>  (1) 
COc1cccc(CC2(c3cccnc3)CCCCC2)c1

$$$$
