
     RDKit          3D

 49 54  0  0  0  0  0  0  0  0999 V2000
    8.5987    6.8909   26.4575 C   0  0  0  0  0  0  0  0  0  0  0  0
    8.6421    5.4943   26.6806 O   0  0  0  0  0  0  0  0  0  0  0  0
    8.7939    4.6674   25.6108 C   0  0  0  0  0  0  0  0  0  0  0  0
    9.1709    5.0787   24.3260 C   0  0  0  0  0  0  0  0  0  0  0  0
    9.3019    4.1434   23.2951 C   0  0  0  0  0  0  0  0  0  0  0  0
    9.0458    2.7874   23.5371 C   0  0  0  0  0  0  0  0  0  0  0  0
    9.0524    1.8224   22.4853 N   0  0  0  0  0  0  0  0  0  0  0  0
    8.0292    0.9378   22.3327 N   0  0  0  0  0  0  0  0  0  0  0  0
    8.2897    0.3773   21.1704 C   0  0  0  0  0  0  0  0  0  0  0  0
    7.3847   -0.6618   20.5643 C   0  0  0  0  0  0  0  0  0  0  0  0
    6.5760   -0.1185   19.3972 C   0  0  0  0  0  0  0  0  0  0  0  0
    5.4882    0.7342   19.6278 C   0  0  0  0  0  0  0  0  0  0  0  0
    4.8698    1.3525   18.5393 C   0  0  0  0  0  0  0  0  0  0  0  0
    5.3667    1.1021   17.2588 C   0  0  0  0  0  0  0  0  0  0  0  0
    6.3843    0.2676   17.0113 N   0  0  0  0  0  0  0  0  0  0  0  0
    6.9617   -0.3263   18.0622 C   0  0  0  0  0  0  0  0  0  0  0  0
    7.7880   -1.0035   17.8360 H   0  0  0  0  0  0  0  0  0  0  0  0
    4.9305    1.5859   16.3908 H   0  0  0  0  0  0  0  0  0  0  0  0
    4.0348    2.0339   18.6668 H   0  0  0  0  0  0  0  0  0  0  0  0
    5.1378    0.9139   20.6466 H   0  0  0  0  0  0  0  0  0  0  0  0
    6.7242   -1.0168   21.3598 H   0  0  0  0  0  0  0  0  0  0  0  0
    8.0094   -1.5025   20.2483 H   0  0  0  0  0  0  0  0  0  0  0  0
    9.4261    0.8087   20.5629 N   0  0  0  0  0  0  0  0  0  0  0  0
    9.9034    1.6913   21.4264 C   0  0  0  0  0  0  0  0  0  0  0  0
   11.2013    2.3345   21.3495 C   0  0  0  0  0  0  0  0  0  0  0  0
   12.2670    2.1673   22.5655 C   0  0  0  0  0  0  0  0  0  0  0  0
   12.9159    1.8474   23.9163 C   0  0  0  0  0  0  0  0  0  0  0  0
   12.9707    0.8542   22.7852 C   0  0  0  0  0  0  0  0  0  0  0  0
   13.9137    0.6712   22.2700 H   0  0  0  0  0  0  0  0  0  0  0  0
   12.3059   -0.0127   22.8490 H   0  0  0  0  0  0  0  0  0  0  0  0
   12.2771    1.6323   24.7775 H   0  0  0  0  0  0  0  0  0  0  0  0
   13.7934    2.4644   24.0656 H   0  0  0  0  0  0  0  0  0  0  0  0
   11.6362    3.3345   22.2057 C   0  0  0  0  0  0  0  0  0  0  0  0
   12.5145    4.5331   22.0397 C   0  0  0  0  0  0  0  0  0  0  0  0
   12.3331    4.4500   22.3345 C   0  0  0  0  0  0  0  0  0  0  0  0
   11.6917    5.2000   22.9472 H   0  0  0  0  0  0  0  0  0  0  0  0
   12.4960    5.5928   21.0773 H   0  0  0  0  0  0  0  0  0  0  0  0
   13.4472    4.3715   22.8263 H   0  0  0  0  0  0  0  0  0  0  0  0
   13.4824    4.0029   20.9631 H   0  0  0  0  0  0  0  0  0  0  0  0
   11.6606    2.2549   20.3642 H   0  0  0  0  0  0  0  0  0  0  0  0
    8.6744    2.3747   24.8262 C   0  0  0  0  0  0  0  0  0  0  0  0
    8.5666    3.3025   25.8562 C   0  0  0  0  0  0  0  0  0  0  0  0
    8.2850    3.0025   26.8588 H   0  0  0  0  0  0  0  0  0  0  0  0
    8.4457    1.3231   24.9878 H   0  0  0  0  0  0  0  0  0  0  0  0
    9.5976    4.4651   22.3067 H   0  0  0  0  0  0  0  0  0  0  0  0
    9.3528    6.1285   24.1299 H   0  0  0  0  0  0  0  0  0  0  0  0
    7.7902    7.1662   25.7644 H   0  0  0  0  0  0  0  0  0  0  0  0
    9.5515    7.2676   26.0601 H   0  0  0  0  0  0  0  0  0  0  0  0
    8.4124    7.3434   27.4320 H   0  0  0  0  0  0  0  0  0  0  0  0
  1  2  1  0
  2  3  1  0
  3  4  2  0
  4  5  1  0
  5  6  2  0
  6  7  1  0
  7  8  1  0
  8  9  2  0
  9 10  1  0
 10 11  1  0
 11 12  2  0
 12 13  1  0
 13 14  2  0
 14 15  1  0
 15 16  2  0
 16 17  1  0
 14 18  1  0
 13 19  1  0
 12 20  1  0
 10 21  1  0
 10 22  1  0
  9 23  1  0
 23 24  2  0
 24 25  1  0
 25 26  1  0
 26 27  1  0
 27 28  1  0
 28 29  1  0
 28 30  1  0
 27 31  1  0
 27 32  1  0
 26 33  1  0
 33 34  1  0
 34 35  1  0
 35 36  1  0
 35 37  1  0
 34 38  1  0
 34 39  1  0
 25 40  1  0
  6 41  1  0
 41 42  2  0
 42 43  1  0
 41 44  1  0
  5 45  1  0
  4 46  1  0
  1 47  1  0
  1 48  1  0
  1 49  1  0
 42  3  1  0
 24  7  1  0
 33 25  1  0
 16 11  1  0
 28 26  1  0
 35 33  1  0
M  END
>  <cnnaffinity>  (1) 
-6.23895

>  <filename>  (1) 
COc1ccc(-n2nc(Cc3cccnc3)nc2C2C3(CC3)C23CC3)cc1

$$$$
