
     RDKit          3D

 44 45  0  0  0  0  0  0  0  0999 V2000
   13.8347   -1.7543   21.2654 C   0  0  0  0  0  0  0  0  0  0  0  0
   12.4311   -1.9349   21.3694 O   0  0  0  0  0  0  0  0  0  0  0  0
   11.7162   -1.1854   22.2509 C   0  0  0  0  0  0  0  0  0  0  0  0
   10.6945   -1.8314   22.9474 C   0  0  0  0  0  0  0  0  0  0  0  0
    9.9582   -1.1209   23.8911 C   0  0  0  0  0  0  0  0  0  0  0  0
   10.2151    0.2323   24.1521 C   0  0  0  0  0  0  0  0  0  0  0  0
    9.4102    0.9653   25.0762 N   0  0  0  0  0  0  0  0  0  0  0  0
    8.0976    0.8222   25.3048 C   0  0  0  0  0  0  0  0  0  0  0  0
    7.2252    0.3860   24.3865 N   0  0  0  0  0  4  0  0  0  0  0  0
    7.3904    0.5581   22.9311 C   0  0  0  0  0  0  0  0  0  0  0  0
    7.0828   -0.7283   22.1700 C   0  0  0  0  0  0  0  0  0  0  0  0
    7.5125   -0.6223   20.8142 O   0  0  0  0  0  0  0  0  0  0  0  0
    6.7566    0.0324   19.8927 C   0  0  0  0  0  0  0  0  0  0  0  0
    5.5457    0.6947   20.1316 C   0  0  0  0  0  0  0  0  0  0  0  0
    4.9149    1.3308   19.0514 C   0  0  0  0  0  0  0  0  0  0  0  0
    5.4955    1.2749   17.7842 C   0  0  0  0  0  0  0  0  0  0  0  0
    6.6479    0.6243   17.5405 N   0  0  0  0  0  0  0  0  0  0  0  0
    7.2567    0.0295   18.5690 C   0  0  0  0  0  0  0  0  0  0  0  0
    8.1974   -0.4833   18.3712 H   0  0  0  0  0  0  0  0  0  0  0  0
    5.0296    1.7643   16.9311 H   0  0  0  0  0  0  0  0  0  0  0  0
    3.9902    1.8798   19.1886 H   0  0  0  0  0  0  0  0  0  0  0  0
    5.1112    0.7145   21.1294 H   0  0  0  0  0  0  0  0  0  0  0  0
    6.0227   -0.9966   22.2253 H   0  0  0  0  0  0  0  0  0  0  0  0
    7.6499   -1.5648   22.5823 H   0  0  0  0  0  0  0  0  0  0  0  0
    8.4151    0.8393   22.6807 H   0  0  0  0  0  0  0  0  0  0  0  0
    6.7570    1.3728   22.5530 H   0  0  0  0  0  0  0  0  0  0  0  0
    6.2754    0.4780   24.7195 H   0  0  0  0  0  0  0  0  0  0  0  0
    7.6093    1.1565   26.5228 N   0  0  0  0  0  0  0  0  0  0  0  0
    6.7806    0.6226   26.7532 H   0  0  0  0  0  0  0  0  0  0  0  0
    8.2907    1.1131   27.2709 H   0  0  0  0  0  0  0  0  0  0  0  0
    9.8939    1.6253   25.6635 H   0  0  0  0  0  0  0  0  0  0  0  0
   11.2853    0.8609   23.4740 C   0  0  0  0  0  0  0  0  0  0  0  0
   11.6079    2.1290   23.8644 O   0  0  0  0  0  0  0  0  0  0  0  0
   12.8161    2.6934   23.3836 C   0  0  0  0  0  0  0  0  0  0  0  0
   12.7558    2.9127   22.3084 H   0  0  0  0  0  0  0  0  0  0  0  0
   13.6534    2.0080   23.5643 H   0  0  0  0  0  0  0  0  0  0  0  0
   12.9744    3.6220   23.9351 H   0  0  0  0  0  0  0  0  0  0  0  0
   11.9891    0.1648   22.4864 C   0  0  0  0  0  0  0  0  0  0  0  0
   12.7755    0.6554   21.9286 H   0  0  0  0  0  0  0  0  0  0  0  0
    9.1575   -1.6121   24.4347 H   0  0  0  0  0  0  0  0  0  0  0  0
   10.5456   -2.8885   22.7664 H   0  0  0  0  0  0  0  0  0  0  0  0
   14.0862   -1.2370   20.3319 H   0  0  0  0  0  0  0  0  0  0  0  0
   14.2873   -2.7481   21.2574 H   0  0  0  0  0  0  0  0  0  0  0  0
   14.2590   -1.2015   22.1133 H   0  0  0  0  0  0  0  0  0  0  0  0
  1  2  1  0
  2  3  1  0
  3  4  2  0
  4  5  1  0
  5  6  2  0
  6  7  1  0
  7  8  1  0
  8  9  2  3
  9 10  1  0
 10 11  1  0
 11 12  1  0
 12 13  1  0
 13 14  2  0
 14 15  1  0
 15 16  2  0
 16 17  1  0
 17 18  2  0
 18 19  1  0
 16 20  1  0
 15 21  1  0
 14 22  1  0
 11 23  1  0
 11 24  1  0
 10 25  1  0
 10 26  1  0
  9 27  1  0
  8 28  1  0
 28 29  1  0
 28 30  1  0
  7 31  1  0
  6 32  1  0
 32 33  1  0
 33 34  1  0
 34 35  1  0
 34 36  1  0
 34 37  1  0
 32 38  2  0
 38 39  1  0
  5 40  1  0
  4 41  1  0
  1 42  1  0
  1 43  1  0
  1 44  1  0
 38  3  1  0
 18 13  1  0
M  CHG  1   9   1
M  END
>  <cnnaffinity>  (1) 
-5.40943

>  <filename>  (1) 
COc1ccc(NC(N)=[NH+]CCOc2cccnc2)c(OC)c1

$$$$
