
     RDKit          3D

 30 32  0  0  0  0  0  0  0  0999 V2000
    4.9610    2.1874   16.5691 H   0  0  0  0  0  0  0  0  0  0  0  0
    5.2674    1.6209   17.4448 C   0  0  0  0  0  0  0  0  0  0  0  0
    6.3840    0.8872   17.3161 N   0  0  0  0  0  0  0  0  0  0  0  0
    6.8031    0.2143   18.3907 C   0  0  0  0  0  0  0  0  0  0  0  0
    7.7185   -0.3614   18.2681 H   0  0  0  0  0  0  0  0  0  0  0  0
    6.1372    0.2232   19.6268 C   0  0  0  0  0  0  0  0  0  0  0  0
    6.7499   -0.5245   20.7258 C   0  0  0  0  0  0  0  0  0  0  0  0
    7.9398   -1.0985   20.7021 N   0  0  0  0  0  0  0  0  0  0  0  0
    8.0760   -1.5988   21.9582 C   0  0  0  0  0  0  0  0  0  0  0  0
    9.3045   -2.3357   22.4241 C   0  0  0  0  0  0  0  0  0  0  0  0
    9.6182   -2.9901   21.6092 H   0  0  0  0  0  0  0  0  0  0  0  0
    9.0291   -2.9506   23.2867 H   0  0  0  0  0  0  0  0  0  0  0  0
   10.4584   -1.5124   22.7593 N   0  0  0  0  0  0  0  0  0  0  0  0
   11.5412   -1.4221   21.8931 N   0  0  0  0  0  0  0  0  0  0  0  0
   12.3367   -0.6393   22.5244 C   0  0  0  0  0  0  0  0  0  0  0  0
   13.5433   -0.2883   22.1185 O   0  0  0  0  0  0  0  0  0  0  0  0
   14.2065    0.7899   22.7915 C   0  0  0  0  0  0  0  0  0  0  0  0
   15.1586    0.9045   22.2797 H   0  0  0  0  0  0  0  0  0  0  0  0
   13.6290    1.7158   22.7151 H   0  0  0  0  0  0  0  0  0  0  0  0
   14.3778    0.5549   23.8453 H   0  0  0  0  0  0  0  0  0  0  0  0
   11.8819   -0.1710   23.7083 O   0  0  0  0  0  0  0  0  0  0  0  0
   10.6550   -0.7779   23.8957 C   0  0  0  0  0  0  0  0  0  0  0  0
    9.9758   -0.6460   24.8703 O   0  0  0  0  0  0  0  0  0  0  0  0
    7.0293   -1.4160   22.7391 N   0  0  0  0  0  0  0  0  0  0  0  0
    6.1940   -0.7120   21.9381 N   0  0  0  0  0  0  0  0  0  0  0  0
    5.3051   -0.3868   22.2920 H   0  0  0  0  0  0  0  0  0  0  0  0
    4.9588    0.9793   19.7420 C   0  0  0  0  0  0  0  0  0  0  0  0
    4.4027    1.0448   20.6801 H   0  0  0  0  0  0  0  0  0  0  0  0
    4.5204    1.6841   18.6260 C   0  0  0  0  0  0  0  0  0  0  0  0
    3.6283    2.2973   18.6693 H   0  0  0  0  0  0  0  0  0  0  0  0
  1  2  1  0
  2  3  2  0
  3  4  1  0
  4  5  1  0
  4  6  2  0
  6  7  1  0
  7  8  2  0
  8  9  1  0
  9 10  1  0
 10 11  1  0
 10 12  1  0
 10 13  1  0
 13 14  1  0
 14 15  2  0
 15 16  1  0
 16 17  1  0
 17 18  1  0
 17 19  1  0
 17 20  1  0
 15 21  1  0
 21 22  1  0
 22 23  2  0
  9 24  2  0
 24 25  1  0
 25 26  1  0
  6 27  1  0
 27 28  1  0
 27 29  2  0
 29 30  1  0
 29  2  1  0
 25  7  1  0
 22 13  1  0
M  END
>  <cnnaffinity>  (1) 
-5.05162

>  <filename>  (1) 
COc1nn(Cc2n[nH]c(-c3cccnc3)n2)c(=O)o1

$$$$
