
     RDKit          3D

 28 29  0  0  0  0  0  0  0  0999 V2000
    5.6345   -1.4880   21.7494 H   0  0  0  0  0  0  0  0  0  0  0  0
    6.7105   -1.4875   21.8449 C   0  0  0  0  0  0  0  0  0  0  0  0
    7.4176   -0.7544   20.9188 C   0  0  0  0  0  0  0  0  0  0  0  0
    9.3296   -0.7131   20.9416 Br  0  0  0  0  0  0  0  0  0  0  0  0
    6.6983   -0.0213   19.8845 C   0  0  0  0  0  0  0  0  0  0  0  0
    7.2475    0.0762   18.6002 C   0  0  0  0  0  0  0  0  0  0  0  0
    8.2015   -0.4013   18.4039 H   0  0  0  0  0  0  0  0  0  0  0  0
    6.6453    0.7153   17.5821 N   0  0  0  0  0  0  0  0  0  0  0  0
    5.4585    1.2996   17.8212 C   0  0  0  0  0  0  0  0  0  0  0  0
    4.9571    1.8213   17.0104 H   0  0  0  0  0  0  0  0  0  0  0  0
    4.8463    1.2503   19.0784 C   0  0  0  0  0  0  0  0  0  0  0  0
    3.8957    1.7466   19.2208 H   0  0  0  0  0  0  0  0  0  0  0  0
    5.4625    0.5823   20.1356 C   0  0  0  0  0  0  0  0  0  0  0  0
    5.0035    0.5463   21.1251 H   0  0  0  0  0  0  0  0  0  0  0  0
    7.2915   -2.2811   22.9257 C   0  0  0  0  0  0  0  0  0  0  0  0
    8.6102   -2.4614   22.9815 N   0  0  0  0  0  0  0  0  0  0  0  0
    9.1436   -3.2045   23.9654 C   0  0  0  0  0  0  0  0  0  0  0  0
   10.5008   -3.4177   23.9888 O   0  0  0  0  0  0  0  0  0  0  0  0
   11.1932   -2.7572   22.9130 C   0  0  0  0  0  0  0  0  0  0  0  0
   10.6031   -2.8237   21.9926 H   0  0  0  0  0  0  0  0  0  0  0  0
   11.3188   -1.6975   23.1510 H   0  0  0  0  0  0  0  0  0  0  0  0
   12.1797   -3.1970   22.7318 H   0  0  0  0  0  0  0  0  0  0  0  0
    8.3404   -3.7926   24.9480 C   0  0  0  0  0  0  0  0  0  0  0  0
    8.8113   -4.3825   25.7206 H   0  0  0  0  0  0  0  0  0  0  0  0
    6.9551   -3.6299   24.9236 C   0  0  0  0  0  0  0  0  0  0  0  0
    6.2988   -4.0785   25.6745 H   0  0  0  0  0  0  0  0  0  0  0  0
    6.4477   -2.8610   23.8769 C   0  0  0  0  0  0  0  0  0  0  0  0
    5.3826   -2.6947   23.7934 H   0  0  0  0  0  0  0  0  0  0  0  0
  1  2  1  0
  2  3  2  3
  3  4  1  0
  3  5  1  0
  5  6  2  0
  6  7  1  0
  6  8  1  0
  8  9  2  0
  9 10  1  0
  9 11  1  0
 11 12  1  0
 11 13  2  0
 13 14  1  0
  2 15  1  0
 15 16  2  0
 16 17  1  0
 17 18  1  0
 18 19  1  0
 19 20  1  0
 19 21  1  0
 19 22  1  0
 17 23  2  0
 23 24  1  0
 23 25  1  0
 25 26  1  0
 25 27  2  0
 27 28  1  0
 13  5  1  0
 27 15  1  0
M  END
>  <cnnaffinity>  (1) 
-5.04315

>  <filename>  (1) 
COc1cccc(C=C(Br)c2cccnc2)n1

$$$$
