
     RDKit          3D

 29 30  0  0  0  0  0  0  0  0999 V2000
    9.1696   -2.4751   26.5569 H   0  0  0  0  0  0  0  0  0  0  0  0
    8.7866   -1.9949   25.6615 C   0  0  0  0  0  0  0  0  0  0  0  0
    8.0090   -2.7657   24.8768 N   0  0  0  0  0  0  0  0  0  0  0  0
    7.5306   -2.2219   23.7638 C   0  0  0  0  0  0  0  0  0  0  0  0
    6.7368   -2.9494   22.9533 O   0  0  0  0  0  0  0  0  0  0  0  0
    6.3871   -4.2897   23.2719 C   0  0  0  0  0  0  0  0  0  0  0  0
    7.2740   -4.9283   23.3064 H   0  0  0  0  0  0  0  0  0  0  0  0
    5.7269   -4.5977   22.4612 H   0  0  0  0  0  0  0  0  0  0  0  0
    5.8672   -4.3654   24.2319 H   0  0  0  0  0  0  0  0  0  0  0  0
    7.8200   -0.8773   23.3176 C   0  0  0  0  0  0  0  0  0  0  0  0
    7.3253   -0.2014   22.1704 N   0  0  0  0  0  0  0  0  0  0  0  0
    7.4576   -0.6146   20.9718 C   0  0  0  0  0  0  0  0  0  0  0  0
    6.6577   -0.0118   19.8986 C   0  0  0  0  0  0  0  0  0  0  0  0
    7.1753    0.0157   18.6021 C   0  0  0  0  0  0  0  0  0  0  0  0
    8.1348   -0.4505   18.3817 H   0  0  0  0  0  0  0  0  0  0  0  0
    6.5788    0.6332   17.5800 N   0  0  0  0  0  0  0  0  0  0  0  0
    5.4202    1.2608   17.8298 C   0  0  0  0  0  0  0  0  0  0  0  0
    4.9709    1.7834   16.9890 H   0  0  0  0  0  0  0  0  0  0  0  0
    4.8086    1.2807   19.0901 C   0  0  0  0  0  0  0  0  0  0  0  0
    3.8845    1.8306   19.2324 H   0  0  0  0  0  0  0  0  0  0  0  0
    5.4378    0.6399   20.1510 C   0  0  0  0  0  0  0  0  0  0  0  0
    5.0265    0.6561   21.1638 H   0  0  0  0  0  0  0  0  0  0  0  0
    8.3572   -1.5734   20.5519 N   0  0  0  0  0  0  0  0  0  0  0  0
    7.9403   -2.1668   19.8518 H   0  0  0  0  0  0  0  0  0  0  0  0
    8.6607   -2.1052   21.3506 H   0  0  0  0  0  0  0  0  0  0  0  0
    8.5908   -0.1083   24.1907 C   0  0  0  0  0  0  0  0  0  0  0  0
    8.7620    0.9293   23.9111 H   0  0  0  0  0  0  0  0  0  0  0  0
    9.0949   -0.6729   25.3729 C   0  0  0  0  0  0  0  0  0  0  0  0
    9.7066   -0.0949   26.0589 H   0  0  0  0  0  0  0  0  0  0  0  0
  1  2  1  0
  2  3  2  0
  3  4  1  0
  4  5  1  0
  5  6  1  0
  6  7  1  0
  6  8  1  0
  6  9  1  0
  4 10  2  0
 10 11  1  0
 11 12  2  3
 12 13  1  0
 13 14  2  0
 14 15  1  0
 14 16  1  0
 16 17  2  0
 17 18  1  0
 17 19  1  0
 19 20  1  0
 19 21  2  0
 21 22  1  0
 12 23  1  0
 23 24  1  0
 23 25  1  0
 10 26  1  0
 26 27  1  0
 26 28  2  0
 28 29  1  0
 28  2  1  0
 21 13  1  0
M  END
>  <cnnaffinity>  (1) 
-4.91919

>  <filename>  (1) 
COc1ncccc1N=C(N)c1cccnc1

$$$$
