
     RDKit          3D

 33 35  0  0  0  0  0  0  0  0999 V2000
    4.9587    1.8216   17.0043 H   0  0  0  0  0  0  0  0  0  0  0  0
    5.4169    1.2869   17.8356 C   0  0  0  0  0  0  0  0  0  0  0  0
    6.5574    0.6314   17.5690 N   0  0  0  0  0  0  0  0  0  0  0  0
    7.1549   -0.0115   18.5803 C   0  0  0  0  0  0  0  0  0  0  0  0
    8.0985   -0.5057   18.3640 H   0  0  0  0  0  0  0  0  0  0  0  0
    6.6413   -0.0497   19.8869 C   0  0  0  0  0  0  0  0  0  0  0  0
    7.3450   -0.7130   20.9396 N   0  0  0  0  0  0  0  0  0  0  0  0
    6.5807   -1.5912   21.6694 N   0  0  0  0  0  0  0  0  0  0  0  0
    7.1396   -2.2306   22.6497 C   0  0  0  0  0  0  0  0  0  0  0  0
    6.4815   -2.9186   23.1794 H   0  0  0  0  0  0  0  0  0  0  0  0
    8.5271   -2.0618   23.0192 C   0  0  0  0  0  0  0  0  0  0  0  0
    9.0911   -2.9445   24.0808 C   0  0  0  0  0  0  0  0  0  0  0  0
    8.2536   -3.2947   25.0789 N   0  0  0  0  0  0  0  0  0  0  0  0
    8.7525   -4.0611   26.0406 C   0  0  0  0  0  0  0  0  0  0  0  0
    8.0028   -4.4153   27.1027 O   0  0  0  0  0  0  0  0  0  0  0  0
    6.5966   -4.2156   27.0623 C   0  0  0  0  0  0  0  0  0  0  0  0
    6.1914   -4.7035   27.9531 H   0  0  0  0  0  0  0  0  0  0  0  0
    6.3496   -3.1476   27.0825 H   0  0  0  0  0  0  0  0  0  0  0  0
    6.1674   -4.6762   26.1646 H   0  0  0  0  0  0  0  0  0  0  0  0
   10.0537   -4.5791   26.0495 C   0  0  0  0  0  0  0  0  0  0  0  0
   10.3368   -5.1942   26.8923 H   0  0  0  0  0  0  0  0  0  0  0  0
   10.8891   -4.2640   24.9949 C   0  0  0  0  0  0  0  0  0  0  0  0
   11.9012   -4.6556   24.9676 H   0  0  0  0  0  0  0  0  0  0  0  0
   10.4052   -3.4109   23.9924 C   0  0  0  0  0  0  0  0  0  0  0  0
   11.0342   -3.1363   23.1545 H   0  0  0  0  0  0  0  0  0  0  0  0
    9.2621   -1.1210   22.3325 C   0  0  0  0  0  0  0  0  0  0  0  0
   10.2972   -0.8713   22.5420 H   0  0  0  0  0  0  0  0  0  0  0  0
    8.7209   -0.3675   21.2161 C   0  0  0  0  0  0  0  0  0  0  0  0
    9.3348    0.4455   20.5419 O   0  0  0  0  0  0  0  0  0  0  0  0
    5.4326    0.6012   20.1479 C   0  0  0  0  0  0  0  0  0  0  0  0
    5.0047    0.5463   21.1475 H   0  0  0  0  0  0  0  0  0  0  0  0
    4.8236    1.2986   19.1030 C   0  0  0  0  0  0  0  0  0  0  0  0
    3.9045    1.8466   19.2629 H   0  0  0  0  0  0  0  0  0  0  0  0
  1  2  1  0
  2  3  2  0
  3  4  1  0
  4  5  1  0
  4  6  2  0
  6  7  1  0
  7  8  1  0
  8  9  2  0
  9 10  1  0
  9 11  1  0
 11 12  1  0
 12 13  2  0
 13 14  1  0
 14 15  1  0
 15 16  1  0
 16 17  1  0
 16 18  1  0
 16 19  1  0
 14 20  2  0
 20 21  1  0
 20 22  1  0
 22 23  1  0
 22 24  2  0
 24 25  1  0
 11 26  2  0
 26 27  1  0
 26 28  1  0
 28 29  2  0
  6 30  1  0
 30 31  1  0
 30 32  2  0
 32 33  1  0
 32  2  1  0
 28  7  1  0
 24 12  1  0
M  END
>  <cnnaffinity>  (1) 
-5.20323

>  <filename>  (1) 
COc1cccc(-c2cnn(-c3cccnc3)c(=O)c2)n1

$$$$
