
     RDKit          3D

 30 31  0  0  0  0  0  0  0  0999 V2000
    4.9854    1.7717   16.8894 H   0  0  0  0  0  0  0  0  0  0  0  0
    5.4212    1.3242   17.7812 C   0  0  0  0  0  0  0  0  0  0  0  0
    6.5979    0.6830   17.6706 N   0  0  0  0  0  0  0  0  0  0  0  0
    7.1336    0.1481   18.7824 C   0  0  0  0  0  0  0  0  0  0  0  0
    8.0660   -0.4005   18.7020 H   0  0  0  0  0  0  0  0  0  0  0  0
    6.5388    0.2374   20.0459 C   0  0  0  0  0  0  0  0  0  0  0  0
    7.2301   -0.3801   21.2343 C   0  0  2  0  0  0  0  0  0  0  0  0
    6.6775   -0.1390   22.1432 H   0  0  0  0  0  0  0  0  0  0  0  0
    9.0734    0.3552   21.4026 Br  0  0  0  0  0  0  0  0  0  0  0  0
    7.2591   -1.9007   21.0315 C   0  0  0  0  0  0  0  0  0  0  0  0
    7.9070   -2.1167   20.1823 H   0  0  0  0  0  0  0  0  0  0  0  0
    6.2611   -2.2520   20.7556 H   0  0  0  0  0  0  0  0  0  0  0  0
    7.7328   -2.6781   22.2370 C   0  0  0  0  0  0  0  0  0  0  0  0
    9.0922   -3.0085   22.3445 C   0  0  0  0  0  0  0  0  0  0  0  0
    9.7725   -2.6422   21.5772 H   0  0  0  0  0  0  0  0  0  0  0  0
    9.5764   -3.7637   23.3457 N   0  0  0  0  0  0  0  0  0  0  0  0
    8.7205   -4.2240   24.2837 C   0  0  0  0  0  0  0  0  0  0  0  0
    9.1184   -4.8567   25.0749 H   0  0  0  0  0  0  0  0  0  0  0  0
    7.3418   -3.9159   24.2809 C   0  0  0  0  0  0  0  0  0  0  0  0
    6.5208   -4.3869   25.2856 O   0  0  0  0  0  0  0  0  0  0  0  0
    5.2100   -3.8027   25.3433 C   0  0  0  0  0  0  0  0  0  0  0  0
    4.7115   -4.0458   26.2896 H   0  0  0  0  0  0  0  0  0  0  0  0
    5.3011   -2.7163   25.2611 H   0  0  0  0  0  0  0  0  0  0  0  0
    4.5933   -4.1690   24.5163 H   0  0  0  0  0  0  0  0  0  0  0  0
    6.8515   -3.1250   23.2323 C   0  0  0  0  0  0  0  0  0  0  0  0
    5.7916   -2.8752   23.2160 H   0  0  0  0  0  0  0  0  0  0  0  0
    5.2931    0.8598   20.1591 C   0  0  0  0  0  0  0  0  0  0  0  0
    4.7695    0.9135   21.1131 H   0  0  0  0  0  0  0  0  0  0  0  0
    4.7366    1.4070   19.0004 C   0  0  0  0  0  0  0  0  0  0  0  0
    3.7763    1.9062   19.0328 H   0  0  0  0  0  0  0  0  0  0  0  0
  1  2  1  0
  2  3  2  0
  3  4  1  0
  4  5  1  0
  4  6  2  0
  6  7  1  0
  7  8  1  1
  7  9  1  0
  7 10  1  0
 10 11  1  0
 10 12  1  0
 10 13  1  0
 13 14  2  0
 14 15  1  0
 14 16  1  0
 16 17  2  0
 17 18  1  0
 17 19  1  0
 19 20  1  0
 20 21  1  0
 21 22  1  0
 21 23  1  0
 21 24  1  0
 19 25  2  0
 25 26  1  0
  6 27  1  0
 27 28  1  0
 27 29  2  0
 29 30  1  0
 29  2  1  0
 25 13  1  0
M  END
>  <cnnaffinity>  (1) 
-4.78759

>  <filename>  (1) 
COc1cncc(C[C@@H](Br)c2cccnc2)c1

$$$$
