
     RDKit          3D

 35 37  0  0  0  0  0  0  0  0999 V2000
    4.9808    1.7293   17.0385 H   0  0  0  0  0  0  0  0  0  0  0  0
    5.4536    1.2165   17.8715 C   0  0  0  0  0  0  0  0  0  0  0  0
    6.6056    0.5776   17.6041 N   0  0  0  0  0  0  0  0  0  0  0  0
    7.2361   -0.0161   18.6288 C   0  0  0  0  0  0  0  0  0  0  0  0
    8.1632   -0.5377   18.3900 H   0  0  0  0  0  0  0  0  0  0  0  0
    6.7684   -0.0033   19.9770 C   0  0  0  0  0  0  0  0  0  0  0  0
    7.4817   -0.5241   21.0188 N   0  0  0  0  0  0  0  0  0  0  0  0
    7.0520   -0.8526   22.3633 C   0  0  0  0  0  0  0  0  0  0  0  0
    6.9435    0.0299   23.0105 H   0  0  0  0  0  0  0  0  0  0  0  0
    6.1305   -1.4532   22.4047 H   0  0  0  0  0  0  0  0  0  0  0  0
    8.3848   -1.6423   22.5225 C   0  0  0  0  0  0  0  0  0  0  0  0
    9.0777   -1.1136   23.1811 H   0  0  0  0  0  0  0  0  0  0  0  0
    8.3636   -3.0885   22.9872 C   0  0  0  0  0  0  0  0  0  0  0  0
    9.0496   -3.4073   23.9393 O   0  0  0  0  0  0  0  0  0  0  0  0
    7.4882   -4.1426   22.2626 C   0  0  0  0  0  0  0  0  0  0  0  0
    6.8708   -3.8022   21.1103 N   0  0  0  0  0  0  0  0  0  0  0  0
    6.1307   -4.7086   20.4877 C   0  0  0  0  0  0  0  0  0  0  0  0
    5.5255   -4.3988   19.3234 O   0  0  0  0  0  0  0  0  0  0  0  0
    5.4808   -3.0390   18.9188 C   0  0  0  0  0  0  0  0  0  0  0  0
    6.3738   -2.7375   18.3618 H   0  0  0  0  0  0  0  0  0  0  0  0
    4.6138   -2.9435   18.2696 H   0  0  0  0  0  0  0  0  0  0  0  0
    5.3443   -2.3854   19.7730 H   0  0  0  0  0  0  0  0  0  0  0  0
    5.9006   -6.0030   20.9787 C   0  0  0  0  0  0  0  0  0  0  0  0
    5.2359   -6.6479   20.4152 H   0  0  0  0  0  0  0  0  0  0  0  0
    6.5215   -6.3624   22.1640 C   0  0  0  0  0  0  0  0  0  0  0  0
    6.3674   -7.3525   22.5986 H   0  0  0  0  0  0  0  0  0  0  0  0
    7.3524   -5.4280   22.8087 C   0  0  0  0  0  0  0  0  0  0  0  0
    7.8844   -5.6831   23.7156 H   0  0  0  0  0  0  0  0  0  0  0  0
    8.6778   -1.3367   21.0267 C   0  0  0  0  0  0  0  0  0  0  0  0
    8.6005   -2.2018   20.3636 H   0  0  0  0  0  0  0  0  0  0  0  0
    9.6006   -0.7787   20.8148 H   0  0  0  0  0  0  0  0  0  0  0  0
    5.5255    0.6151   20.2108 C   0  0  0  0  0  0  0  0  0  0  0  0
    5.1143    0.6064   21.2203 H   0  0  0  0  0  0  0  0  0  0  0  0
    4.8740    1.2391   19.1464 C   0  0  0  0  0  0  0  0  0  0  0  0
    3.9379    1.7638   19.3055 H   0  0  0  0  0  0  0  0  0  0  0  0
  1  2  1  0
  2  3  2  0
  3  4  1  0
  4  5  1  0
  4  6  2  0
  6  7  1  0
  7  8  1  0
  8  9  1  0
  8 10  1  0
  8 11  1  0
 11 12  1  0
 11 13  1  0
 13 14  2  0
 13 15  1  0
 15 16  2  0
 16 17  1  0
 17 18  1  0
 18 19  1  0
 19 20  1  0
 19 21  1  0
 19 22  1  0
 17 23  2  0
 23 24  1  0
 23 25  1  0
 25 26  1  0
 25 27  2  0
 27 28  1  0
 11 29  1  0
 29 30  1  0
 29 31  1  0
  6 32  1  0
 32 33  1  0
 32 34  2  0
 34 35  1  0
 34  2  1  0
 29  7  1  0
 27 15  1  0
M  END
>  <cnnaffinity>  (1) 
-5.30702

>  <filename>  (1) 
COc1cccc(C(=O)C2CN(c3cccnc3)C2)n1

$$$$
