
     RDKit          3D

 40 42  0  0  0  0  0  0  0  0999 V2000
    4.9248    1.7901   16.9948 H   0  0  0  0  0  0  0  0  0  0  0  0
    5.4012    1.2891   17.8351 C   0  0  0  0  0  0  0  0  0  0  0  0
    6.5639    0.6726   17.5786 N   0  0  0  0  0  0  0  0  0  0  0  0
    7.1721    0.0543   18.5984 C   0  0  0  0  0  0  0  0  0  0  0  0
    8.1208   -0.4218   18.3485 H   0  0  0  0  0  0  0  0  0  0  0  0
    6.6670    0.0019   19.9124 C   0  0  0  0  0  0  0  0  0  0  0  0
    7.3978   -0.7081   21.0251 C   0  0  0  0  0  0  0  0  0  0  0  0
    8.3181   -1.1697   20.6493 H   0  0  0  0  0  0  0  0  0  0  0  0
    7.6352    0.1152   22.3312 C   0  0  0  0  0  0  0  0  0  0  0  0
    8.6662    0.1416   22.7006 H   0  0  0  0  0  0  0  0  0  0  0  0
    7.2508    1.1397   22.3268 H   0  0  0  0  0  0  0  0  0  0  0  0
    6.7722   -0.8298   23.0336 N   0  0  0  0  0  0  0  0  0  0  0  0
    6.3956   -1.0418   24.3303 C   0  0  0  0  0  0  0  0  0  0  0  0
    5.9527   -2.1284   24.6736 O   0  0  0  0  0  0  0  0  0  0  0  0
    6.6090    0.0816   25.3311 C   0  0  0  0  0  0  0  0  0  0  0  0
    7.2329   -0.1860   26.5636 C   0  0  0  0  0  0  0  0  0  0  0  0
    7.5439   -1.2045   26.7966 H   0  0  0  0  0  0  0  0  0  0  0  0
    7.4494    0.8149   27.4999 C   0  0  0  0  0  0  0  0  0  0  0  0
    7.9528    0.6231   28.4407 H   0  0  0  0  0  0  0  0  0  0  0  0
    7.0141    2.1220   27.2413 C   0  0  0  0  0  0  0  0  0  0  0  0
    7.2916    3.0247   28.2193 O   0  0  0  0  0  0  0  0  0  0  0  0
    6.9216    4.3842   28.0882 C   0  0  0  0  0  0  0  0  0  0  0  0
    7.3991    4.8570   27.2180 H   0  0  0  0  0  0  0  0  0  0  0  0
    5.8314    4.5044   28.0131 H   0  0  0  0  0  0  0  0  0  0  0  0
    7.2755    4.8705   29.0009 H   0  0  0  0  0  0  0  0  0  0  0  0
    6.3433    2.4121   26.0488 C   0  0  0  0  0  0  0  0  0  0  0  0
    5.9917    3.4182   25.8614 H   0  0  0  0  0  0  0  0  0  0  0  0
    6.1317    1.3887   25.1069 C   0  0  0  0  0  0  0  0  0  0  0  0
    5.4168    1.5679   23.9625 O   0  0  0  0  0  0  0  0  0  0  0  0
    4.9280    2.8448   23.5991 C   0  0  0  0  0  0  0  0  0  0  0  0
    4.1976    3.2288   24.3269 H   0  0  0  0  0  0  0  0  0  0  0  0
    4.4343    2.6880   22.6370 H   0  0  0  0  0  0  0  0  0  0  0  0
    5.7419    3.5757   23.4823 H   0  0  0  0  0  0  0  0  0  0  0  0
    6.5603   -1.7060   21.8887 C   0  0  0  0  0  0  0  0  0  0  0  0
    5.5142   -1.8428   21.5839 H   0  0  0  0  0  0  0  0  0  0  0  0
    6.9808   -2.7110   22.0092 H   0  0  0  0  0  0  0  0  0  0  0  0
    5.4464    0.6534   20.1535 C   0  0  0  0  0  0  0  0  0  0  0  0
    5.0174    0.6523   21.1595 H   0  0  0  0  0  0  0  0  0  0  0  0
    4.8072    1.3067   19.1007 C   0  0  0  0  0  0  0  0  0  0  0  0
    3.8760    1.8365   19.2494 H   0  0  0  0  0  0  0  0  0  0  0  0
  1  2  1  0
  2  3  2  0
  3  4  1  0
  4  5  1  0
  4  6  2  0
  6  7  1  0
  7  8  1  0
  7  9  1  0
  9 10  1  0
  9 11  1  0
  9 12  1  0
 12 13  1  0
 13 14  2  0
 13 15  1  0
 15 16  2  0
 16 17  1  0
 16 18  1  0
 18 19  1  0
 18 20  2  0
 20 21  1  0
 21 22  1  0
 22 23  1  0
 22 24  1  0
 22 25  1  0
 20 26  1  0
 26 27  1  0
 26 28  2  0
 28 29  1  0
 29 30  1  0
 30 31  1  0
 30 32  1  0
 30 33  1  0
 12 34  1  0
 34 35  1  0
 34 36  1  0
  6 37  1  0
 37 38  1  0
 37 39  2  0
 39 40  1  0
 39  2  1  0
 34  7  1  0
 28 15  1  0
M  END
>  <cnnaffinity>  (1) 
-4.79204

>  <filename>  (1) 
COc1ccc(C(=O)N2CC(c3cccnc3)C2)c(OC)c1

$$$$
