
     RDKit          3D

 38 40  0  0  0  0  0  0  0  0999 V2000
    4.9325    1.7902   16.9987 H   0  0  0  0  0  0  0  0  0  0  0  0
    5.3994    1.2916   17.8465 C   0  0  0  0  0  0  0  0  0  0  0  0
    6.5535    0.6606   17.5850 N   0  0  0  0  0  0  0  0  0  0  0  0
    7.1623    0.0348   18.5978 C   0  0  0  0  0  0  0  0  0  0  0  0
    8.1223   -0.4232   18.3773 H   0  0  0  0  0  0  0  0  0  0  0  0
    6.6410   -0.0249   19.9020 C   0  0  0  0  0  0  0  0  0  0  0  0
    7.3447   -0.7145   20.9491 N   0  0  0  0  0  0  0  0  0  0  0  0
    6.5955   -1.6120   21.6609 N   0  0  0  0  0  0  0  0  0  0  0  0
    7.1583   -2.2733   22.6507 C   0  0  0  0  0  0  0  0  0  0  0  0
    6.2979   -3.2679   23.3820 C   0  0  0  0  0  0  0  0  0  0  0  0
    5.4398   -4.1022   22.6570 C   0  0  0  0  0  0  0  0  0  0  0  0
    5.4108   -3.9793   21.5773 H   0  0  0  0  0  0  0  0  0  0  0  0
    4.6490   -5.0752   23.2707 C   0  0  0  0  0  0  0  0  0  0  0  0
    3.9912   -5.7075   22.6842 H   0  0  0  0  0  0  0  0  0  0  0  0
    4.6990   -5.2117   24.6626 C   0  0  0  0  0  0  0  0  0  0  0  0
    3.9668   -6.1096   25.3693 O   0  0  0  0  0  0  0  0  0  0  0  0
    3.0714   -6.9904   24.7150 C   0  0  0  0  0  0  0  0  0  0  0  0
    2.6305   -7.5824   25.5175 H   0  0  0  0  0  0  0  0  0  0  0  0
    3.5843   -7.6597   24.0086 H   0  0  0  0  0  0  0  0  0  0  0  0
    2.2736   -6.4555   24.1786 H   0  0  0  0  0  0  0  0  0  0  0  0
    5.5382   -4.3868   25.4276 C   0  0  0  0  0  0  0  0  0  0  0  0
    5.5554   -4.5196   26.5050 H   0  0  0  0  0  0  0  0  0  0  0  0
    6.3281   -3.4224   24.7974 C   0  0  0  0  0  0  0  0  0  0  0  0
    7.1585   -2.5915   25.4740 O   0  0  0  0  0  0  0  0  0  0  0  0
    7.2670   -2.6077   26.8847 C   0  0  0  0  0  0  0  0  0  0  0  0
    6.3136   -2.3840   27.3835 H   0  0  0  0  0  0  0  0  0  0  0  0
    7.6637   -3.5616   27.2591 H   0  0  0  0  0  0  0  0  0  0  0  0
    7.9796   -1.8126   27.1133 H   0  0  0  0  0  0  0  0  0  0  0  0
    8.5528   -2.0991   22.9651 C   0  0  0  0  0  0  0  0  0  0  0  0
    8.9585   -2.7086   23.7644 H   0  0  0  0  0  0  0  0  0  0  0  0
    9.3039   -1.2057   22.2669 C   0  0  0  0  0  0  0  0  0  0  0  0
   10.3517   -1.0041   22.4560 H   0  0  0  0  0  0  0  0  0  0  0  0
    8.7300   -0.4014   21.1980 C   0  0  0  0  0  0  0  0  0  0  0  0
    9.3312    0.4418   20.5605 O   0  0  0  0  0  0  0  0  0  0  0  0
    5.4311    0.6240   20.1673 C   0  0  0  0  0  0  0  0  0  0  0  0
    5.0221    0.5857   21.1758 H   0  0  0  0  0  0  0  0  0  0  0  0
    4.8095    1.3088   19.1158 C   0  0  0  0  0  0  0  0  0  0  0  0
    3.8802    1.8471   19.2584 H   0  0  0  0  0  0  0  0  0  0  0  0
  1  2  1  0
  2  3  2  0
  3  4  1  0
  4  5  1  0
  4  6  2  0
  6  7  1  0
  7  8  1  0
  8  9  2  0
  9 10  1  0
 10 11  2  0
 11 12  1  0
 11 13  1  0
 13 14  1  0
 13 15  2  0
 15 16  1  0
 16 17  1  0
 17 18  1  0
 17 19  1  0
 17 20  1  0
 15 21  1  0
 21 22  1  0
 21 23  2  0
 23 24  1  0
 24 25  1  0
 25 26  1  0
 25 27  1  0
 25 28  1  0
  9 29  1  0
 29 30  1  0
 29 31  2  0
 31 32  1  0
 31 33  1  0
 33 34  2  0
  6 35  1  0
 35 36  1  0
 35 37  2  0
 37 38  1  0
 37  2  1  0
 33  7  1  0
 23 10  1  0
M  END
>  <cnnaffinity>  (1) 
-5.43825

>  <filename>  (1) 
COc1ccc(-c2ccc(=O)n(-c3cccnc3)n2)c(OC)c1

$$$$
