
     RDKit          3D

 47 51  0  0  0  0  0  0  0  0999 V2000
   13.9681    5.9932   21.9741 C   0  0  0  0  0  0  0  0  0  0  0  0
   12.7019    5.4581   22.3098 O   0  0  0  0  0  0  0  0  0  0  0  0
   12.5683    4.1134   22.4465 C   0  0  0  0  0  0  0  0  0  0  0  0
   13.6352    3.2584   22.7295 C   0  0  0  0  0  0  0  0  0  0  0  0
   13.4236    1.8820   22.8300 C   0  0  0  0  0  0  0  0  0  0  0  0
   12.1469    1.3538   22.6764 C   0  0  0  0  0  0  0  0  0  0  0  0
   11.0699    2.2197   22.4335 C   0  0  0  0  0  0  0  0  0  0  0  0
    9.7545    1.6686   22.3185 N   0  0  0  0  0  0  0  0  0  0  0  0
    9.5086    0.5782   21.5404 N   0  0  0  0  0  0  0  0  0  0  0  0
    8.2074    0.4130   21.6561 C   0  0  0  0  0  0  0  0  0  0  0  0
    7.4554   -0.6516   20.8983 C   0  0  0  0  0  0  0  0  0  0  0  0
    6.6376   -0.0831   19.7375 C   0  0  0  0  0  0  0  0  0  0  0  0
    5.4198    0.5657   19.9911 C   0  0  0  0  0  0  0  0  0  0  0  0
    4.7940    1.2706   18.9609 C   0  0  0  0  0  0  0  0  0  0  0  0
    5.3903    1.2788   17.6984 C   0  0  0  0  0  0  0  0  0  0  0  0
    6.5192    0.6121   17.4142 N   0  0  0  0  0  0  0  0  0  0  0  0
    7.1139   -0.0506   18.4147 C   0  0  0  0  0  0  0  0  0  0  0  0
    8.0374   -0.5695   18.1537 H   0  0  0  0  0  0  0  0  0  0  0  0
    4.9484    1.8473   16.8806 H   0  0  0  0  0  0  0  0  0  0  0  0
    3.8829    1.8333   19.1274 H   0  0  0  0  0  0  0  0  0  0  0  0
    4.9949    0.5427   20.9961 H   0  0  0  0  0  0  0  0  0  0  0  0
    6.7896   -1.1426   21.6159 H   0  0  0  0  0  0  0  0  0  0  0  0
    8.1774   -1.4072   20.5687 H   0  0  0  0  0  0  0  0  0  0  0  0
    7.5978    1.3007   22.4765 N   0  0  0  0  0  0  0  0  0  0  0  0
    8.5816    2.0779   22.8958 C   0  0  0  0  0  0  0  0  0  0  0  0
    8.4491    3.1404   23.8835 C   0  0  0  0  0  0  0  0  0  0  0  0
    9.4310    3.3402   24.8572 C   0  0  0  0  0  0  0  0  0  0  0  0
    9.3712    4.2896   25.8083 N   0  0  0  0  0  0  0  0  0  0  0  0
    8.3099    5.0893   25.8629 C   0  0  0  0  0  0  0  0  0  0  0  0
    7.2440    4.9524   24.9541 C   0  0  0  0  0  0  0  0  0  0  0  0
    7.2978    3.9607   23.9478 C   0  0  0  0  0  0  0  0  0  0  0  0
    6.0820    4.0783   23.1995 C   0  0  0  0  0  0  0  0  0  0  0  0
    5.3539    5.0902   23.7566 C   0  0  0  0  0  0  0  0  0  0  0  0
    6.0508    5.6245   24.8180 N   0  0  0  0  0  0  0  0  0  0  0  0
    5.7280    6.3827   25.4005 H   0  0  0  0  0  0  0  0  0  0  0  0
    4.3843    5.4910   23.4958 H   0  0  0  0  0  0  0  0  0  0  0  0
    5.8254    3.4442   22.3619 H   0  0  0  0  0  0  0  0  0  0  0  0
    8.2968    5.8467   26.6450 H   0  0  0  0  0  0  0  0  0  0  0  0
   10.3244    2.7162   24.8790 H   0  0  0  0  0  0  0  0  0  0  0  0
   11.2719    3.5966   22.3395 C   0  0  0  0  0  0  0  0  0  0  0  0
   10.4374    4.2684   22.2093 H   0  0  0  0  0  0  0  0  0  0  0  0
   11.9476    0.2912   22.7441 H   0  0  0  0  0  0  0  0  0  0  0  0
   14.2808    1.2302   22.9725 H   0  0  0  0  0  0  0  0  0  0  0  0
   14.6191    3.6846   22.8478 H   0  0  0  0  0  0  0  0  0  0  0  0
   14.3937    5.5118   21.0845 H   0  0  0  0  0  0  0  0  0  0  0  0
   14.6885    5.8750   22.7885 H   0  0  0  0  0  0  0  0  0  0  0  0
   13.7995    7.0543   21.7896 H   0  0  0  0  0  0  0  0  0  0  0  0
  1  2  1  0
  2  3  1  0
  3  4  2  0
  4  5  1  0
  5  6  2  0
  6  7  1  0
  7  8  1  0
  8  9  1  0
  9 10  2  0
 10 11  1  0
 11 12  1  0
 12 13  2  0
 13 14  1  0
 14 15  2  0
 15 16  1  0
 16 17  2  0
 17 18  1  0
 15 19  1  0
 14 20  1  0
 13 21  1  0
 11 22  1  0
 11 23  1  0
 10 24  1  0
 24 25  2  0
 25 26  1  0
 26 27  2  0
 27 28  1  0
 28 29  2  0
 29 30  1  0
 30 31  2  0
 31 32  1  0
 32 33  2  0
 33 34  1  0
 34 35  1  0
 33 36  1  0
 32 37  1  0
 29 38  1  0
 27 39  1  0
  7 40  2  0
 40 41  1  0
  6 42  1  0
  5 43  1  0
  4 44  1  0
  1 45  1  0
  1 46  1  0
  1 47  1  0
 40  3  1  0
 25  8  1  0
 31 26  1  0
 17 12  1  0
 34 30  1  0
M  END
>  <cnnaffinity>  (1) 
-5.75689

>  <filename>  (1) 
COc1cccc(-n2nc(Cc3cccnc3)nc2-c2cncc3[nH]ccc23)c1

$$$$
