
     RDKit          3D

 31 32  0  0  0  0  0  0  0  0999 V2000
    5.6800   -1.5934   21.7344 H   0  0  0  0  0  0  0  0  0  0  0  0
    6.7644   -1.5102   21.8328 C   0  0  0  0  0  0  0  0  0  0  0  0
    7.4191   -0.7381   20.9532 C   0  0  0  0  0  0  0  0  0  0  0  0
    6.6656   -0.0421   19.8681 C   0  0  0  0  0  0  0  0  0  0  0  0
    7.1877    0.0390   18.5651 C   0  0  0  0  0  0  0  0  0  0  0  0
    8.1341   -0.4506   18.3384 H   0  0  0  0  0  0  0  0  0  0  0  0
    6.6001    0.6773   17.5464 N   0  0  0  0  0  0  0  0  0  0  0  0
    5.4396    1.3002   17.7998 C   0  0  0  0  0  0  0  0  0  0  0  0
    4.9807    1.8189   16.9604 H   0  0  0  0  0  0  0  0  0  0  0  0
    4.8228    1.2913   19.0568 C   0  0  0  0  0  0  0  0  0  0  0  0
    3.8905    1.8239   19.2028 H   0  0  0  0  0  0  0  0  0  0  0  0
    5.4385    0.6050   20.1031 C   0  0  0  0  0  0  0  0  0  0  0  0
    5.0080    0.5985   21.1049 H   0  0  0  0  0  0  0  0  0  0  0  0
    8.9018   -0.4707   21.0552 C   0  0  0  0  0  0  0  0  0  0  0  0
    9.1292    0.5304   20.6744 H   0  0  0  0  0  0  0  0  0  0  0  0
    9.2283   -0.5342   22.1003 H   0  0  0  0  0  0  0  0  0  0  0  0
    9.4849   -1.1944   20.4711 H   0  0  0  0  0  0  0  0  0  0  0  0
    7.3164   -2.2889   22.9659 C   0  0  0  0  0  0  0  0  0  0  0  0
    6.5623   -2.3530   24.1651 C   0  0  0  0  0  0  0  0  0  0  0  0
    5.5955   -1.8667   24.2361 H   0  0  0  0  0  0  0  0  0  0  0  0
    6.9489   -2.9911   25.2653 N   0  0  0  0  0  0  0  0  0  0  0  0
    8.1263   -3.6385   25.2345 C   0  0  0  0  0  0  0  0  0  0  0  0
    8.4054   -4.1929   26.1279 H   0  0  0  0  0  0  0  0  0  0  0  0
    8.9619   -3.6562   24.1018 C   0  0  0  0  0  0  0  0  0  0  0  0
   10.1804   -4.2439   24.0057 O   0  0  0  0  0  0  0  0  0  0  0  0
   10.6706   -5.0052   25.0952 C   0  0  0  0  0  0  0  0  0  0  0  0
   11.6993   -5.2780   24.8484 H   0  0  0  0  0  0  0  0  0  0  0  0
   10.6538   -4.4155   26.0210 H   0  0  0  0  0  0  0  0  0  0  0  0
   10.0610   -5.9086   25.2237 H   0  0  0  0  0  0  0  0  0  0  0  0
    8.5317   -2.9860   22.9473 C   0  0  0  0  0  0  0  0  0  0  0  0
    9.1662   -3.0564   22.0640 H   0  0  0  0  0  0  0  0  0  0  0  0
  1  2  1  0
  2  3  2  3
  3  4  1  0
  4  5  2  0
  5  6  1  0
  5  7  1  0
  7  8  2  0
  8  9  1  0
  8 10  1  0
 10 11  1  0
 10 12  2  0
 12 13  1  0
  3 14  1  0
 14 15  1  0
 14 16  1  0
 14 17  1  0
  2 18  1  0
 18 19  2  0
 19 20  1  0
 19 21  1  0
 21 22  2  0
 22 23  1  0
 22 24  1  0
 24 25  1  0
 25 26  1  0
 26 27  1  0
 26 28  1  0
 26 29  1  0
 24 30  2  0
 30 31  1  0
 12  4  1  0
 30 18  1  0
M  END
>  <cnnaffinity>  (1) 
-4.97712

>  <filename>  (1) 
COc1cncc(C=C(C)c2cccnc2)c1

$$$$
