
     RDKit          3D

 42 44  0  0  0  0  0  0  0  0999 V2000
   10.3370   -5.2570   25.9035 C   0  0  0  0  0  0  0  0  0  0  0  0
   10.0301   -4.4714   24.7519 O   0  0  0  0  0  0  0  0  0  0  0  0
    9.2014   -4.9288   23.7945 C   0  0  0  0  0  0  0  0  0  0  0  0
    8.7580   -6.1782   23.8169 N   0  0  0  0  0  0  0  0  0  0  0  0
    7.9403   -6.5626   22.8200 C   0  0  0  0  0  0  0  0  0  0  0  0
    7.5241   -5.7237   21.7994 C   0  0  0  0  0  0  0  0  0  0  0  0
    8.0301   -4.4210   21.7612 C   0  0  0  0  0  0  0  0  0  0  0  0
    8.8853   -3.9876   22.7639 C   0  0  0  0  0  0  0  0  0  0  0  0
    9.4980   -2.5832   22.6853 C   0  0  0  0  0  0  0  0  0  0  0  0
    8.5095   -1.5306   22.2751 C   0  0  0  0  0  0  0  0  0  0  0  0
    8.3279   -1.0631   21.0551 N   0  0  0  0  0  0  0  0  0  0  0  0
    7.1973   -0.3146   21.1791 C   0  0  0  0  0  0  0  0  0  0  0  0
    6.5640    0.2858   20.0083 C   0  0  0  0  0  0  0  0  0  0  0  0
    5.3223    0.9445   20.0485 C   0  0  0  0  0  0  0  0  0  0  0  0
    4.8123    1.4340   18.8508 C   0  0  0  0  0  0  0  0  0  0  0  0
    5.5471    1.2556   17.6724 C   0  0  0  0  0  0  0  0  0  0  0  0
    6.7322    0.6245   17.6256 N   0  0  0  0  0  0  0  0  0  0  0  0
    7.2200    0.1579   18.7778 C   0  0  0  0  0  0  0  0  0  0  0  0
    8.1869   -0.3408   18.7321 H   0  0  0  0  0  0  0  0  0  0  0  0
    5.1731    1.6310   16.7245 H   0  0  0  0  0  0  0  0  0  0  0  0
    3.8648    1.9625   18.8131 H   0  0  0  0  0  0  0  0  0  0  0  0
    4.7940    1.0659   20.9970 H   0  0  0  0  0  0  0  0  0  0  0  0
    6.6975   -0.2797   22.3986 N   0  0  0  0  0  0  0  0  0  0  0  0
    7.5489   -1.0635   23.1023 N   0  0  0  0  0  0  0  0  0  0  0  0
    7.2680   -1.4238   24.4873 C   0  0  0  0  0  0  0  0  0  0  0  0
    6.2550   -2.5796   24.6014 C   0  0  0  0  0  0  0  0  0  0  0  0
    6.2984   -3.3320   25.9096 C   0  0  0  0  0  0  0  0  0  0  0  0
    5.8432   -2.5937   26.9376 F   0  0  0  0  0  0  0  0  0  0  0  0
    5.5412   -4.4433   25.8352 F   0  0  0  0  0  0  0  0  0  0  0  0
    7.5486   -3.7237   26.2316 F   0  0  0  0  0  0  0  0  0  0  0  0
    6.4289   -3.3207   23.8184 H   0  0  0  0  0  0  0  0  0  0  0  0
    5.2319   -2.2173   24.4881 H   0  0  0  0  0  0  0  0  0  0  0  0
    8.2167   -1.7036   24.9561 H   0  0  0  0  0  0  0  0  0  0  0  0
    6.8990   -0.5247   24.9833 H   0  0  0  0  0  0  0  0  0  0  0  0
    9.9747   -2.3202   23.6324 H   0  0  0  0  0  0  0  0  0  0  0  0
   10.2861   -2.5736   21.9272 H   0  0  0  0  0  0  0  0  0  0  0  0
    7.7660   -3.7551   20.9360 H   0  0  0  0  0  0  0  0  0  0  0  0
    6.8301   -6.0612   21.0415 H   0  0  0  0  0  0  0  0  0  0  0  0
    7.6106   -7.5945   22.8288 H   0  0  0  0  0  0  0  0  0  0  0  0
    9.4298   -5.6191   26.3926 H   0  0  0  0  0  0  0  0  0  0  0  0
   10.9697   -6.1150   25.6588 H   0  0  0  0  0  0  0  0  0  0  0  0
   10.8740   -4.5952   26.5836 H   0  0  0  0  0  0  0  0  0  0  0  0
  1  2  1  0
  2  3  1  0
  3  4  2  0
  4  5  1  0
  5  6  2  0
  6  7  1  0
  7  8  2  0
  8  9  1  0
  9 10  1  0
 10 11  2  0
 11 12  1  0
 12 13  1  0
 13 14  2  0
 14 15  1  0
 15 16  2  0
 16 17  1  0
 17 18  2  0
 18 19  1  0
 16 20  1  0
 15 21  1  0
 14 22  1  0
 12 23  2  0
 23 24  1  0
 24 25  1  0
 25 26  1  0
 26 27  1  0
 27 28  1  0
 27 29  1  0
 27 30  1  0
 26 31  1  0
 26 32  1  0
 25 33  1  0
 25 34  1  0
  9 35  1  0
  9 36  1  0
  7 37  1  0
  6 38  1  0
  5 39  1  0
  1 40  1  0
  1 41  1  0
  1 42  1  0
  8  3  1  0
 24 10  1  0
 18 13  1  0
M  END
>  <cnnaffinity>  (1) 
-6.13546

>  <filename>  (1) 
COc1ncccc1Cc1nc(-c2cccnc2)nn1CCC(F)(F)F

$$$$
