
     RDKit          3D

 32 33  0  0  0  0  0  0  0  0999 V2000
    5.1028    1.7274   17.0699 H   0  0  0  0  0  0  0  0  0  0  0  0
    5.5194    1.2445   17.9537 C   0  0  0  0  0  0  0  0  0  0  0  0
    6.6693    0.5815   17.7753 N   0  0  0  0  0  0  0  0  0  0  0  0
    7.2092   -0.0356   18.8216 C   0  0  0  0  0  0  0  0  0  0  0  0
    8.1437   -0.5608   18.6206 H   0  0  0  0  0  0  0  0  0  0  0  0
    6.6081   -0.0149   20.0693 C   0  0  0  0  0  0  0  0  0  0  0  0
    7.4957   -0.9084   21.2609 S   0  0  0  0  0  0  0  0  0  0  0  0
    6.5887   -1.2837   22.3175 O   0  0  0  0  0  0  0  0  0  0  0  0
    8.3418   -1.8773   20.5929 O   0  0  0  0  0  0  0  0  0  0  0  0
    8.5442    0.2633   21.8242 N   0  0  0  0  0  0  0  0  0  0  0  0
    9.7659    0.4578   21.0464 C   0  0  0  0  0  0  0  0  0  0  0  0
   10.4754    1.0570   21.6275 H   0  0  0  0  0  0  0  0  0  0  0  0
   10.2320   -0.5115   20.8575 H   0  0  0  0  0  0  0  0  0  0  0  0
    9.5832    0.9488   20.0815 H   0  0  0  0  0  0  0  0  0  0  0  0
    7.9371    1.4527   22.4068 C   0  0  0  0  0  0  0  0  0  0  0  0
    7.4311    2.1008   21.6766 H   0  0  0  0  0  0  0  0  0  0  0  0
    8.7774    2.0177   22.8366 H   0  0  0  0  0  0  0  0  0  0  0  0
    7.0529    1.1378   23.4995 N   0  0  0  0  0  0  0  0  0  0  0  0
    5.6994    1.4510   23.6799 N   0  0  0  0  0  0  0  0  0  0  0  0
    5.4437    0.9169   24.8207 C   0  0  0  0  0  0  0  0  0  0  0  0
    4.2756    0.9874   25.4303 O   0  0  0  0  0  0  0  0  0  0  0  0
    4.1190    0.4488   26.7521 C   0  0  0  0  0  0  0  0  0  0  0  0
    4.7393    0.9842   27.4825 H   0  0  0  0  0  0  0  0  0  0  0  0
    3.0644    0.6051   26.9813 H   0  0  0  0  0  0  0  0  0  0  0  0
    4.3577   -0.6210   26.7782 H   0  0  0  0  0  0  0  0  0  0  0  0
    6.4706    0.2865   25.4193 O   0  0  0  0  0  0  0  0  0  0  0  0
    7.5386    0.4299   24.5472 C   0  0  0  0  0  0  0  0  0  0  0  0
    8.6485    0.0610   24.7951 O   0  0  0  0  0  0  0  0  0  0  0  0
    5.4236    0.6982   20.3024 C   0  0  0  0  0  0  0  0  0  0  0  0
    4.9788    0.8202   21.3003 H   0  0  0  0  0  0  0  0  0  0  0  0
    4.8624    1.3157   19.1846 C   0  0  0  0  0  0  0  0  0  0  0  0
    3.9417    1.8800   19.2484 H   0  0  0  0  0  0  0  0  0  0  0  0
  1  2  1  0
  2  3  2  0
  3  4  1  0
  4  5  1  0
  4  6  2  0
  6  7  1  0
  7  8  2  0
  7  9  2  0
  7 10  1  0
 10 11  1  0
 11 12  1  0
 11 13  1  0
 11 14  1  0
 10 15  1  0
 15 16  1  0
 15 17  1  0
 15 18  1  0
 18 19  1  0
 19 20  2  0
 20 21  1  0
 21 22  1  0
 22 23  1  0
 22 24  1  0
 22 25  1  0
 20 26  1  0
 26 27  1  0
 27 28  2  0
  6 29  1  0
 29 30  1  0
 29 31  2  0
 31 32  1  0
 31  2  1  0
 27 18  1  0
M  END
>  <cnnaffinity>  (1) 
-4.66397

>  <filename>  (1) 
COc1nn(CN(C)S(=O)(=O)c2cccnc2)c(=O)o1

$$$$
