
     RDKit          3D

 33 35  0  0  0  0  0  0  0  0999 V2000
    4.9470    1.8530   17.0250 H   0  0  0  0  0  0  0  0  0  0  0  0
    5.4143    1.3031   17.8376 C   0  0  0  0  0  0  0  0  0  0  0  0
    6.5632    0.6756   17.5484 N   0  0  0  0  0  0  0  0  0  0  0  0
    7.1798    0.0174   18.5457 C   0  0  0  0  0  0  0  0  0  0  0  0
    8.1013   -0.4981   18.2856 H   0  0  0  0  0  0  0  0  0  0  0  0
    6.6865   -0.0590   19.8787 C   0  0  0  0  0  0  0  0  0  0  0  0
    7.3463   -0.7309   20.9313 N   0  0  0  0  0  0  0  0  0  0  0  0
    6.8719   -1.4895   21.4128 H   0  0  0  0  0  0  0  0  0  0  0  0
    8.7215   -0.7799   21.1365 C   0  0  0  0  0  0  0  0  0  0  0  0
    9.7317    0.1395   20.7655 C   0  0  0  0  0  0  0  0  0  0  0  0
    9.6083    1.0769   20.2417 H   0  0  0  0  0  0  0  0  0  0  0  0
   10.9372   -0.2834   21.1281 N   0  0  0  0  0  0  0  0  0  0  0  0
   10.7225   -1.4411   21.7665 N   0  0  0  0  0  0  0  0  0  0  0  0
   11.5402   -2.0160   21.9697 H   0  0  0  0  0  0  0  0  0  0  0  0
    9.3925   -1.7855   21.8250 C   0  0  0  0  0  0  0  0  0  0  0  0
    8.8713   -2.9692   22.5177 C   0  0  0  0  0  0  0  0  0  0  0  0
    7.6133   -3.3722   22.2189 N   0  0  0  0  0  0  0  0  0  0  0  0
    7.2212   -4.5279   22.7404 C   0  0  0  0  0  0  0  0  0  0  0  0
    6.0338   -5.0648   22.4142 O   0  0  0  0  0  0  0  0  0  0  0  0
    5.1733   -4.3505   21.5516 C   0  0  0  0  0  0  0  0  0  0  0  0
    5.0259   -3.3203   21.8956 H   0  0  0  0  0  0  0  0  0  0  0  0
    4.2314   -4.8934   21.6040 H   0  0  0  0  0  0  0  0  0  0  0  0
    5.5744   -4.3378   20.5304 H   0  0  0  0  0  0  0  0  0  0  0  0
    7.9648   -5.3004   23.6465 C   0  0  0  0  0  0  0  0  0  0  0  0
    7.5348   -6.2194   24.0137 H   0  0  0  0  0  0  0  0  0  0  0  0
    9.2158   -4.8465   24.0118 C   0  0  0  0  0  0  0  0  0  0  0  0
    9.8385   -5.4031   24.7149 H   0  0  0  0  0  0  0  0  0  0  0  0
    9.6819   -3.6626   23.4296 C   0  0  0  0  0  0  0  0  0  0  0  0
   10.6694   -3.3000   23.6828 H   0  0  0  0  0  0  0  0  0  0  0  0
    5.4647    0.5787   20.1395 C   0  0  0  0  0  0  0  0  0  0  0  0
    5.0548    0.5502   21.1484 H   0  0  0  0  0  0  0  0  0  0  0  0
    4.8250    1.2739   19.1066 C   0  0  0  0  0  0  0  0  0  0  0  0
    3.8940    1.8005   19.2781 H   0  0  0  0  0  0  0  0  0  0  0  0
  1  2  1  0
  2  3  2  0
  3  4  1  0
  4  5  1  0
  4  6  2  0
  6  7  1  0
  7  8  1  0
  7  9  1  0
  9 10  1  0
 10 11  1  0
 10 12  2  0
 12 13  1  0
 13 14  1  0
 13 15  1  0
 15 16  1  0
 16 17  2  0
 17 18  1  0
 18 19  1  0
 19 20  1  0
 20 21  1  0
 20 22  1  0
 20 23  1  0
 18 24  2  0
 24 25  1  0
 24 26  1  0
 26 27  1  0
 26 28  2  0
 28 29  1  0
  6 30  1  0
 30 31  1  0
 30 32  2  0
 32 33  1  0
 32  2  1  0
 15  9  2  0
 28 16  1  0
M  END
>  <cnnaffinity>  (1) 
-5.7439

>  <filename>  (1) 
COc1cccc(-c2[nH]ncc2Nc2cccnc2)n1

$$$$
