
     RDKit          3D

 40 42  0  0  0  0  0  0  0  0999 V2000
    4.9666    1.7608   17.0079 H   0  0  0  0  0  0  0  0  0  0  0  0
    5.4217    1.2732   17.8684 C   0  0  0  0  0  0  0  0  0  0  0  0
    6.5847    0.6445   17.6418 N   0  0  0  0  0  0  0  0  0  0  0  0
    7.1819    0.0461   18.6778 C   0  0  0  0  0  0  0  0  0  0  0  0
    8.1177   -0.4632   18.4456 H   0  0  0  0  0  0  0  0  0  0  0  0
    6.6661    0.0524   19.9842 C   0  0  0  0  0  0  0  0  0  0  0  0
    7.4457   -0.6683   21.0452 C   0  0  0  0  0  0  0  0  0  0  0  0
    8.0585   -1.6954   20.7956 O   0  0  0  0  0  0  0  0  0  0  0  0
    7.4664   -0.1205   22.2913 N   0  0  0  0  0  0  0  0  0  0  0  0
    8.1006   -0.6636   23.4834 C   0  0  0  0  0  0  0  0  0  0  0  0
    7.6182   -1.5712   23.8606 H   0  0  0  0  0  0  0  0  0  0  0  0
    9.1601   -0.9021   23.3440 H   0  0  0  0  0  0  0  0  0  0  0  0
    7.7823    0.6755   24.2256 C   0  0  0  0  0  0  0  0  0  0  0  0
    8.7044    1.2504   24.3974 H   0  0  0  0  0  0  0  0  0  0  0  0
    6.9465    0.6342   25.5036 C   0  0  0  0  0  0  0  0  0  0  0  0
    7.0316   -0.4481   26.3859 C   0  0  0  0  0  0  0  0  0  0  0  0
    7.7259   -1.2530   26.1560 H   0  0  0  0  0  0  0  0  0  0  0  0
    6.2582   -0.5295   27.5483 C   0  0  0  0  0  0  0  0  0  0  0  0
    6.3234   -1.3975   28.1886 H   0  0  0  0  0  0  0  0  0  0  0  0
    5.3788    0.5080   27.8671 C   0  0  0  0  0  0  0  0  0  0  0  0
    4.5589    0.5244   28.9507 O   0  0  0  0  0  0  0  0  0  0  0  0
    4.5490   -0.5592   29.8654 C   0  0  0  0  0  0  0  0  0  0  0  0
    5.5307   -0.7074   30.3389 H   0  0  0  0  0  0  0  0  0  0  0  0
    4.2408   -1.4988   29.3839 H   0  0  0  0  0  0  0  0  0  0  0  0
    3.8148   -0.2803   30.6256 H   0  0  0  0  0  0  0  0  0  0  0  0
    5.3092    1.6406   27.0398 C   0  0  0  0  0  0  0  0  0  0  0  0
    4.6289    2.4378   27.3165 H   0  0  0  0  0  0  0  0  0  0  0  0
    6.0968    1.7144   25.8900 C   0  0  0  0  0  0  0  0  0  0  0  0
    6.1266    2.8044   25.0717 O   0  0  0  0  0  0  0  0  0  0  0  0
    5.3297    3.9412   25.3297 C   0  0  0  0  0  0  0  0  0  0  0  0
    4.2548    3.7085   25.3040 H   0  0  0  0  0  0  0  0  0  0  0  0
    5.5783    4.4077   26.2940 H   0  0  0  0  0  0  0  0  0  0  0  0
    5.5731    4.6305   24.5177 H   0  0  0  0  0  0  0  0  0  0  0  0
    7.0911    1.1513   22.9111 C   0  0  0  0  0  0  0  0  0  0  0  0
    7.5194    2.0348   22.4289 H   0  0  0  0  0  0  0  0  0  0  0  0
    6.0141    1.2974   22.9985 H   0  0  0  0  0  0  0  0  0  0  0  0
    5.4318    0.6881   20.1964 C   0  0  0  0  0  0  0  0  0  0  0  0
    4.9490    0.6772   21.1744 H   0  0  0  0  0  0  0  0  0  0  0  0
    4.8062    1.3146   19.1228 C   0  0  0  0  0  0  0  0  0  0  0  0
    3.8633    1.8360   19.2423 H   0  0  0  0  0  0  0  0  0  0  0  0
  1  2  1  0
  2  3  2  0
  3  4  1  0
  4  5  1  0
  4  6  2  0
  6  7  1  0
  7  8  2  0
  7  9  1  0
  9 10  1  0
 10 11  1  0
 10 12  1  0
 10 13  1  0
 13 14  1  0
 13 15  1  0
 15 16  2  0
 16 17  1  0
 16 18  1  0
 18 19  1  0
 18 20  2  0
 20 21  1  0
 21 22  1  0
 22 23  1  0
 22 24  1  0
 22 25  1  0
 20 26  1  0
 26 27  1  0
 26 28  2  0
 28 29  1  0
 29 30  1  0
 30 31  1  0
 30 32  1  0
 30 33  1  0
 13 34  1  0
 34 35  1  0
 34 36  1  0
  6 37  1  0
 37 38  1  0
 37 39  2  0
 39 40  1  0
 39  2  1  0
 34  9  1  0
 28 15  1  0
M  END
>  <cnnaffinity>  (1) 
-4.80819

>  <filename>  (1) 
COc1ccc(C2CN(C(=O)c3cccnc3)C2)c(OC)c1

$$$$
