
     RDKit          3D

 38 40  0  0  0  0  0  0  0  0999 V2000
   10.9302   -4.7436   24.9982 C   0  0  0  0  0  0  0  0  0  0  0  0
   11.7056   -3.9346   24.1097 O   0  0  0  0  0  0  0  0  0  0  0  0
   11.0797   -3.2044   23.1864 C   0  0  0  0  0  0  0  0  0  0  0  0
   11.8431   -2.3156   22.4192 C   0  0  0  0  0  0  0  0  0  0  0  0
   11.1397   -1.6402   21.4600 C   0  0  0  0  0  0  0  0  0  0  0  0
    9.8339   -1.8057   21.2733 N   0  0  0  0  0  0  0  0  0  0  0  0
    9.2166   -2.6341   22.1101 C   0  0  0  0  0  0  0  0  0  0  0  0
    7.8831   -2.7613   22.0271 N   0  0  0  0  0  0  0  0  0  0  0  0
    7.1305   -3.7458   22.8003 C   0  0  0  0  0  0  0  0  0  0  0  0
    5.8464   -3.9202   21.9825 C   0  0  0  0  0  0  0  0  0  0  0  0
    5.7152   -2.6373   21.1522 C   0  0  0  0  0  0  0  0  0  0  0  0
    7.1220   -2.0551   21.0127 C   0  0  0  0  0  0  0  0  0  0  0  0
    7.2028   -0.5176   21.1402 C   0  0  0  0  0  0  0  0  0  0  0  0
    6.5447    0.1955   19.9797 C   0  0  0  0  0  0  0  0  0  0  0  0
    5.3104    0.8401   20.1173 C   0  0  0  0  0  0  0  0  0  0  0  0
    4.7128    1.4187   18.9932 C   0  0  0  0  0  0  0  0  0  0  0  0
    5.3746    1.3457   17.7664 C   0  0  0  0  0  0  0  0  0  0  0  0
    6.5613    0.7390   17.6052 N   0  0  0  0  0  0  0  0  0  0  0  0
    7.1227    0.1944   18.6908 C   0  0  0  0  0  0  0  0  0  0  0  0
    8.0951   -0.2758   18.5246 H   0  0  0  0  0  0  0  0  0  0  0  0
    4.9438    1.7967   16.8734 H   0  0  0  0  0  0  0  0  0  0  0  0
    3.7640    1.9395   19.0636 H   0  0  0  0  0  0  0  0  0  0  0  0
    4.8413    0.8994   21.1019 H   0  0  0  0  0  0  0  0  0  0  0  0
    8.2617   -0.2547   21.1699 H   0  0  0  0  0  0  0  0  0  0  0  0
    6.7673   -0.2205   22.1043 H   0  0  0  0  0  0  0  0  0  0  0  0
    7.5161   -2.2836   20.0215 H   0  0  0  0  0  0  0  0  0  0  0  0
    5.0823   -1.9051   21.6480 H   0  0  0  0  0  0  0  0  0  0  0  0
    5.2764   -2.8273   20.1721 H   0  0  0  0  0  0  0  0  0  0  0  0
    5.9305   -4.7912   21.3265 H   0  0  0  0  0  0  0  0  0  0  0  0
    4.9809   -4.0891   22.6260 H   0  0  0  0  0  0  0  0  0  0  0  0
    6.9362   -3.3901   23.8250 H   0  0  0  0  0  0  0  0  0  0  0  0
    7.7011   -4.6783   22.8965 H   0  0  0  0  0  0  0  0  0  0  0  0
    9.7943   -3.3709   23.0513 N   0  0  0  0  0  0  0  0  0  0  0  0
   11.6387   -0.9138   20.8123 H   0  0  0  0  0  0  0  0  0  0  0  0
   12.8974   -2.1757   22.5711 H   0  0  0  0  0  0  0  0  0  0  0  0
   10.3369   -4.0985   25.6532 H   0  0  0  0  0  0  0  0  0  0  0  0
   10.2514   -5.4035   24.4447 H   0  0  0  0  0  0  0  0  0  0  0  0
   11.6444   -5.3194   25.5851 H   0  0  0  0  0  0  0  0  0  0  0  0
  1  2  1  0
  2  3  1  0
  3  4  2  0
  4  5  1  0
  5  6  2  0
  6  7  1  0
  7  8  1  0
  8  9  1  0
  9 10  1  0
 10 11  1  0
 11 12  1  0
 12 13  1  0
 13 14  1  0
 14 15  2  0
 15 16  1  0
 16 17  2  0
 17 18  1  0
 18 19  2  0
 19 20  1  0
 17 21  1  0
 16 22  1  0
 15 23  1  0
 13 24  1  0
 13 25  1  0
 12 26  1  0
 11 27  1  0
 11 28  1  0
 10 29  1  0
 10 30  1  0
  9 31  1  0
  9 32  1  0
  7 33  2  0
  5 34  1  0
  4 35  1  0
  1 36  1  0
  1 37  1  0
  1 38  1  0
 33  3  1  0
 12  8  1  0
 19 14  1  0
M  END
>  <cnnaffinity>  (1) 
-5.06928

>  <filename>  (1) 
COc1ccnc(N2CCCC2Cc2cccnc2)n1

$$$$
