
     RDKit          3D

 40 42  0  0  0  0  0  0  0  0999 V2000
    6.0167   -2.4620   21.1371 H   0  0  0  0  0  0  0  0  0  0  0  0
    6.5814   -1.7351   21.7122 C   0  0  0  0  0  0  0  0  0  0  0  0
    6.6120   -1.6271   23.0476 C   0  0  0  0  0  0  0  0  0  0  0  0
    5.8551   -2.4596   24.0186 C   0  0  0  0  0  0  0  0  0  0  0  0
    6.1673   -2.4250   25.3886 C   0  0  0  0  0  0  0  0  0  0  0  0
    6.9791   -1.7965   25.7391 H   0  0  0  0  0  0  0  0  0  0  0  0
    5.4193   -3.1498   26.3223 C   0  0  0  0  0  0  0  0  0  0  0  0
    5.6670   -3.1273   27.3790 H   0  0  0  0  0  0  0  0  0  0  0  0
    4.3100   -3.9088   25.9211 C   0  0  0  0  0  0  0  0  0  0  0  0
    3.5285   -4.6214   26.7833 O   0  0  0  0  0  0  0  0  0  0  0  0
    3.8823   -4.6984   28.1449 C   0  0  0  0  0  0  0  0  0  0  0  0
    3.1500   -5.3657   28.6027 H   0  0  0  0  0  0  0  0  0  0  0  0
    4.8946   -5.1066   28.2645 H   0  0  0  0  0  0  0  0  0  0  0  0
    3.8411   -3.7062   28.6128 H   0  0  0  0  0  0  0  0  0  0  0  0
    3.9422   -3.9201   24.5468 C   0  0  0  0  0  0  0  0  0  0  0  0
    2.8471   -4.5027   23.9774 O   0  0  0  0  0  0  0  0  0  0  0  0
    1.9422   -5.3256   24.7034 C   0  0  0  0  0  0  0  0  0  0  0  0
    1.4243   -4.7629   25.4879 H   0  0  0  0  0  0  0  0  0  0  0  0
    1.2249   -5.6752   23.9583 H   0  0  0  0  0  0  0  0  0  0  0  0
    2.4624   -6.1757   25.1558 H   0  0  0  0  0  0  0  0  0  0  0  0
    4.7406   -3.2346   23.6295 C   0  0  0  0  0  0  0  0  0  0  0  0
    4.3721   -3.2424   22.6044 H   0  0  0  0  0  0  0  0  0  0  0  0
    7.4696   -0.4304   23.4554 C   0  0  0  0  0  0  0  0  0  0  0  0
    6.9072    0.2733   24.0847 H   0  0  0  0  0  0  0  0  0  0  0  0
    8.3253   -0.7566   24.0619 H   0  0  0  0  0  0  0  0  0  0  0  0
    7.9070    0.2245   22.1206 C   0  0  0  0  0  0  0  0  0  0  0  0
    8.9905    0.3578   22.0798 H   0  0  0  0  0  0  0  0  0  0  0  0
    7.4650    1.2201   21.9951 H   0  0  0  0  0  0  0  0  0  0  0  0
    7.4171   -0.7193   20.9796 C   0  0  2  0  0  0  0  0  0  0  0  0
    8.2695   -1.2408   20.5162 H   0  0  0  0  0  0  0  0  0  0  0  0
    6.6640   -0.0109   19.8544 C   0  0  0  0  0  0  0  0  0  0  0  0
    7.1611    0.0579   18.5414 C   0  0  0  0  0  0  0  0  0  0  0  0
    8.1146   -0.4090   18.2904 H   0  0  0  0  0  0  0  0  0  0  0  0
    6.5504    0.6868   17.5294 N   0  0  0  0  0  0  0  0  0  0  0  0
    5.3925    1.3088   17.7985 C   0  0  0  0  0  0  0  0  0  0  0  0
    4.9189    1.8266   16.9655 H   0  0  0  0  0  0  0  0  0  0  0  0
    4.8009    1.3137   19.0670 C   0  0  0  0  0  0  0  0  0  0  0  0
    3.8700    1.8527   19.2264 H   0  0  0  0  0  0  0  0  0  0  0  0
    5.4495    0.6449   20.1052 C   0  0  0  0  0  0  0  0  0  0  0  0
    5.0293    0.6213   21.1124 H   0  0  0  0  0  0  0  0  0  0  0  0
  1  2  1  0
  2  3  2  0
  3  4  1  0
  4  5  2  0
  5  6  1  0
  5  7  1  0
  7  8  1  0
  7  9  2  0
  9 10  1  0
 10 11  1  0
 11 12  1  0
 11 13  1  0
 11 14  1  0
  9 15  1  0
 15 16  1  0
 16 17  1  0
 17 18  1  0
 17 19  1  0
 17 20  1  0
 15 21  2  0
 21 22  1  0
  3 23  1  0
 23 24  1  0
 23 25  1  0
 23 26  1  0
 26 27  1  0
 26 28  1  0
 26 29  1  0
 29 30  1  6
 29 31  1  0
 31 32  2  0
 32 33  1  0
 32 34  1  0
 34 35  2  0
 35 36  1  0
 35 37  1  0
 37 38  1  0
 37 39  2  0
 39 40  1  0
 29  2  1  0
 39 31  1  0
 21  4  1  0
M  END
>  <cnnaffinity>  (1) 
-5.12619

>  <filename>  (1) 
COc1ccc(C2=C[C@@H](c3cccnc3)CC2)cc1OC

$$$$
