
     RDKit          3D

 31 32  0  0  0  0  0  0  0  0999 V2000
    4.9228    1.7940   16.9827 H   0  0  0  0  0  0  0  0  0  0  0  0
    5.3982    1.2973   17.8269 C   0  0  0  0  0  0  0  0  0  0  0  0
    6.5607    0.6813   17.5683 N   0  0  0  0  0  0  0  0  0  0  0  0
    7.1580    0.0594   18.5942 C   0  0  0  0  0  0  0  0  0  0  0  0
    8.1106   -0.4177   18.3617 H   0  0  0  0  0  0  0  0  0  0  0  0
    6.6476    0.0015   19.8980 C   0  0  0  0  0  0  0  0  0  0  0  0
    7.4144   -0.6995   20.9936 C   0  0  2  0  0  0  0  0  0  0  0  0
    8.2900   -1.1852   20.5405 H   0  0  0  0  0  0  0  0  0  0  0  0
    6.3515   -2.0356   21.6699 S   0  0  0  0  0  0  0  0  0  0  0  0
    7.6602   -3.1661   22.2386 C   0  0  0  0  0  0  0  0  0  0  0  0
    8.2091   -3.5106   21.3582 H   0  0  0  0  0  0  0  0  0  0  0  0
    8.3391   -2.6643   22.9339 H   0  0  0  0  0  0  0  0  0  0  0  0
    7.1183   -4.3040   22.9105 N   0  0  0  0  0  0  0  0  0  0  0  0
    6.9318   -4.3423   24.2854 N   0  0  0  0  0  0  0  0  0  0  0  0
    6.3361   -5.4734   24.4295 C   0  0  0  0  0  0  0  0  0  0  0  0
    5.9131   -6.0558   25.5307 O   0  0  0  0  0  0  0  0  0  0  0  0
    6.1188   -5.3398   26.7591 C   0  0  0  0  0  0  0  0  0  0  0  0
    7.1837   -5.1599   26.9401 H   0  0  0  0  0  0  0  0  0  0  0  0
    5.5873   -4.3822   26.7494 H   0  0  0  0  0  0  0  0  0  0  0  0
    5.7106   -5.9885   27.5344 H   0  0  0  0  0  0  0  0  0  0  0  0
    6.0970   -6.1818   23.3159 O   0  0  0  0  0  0  0  0  0  0  0  0
    6.6088   -5.4089   22.2877 C   0  0  0  0  0  0  0  0  0  0  0  0
    6.6006   -5.7008   21.1289 O   0  0  0  0  0  0  0  0  0  0  0  0
    7.8836    0.2774   22.0781 C   0  0  0  0  0  0  0  0  0  0  0  0
    8.5032   -0.2171   22.8340 H   0  0  0  0  0  0  0  0  0  0  0  0
    7.0298    0.7373   22.5878 H   0  0  0  0  0  0  0  0  0  0  0  0
    8.4661    1.0815   21.6147 H   0  0  0  0  0  0  0  0  0  0  0  0
    5.4333    0.6566   20.1457 C   0  0  0  0  0  0  0  0  0  0  0  0
    4.9928    0.6426   21.1468 H   0  0  0  0  0  0  0  0  0  0  0  0
    4.8011    1.3139   19.0917 C   0  0  0  0  0  0  0  0  0  0  0  0
    3.8722    1.8453   19.2468 H   0  0  0  0  0  0  0  0  0  0  0  0
  1  2  1  0
  2  3  2  0
  3  4  1  0
  4  5  1  0
  4  6  2  0
  6  7  1  0
  7  8  1  6
  7  9  1  0
  9 10  1  0
 10 11  1  0
 10 12  1  0
 10 13  1  0
 13 14  1  0
 14 15  2  0
 15 16  1  0
 16 17  1  0
 17 18  1  0
 17 19  1  0
 17 20  1  0
 15 21  1  0
 21 22  1  0
 22 23  2  0
  7 24  1  0
 24 25  1  0
 24 26  1  0
 24 27  1  0
  6 28  1  0
 28 29  1  0
 28 30  2  0
 30 31  1  0
 30  2  1  0
 22 13  1  0
M  END
>  <cnnaffinity>  (1) 
-4.9526

>  <filename>  (1) 
COc1nn(CS[C@H](C)c2cccnc2)c(=O)o1

$$$$
