
     RDKit          3D

 32 34  0  0  0  0  0  0  0  0999 V2000
    6.8446    0.5910   22.6209 H   0  0  0  0  0  0  0  0  0  0  0  0
    7.4001   -0.2905   22.3192 C   0  0  0  0  0  0  0  0  0  0  0  0
    8.0847   -0.9320   23.2767 N   0  0  0  0  0  0  0  0  0  0  0  0
    8.7265   -2.0609   22.9147 C   0  0  0  0  0  0  0  0  0  0  0  0
    9.4180   -2.8578   23.9944 C   0  0  0  0  0  0  0  0  0  0  0  0
    9.7080   -2.1612   24.7899 H   0  0  0  0  0  0  0  0  0  0  0  0
   10.3165   -3.3357   23.5879 H   0  0  0  0  0  0  0  0  0  0  0  0
    8.5893   -3.9091   24.5812 N   0  0  0  0  0  0  0  0  0  0  0  0
    7.6942   -3.6338   25.6133 N   0  0  0  0  0  0  0  0  0  0  0  0
    7.0553   -4.7388   25.7212 C   0  0  0  0  0  0  0  0  0  0  0  0
    6.0900   -4.9683   26.5839 O   0  0  0  0  0  0  0  0  0  0  0  0
    5.4287   -6.2383   26.6794 C   0  0  0  0  0  0  0  0  0  0  0  0
    6.1146   -7.0544   26.9450 H   0  0  0  0  0  0  0  0  0  0  0  0
    4.7221   -6.0727   27.4923 H   0  0  0  0  0  0  0  0  0  0  0  0
    4.8832   -6.4970   25.7617 H   0  0  0  0  0  0  0  0  0  0  0  0
    7.3993   -5.7175   24.8631 O   0  0  0  0  0  0  0  0  0  0  0  0
    8.3757   -5.1601   24.0675 C   0  0  0  0  0  0  0  0  0  0  0  0
    8.8555   -5.7108   23.1158 O   0  0  0  0  0  0  0  0  0  0  0  0
    8.7558   -2.4646   21.5643 C   0  0  0  0  0  0  0  0  0  0  0  0
    9.3096   -3.3425   21.2556 H   0  0  0  0  0  0  0  0  0  0  0  0
    8.1318   -1.7863   20.5950 N   0  0  0  0  0  0  0  0  0  0  0  0
    7.4053   -0.7126   20.9690 C   0  0  0  0  0  0  0  0  0  0  0  0
    6.6577   -0.0084   19.9065 C   0  0  0  0  0  0  0  0  0  0  0  0
    7.1702    0.0345   18.5943 C   0  0  0  0  0  0  0  0  0  0  0  0
    8.1176   -0.4443   18.3546 H   0  0  0  0  0  0  0  0  0  0  0  0
    6.5694    0.6666   17.5821 N   0  0  0  0  0  0  0  0  0  0  0  0
    5.4089    1.2874   17.8436 C   0  0  0  0  0  0  0  0  0  0  0  0
    4.9370    1.7894   17.0017 H   0  0  0  0  0  0  0  0  0  0  0  0
    4.8132    1.3016   19.1073 C   0  0  0  0  0  0  0  0  0  0  0  0
    3.8836    1.8353   19.2546 H   0  0  0  0  0  0  0  0  0  0  0  0
    5.4436    0.6455   20.1619 C   0  0  0  0  0  0  0  0  0  0  0  0
    4.9931    0.6364   21.1556 H   0  0  0  0  0  0  0  0  0  0  0  0
  1  2  1  0
  2  3  2  0
  3  4  1  0
  4  5  1  0
  5  6  1  0
  5  7  1  0
  5  8  1  0
  8  9  1  0
  9 10  2  0
 10 11  1  0
 11 12  1  0
 12 13  1  0
 12 14  1  0
 12 15  1  0
 10 16  1  0
 16 17  1  0
 17 18  2  0
  4 19  2  0
 19 20  1  0
 19 21  1  0
 21 22  2  0
 22 23  1  0
 23 24  2  0
 24 25  1  0
 24 26  1  0
 26 27  2  0
 27 28  1  0
 27 29  1  0
 29 30  1  0
 29 31  2  0
 31 32  1  0
 22  2  1  0
 31 23  1  0
 17  8  1  0
M  END
>  <cnnaffinity>  (1) 
-5.14391

>  <filename>  (1) 
COc1nn(Cc2cnc(-c3cccnc3)cn2)c(=O)o1

$$$$
