
     RDKit          3D

 31 33  0  0  0  0  0  0  0  0999 V2000
    4.9843    1.8302   16.9288 H   0  0  0  0  0  0  0  0  0  0  0  0
    5.4259    1.3118   17.7768 C   0  0  0  0  0  0  0  0  0  0  0  0
    6.5795    0.6686   17.5382 N   0  0  0  0  0  0  0  0  0  0  0  0
    7.1545    0.0348   18.5629 C   0  0  0  0  0  0  0  0  0  0  0  0
    8.0846   -0.4861   18.3459 H   0  0  0  0  0  0  0  0  0  0  0  0
    6.6216    0.0106   19.8614 C   0  0  0  0  0  0  0  0  0  0  0  0
    7.3557   -0.7139   20.8928 C   0  0  0  0  0  0  0  0  0  0  0  0
    8.3610   -1.5363   20.7023 N   0  0  0  0  0  0  0  0  0  0  0  0
    8.7251   -1.9693   21.9474 C   0  0  0  0  0  0  0  0  0  0  0  0
    9.5610   -2.6442   22.0934 H   0  0  0  0  0  0  0  0  0  0  0  0
    7.9362   -1.4075   22.9159 C   0  0  0  0  0  0  0  0  0  0  0  0
    7.9174   -1.4638   24.4165 C   0  0  0  0  0  0  0  0  0  0  0  0
    6.8944   -1.4059   24.8007 H   0  0  0  0  0  0  0  0  0  0  0  0
    8.3493   -2.4206   24.7326 H   0  0  0  0  0  0  0  0  0  0  0  0
    8.6946   -0.3951   25.0463 N   0  0  0  0  0  0  0  0  0  0  0  0
    8.1934    0.8946   25.3071 N   0  0  0  0  0  0  0  0  0  0  0  0
    9.2764    1.5882   25.3625 C   0  0  0  0  0  0  0  0  0  0  0  0
    9.4823    2.8672   25.5931 O   0  0  0  0  0  0  0  0  0  0  0  0
    8.3939    3.7133   25.9785 C   0  0  0  0  0  0  0  0  0  0  0  0
    7.7190    3.8984   25.1370 H   0  0  0  0  0  0  0  0  0  0  0  0
    7.8308    3.2898   26.8172 H   0  0  0  0  0  0  0  0  0  0  0  0
    8.8616    4.6508   26.2840 H   0  0  0  0  0  0  0  0  0  0  0  0
   10.4266    0.9315   25.1318 O   0  0  0  0  0  0  0  0  0  0  0  0
   10.0506   -0.3674   24.8986 C   0  0  0  0  0  0  0  0  0  0  0  0
   10.7841   -1.2733   24.6184 O   0  0  0  0  0  0  0  0  0  0  0  0
    7.0553   -0.6138   22.2168 N   0  0  0  0  0  0  0  0  0  0  0  0
    6.4981    0.1234   22.6142 H   0  0  0  0  0  0  0  0  0  0  0  0
    5.4044    0.6727   20.0932 C   0  0  0  0  0  0  0  0  0  0  0  0
    4.9273    0.6618   21.0772 H   0  0  0  0  0  0  0  0  0  0  0  0
    4.7999    1.3330   19.0289 C   0  0  0  0  0  0  0  0  0  0  0  0
    3.8688    1.8742   19.1573 H   0  0  0  0  0  0  0  0  0  0  0  0
  1  2  1  0
  2  3  2  0
  3  4  1  0
  4  5  1  0
  4  6  2  0
  6  7  1  0
  7  8  2  0
  8  9  1  0
  9 10  1  0
  9 11  2  0
 11 12  1  0
 12 13  1  0
 12 14  1  0
 12 15  1  0
 15 16  1  0
 16 17  2  0
 17 18  1  0
 18 19  1  0
 19 20  1  0
 19 21  1  0
 19 22  1  0
 17 23  1  0
 23 24  1  0
 24 25  2  0
 11 26  1  0
 26 27  1  0
  6 28  1  0
 28 29  1  0
 28 30  2  0
 30 31  1  0
 30  2  1  0
 26  7  1  0
 24 15  1  0
M  END
>  <cnnaffinity>  (1) 
-5.04454

>  <filename>  (1) 
COc1nn(Cc2cnc(-c3cccnc3)[nH]2)c(=O)o1

$$$$
