
     RDKit          3D

 38 40  0  0  0  0  0  0  0  0999 V2000
    5.0486   -5.8400   23.3077 C   0  0  0  0  0  0  0  0  0  0  0  0
    6.1511   -5.4597   24.1148 O   0  0  0  0  0  0  0  0  0  0  0  0
    5.9194   -4.9395   25.3541 C   0  0  0  0  0  0  0  0  0  0  0  0
    4.6252   -4.7793   25.8820 C   0  0  0  0  0  0  0  0  0  0  0  0
    4.4514   -4.2423   27.1617 C   0  0  0  0  0  0  0  0  0  0  0  0
    5.5592   -3.8937   27.9300 C   0  0  0  0  0  0  0  0  0  0  0  0
    6.8472   -4.0674   27.4071 C   0  0  0  0  0  0  0  0  0  0  0  0
    7.0582   -4.5591   26.1172 C   0  0  0  0  0  0  0  0  0  0  0  0
    8.4692   -4.6176   25.5589 C   0  0  0  0  0  0  0  0  0  0  0  0
    8.5838   -3.6219   24.5339 O   0  0  0  0  0  0  0  0  0  0  0  0
    9.8512   -3.5742   23.9931 N   0  0  0  0  0  0  0  0  0  0  0  0
    9.9425   -2.7817   22.9810 C   0  0  0  0  0  0  0  0  0  0  0  0
    8.9077   -1.9515   22.3733 C   0  0  0  0  0  0  0  0  0  0  0  0
    7.7456   -1.4847   22.9406 C   0  0  0  0  0  0  0  0  0  0  0  0
    6.9305   -0.7700   22.1261 N   0  0  0  0  0  0  0  0  0  0  0  0
    7.4184   -0.6574   20.9243 C   0  0  0  0  0  0  0  0  0  0  0  0
    6.7016    0.0205   19.8437 C   0  0  0  0  0  0  0  0  0  0  0  0
    5.4776    0.6699   20.0860 C   0  0  0  0  0  0  0  0  0  0  0  0
    4.8485    1.3228   19.0301 C   0  0  0  0  0  0  0  0  0  0  0  0
    5.4584    1.3017   17.7704 C   0  0  0  0  0  0  0  0  0  0  0  0
    6.6118    0.6628   17.5212 N   0  0  0  0  0  0  0  0  0  0  0  0
    7.2101    0.0377   18.5374 C   0  0  0  0  0  0  0  0  0  0  0  0
    8.1369   -0.4799   18.2925 H   0  0  0  0  0  0  0  0  0  0  0  0
    4.9978    1.8085   16.9246 H   0  0  0  0  0  0  0  0  0  0  0  0
    3.9117    1.8523   19.1699 H   0  0  0  0  0  0  0  0  0  0  0  0
    5.0525    0.6521   21.0899 H   0  0  0  0  0  0  0  0  0  0  0  0
    8.9937   -1.4034   20.7281 S   0  0  0  0  0  0  0  0  0  0  0  0
    7.4527   -1.6300   23.9715 H   0  0  0  0  0  0  0  0  0  0  0  0
   10.9362   -2.7678   22.5297 H   0  0  0  0  0  0  0  0  0  0  0  0
    9.2081   -4.4080   26.3432 H   0  0  0  0  0  0  0  0  0  0  0  0
    8.7093   -5.6000   25.1392 H   0  0  0  0  0  0  0  0  0  0  0  0
    7.7286   -3.8167   28.0021 H   0  0  0  0  0  0  0  0  0  0  0  0
    5.4260   -3.4902   28.9298 H   0  0  0  0  0  0  0  0  0  0  0  0
    3.4508   -4.1190   27.5726 H   0  0  0  0  0  0  0  0  0  0  0  0
    3.7634   -5.0725   25.2899 H   0  0  0  0  0  0  0  0  0  0  0  0
    4.4418   -6.6275   23.7750 H   0  0  0  0  0  0  0  0  0  0  0  0
    4.3900   -4.9872   23.0970 H   0  0  0  0  0  0  0  0  0  0  0  0
    5.4621   -6.2199   22.3725 H   0  0  0  0  0  0  0  0  0  0  0  0
  1  2  1  0
  2  3  1  0
  3  4  2  0
  4  5  1  0
  5  6  2  0
  6  7  1  0
  7  8  2  0
  8  9  1  0
  9 10  1  0
 10 11  1  0
 11 12  2  3
 12 13  1  0
 13 14  2  0
 14 15  1  0
 15 16  2  0
 16 17  1  0
 17 18  2  0
 18 19  1  0
 19 20  2  0
 20 21  1  0
 21 22  2  0
 22 23  1  0
 20 24  1  0
 19 25  1  0
 18 26  1  0
 16 27  1  0
 14 28  1  0
 12 29  1  0
  9 30  1  0
  9 31  1  0
  7 32  1  0
  6 33  1  0
  5 34  1  0
  4 35  1  0
  1 36  1  0
  1 37  1  0
  1 38  1  0
  8  3  1  0
 27 13  1  0
 22 17  1  0
M  END
>  <cnnaffinity>  (1) 
-5.29225

>  <filename>  (1) 
COc1ccccc1CON=Cc1cnc(-c2cccnc2)s1

$$$$
