
     RDKit          3D

 31 32  0  0  0  0  0  0  0  0999 V2000
    4.9642    1.8191   16.9571 H   0  0  0  0  0  0  0  0  0  0  0  0
    5.4443    1.3139   17.7933 C   0  0  0  0  0  0  0  0  0  0  0  0
    6.6137    0.7086   17.5222 N   0  0  0  0  0  0  0  0  0  0  0  0
    7.2207    0.0696   18.5300 C   0  0  0  0  0  0  0  0  0  0  0  0
    8.1683   -0.4148   18.3123 H   0  0  0  0  0  0  0  0  0  0  0  0
    6.7005   -0.0128   19.8355 C   0  0  0  0  0  0  0  0  0  0  0  0
    7.4016   -0.7122   20.8701 N   0  0  0  0  0  0  0  0  0  0  0  0
    8.2054   -0.2522   21.2773 H   0  0  0  0  0  0  0  0  0  0  0  0
    6.7737   -1.6067   21.7023 C   0  0  0  0  0  0  0  0  0  0  0  0
    5.7571   -2.2055   21.4072 O   0  0  0  0  0  0  0  0  0  0  0  0
    7.5826   -1.9840   22.9845 C   0  0  0  0  0  0  0  0  0  0  0  0
    8.5293   -1.0324   23.2878 F   0  0  0  0  0  0  0  0  0  0  0  0
    6.7570   -2.0589   24.0504 F   0  0  0  0  0  0  0  0  0  0  0  0
    8.2753   -3.3245   22.7009 C   0  0  0  0  0  0  0  0  0  0  0  0
    8.9089   -3.1979   21.8152 H   0  0  0  0  0  0  0  0  0  0  0  0
    7.4966   -4.0603   22.4826 H   0  0  0  0  0  0  0  0  0  0  0  0
    9.0970   -3.8172   23.7779 N   0  0  0  0  0  0  0  0  0  0  0  0
    8.5489   -4.5331   24.8312 N   0  0  0  0  0  0  0  0  0  0  0  0
    9.5595   -4.6892   25.6151 C   0  0  0  0  0  0  0  0  0  0  0  0
    9.6048   -5.3056   26.7812 O   0  0  0  0  0  0  0  0  0  0  0  0
    8.3815   -5.9681   27.1810 C   0  0  0  0  0  0  0  0  0  0  0  0
    7.5488   -5.2573   27.2299 H   0  0  0  0  0  0  0  0  0  0  0  0
    8.5673   -6.3882   28.1713 H   0  0  0  0  0  0  0  0  0  0  0  0
    8.1383   -6.7666   26.4716 H   0  0  0  0  0  0  0  0  0  0  0  0
   10.7184   -4.1531   25.1963 O   0  0  0  0  0  0  0  0  0  0  0  0
   10.4363   -3.5945   23.9578 C   0  0  0  0  0  0  0  0  0  0  0  0
   11.2231   -3.0616   23.2330 O   0  0  0  0  0  0  0  0  0  0  0  0
    5.4825    0.6167   20.1071 C   0  0  0  0  0  0  0  0  0  0  0  0
    5.0630    0.5776   21.1137 H   0  0  0  0  0  0  0  0  0  0  0  0
    4.8475    1.2970   19.0602 C   0  0  0  0  0  0  0  0  0  0  0  0
    3.9075    1.8149   19.2143 H   0  0  0  0  0  0  0  0  0  0  0  0
  1  2  1  0
  2  3  2  0
  3  4  1  0
  4  5  1  0
  4  6  2  0
  6  7  1  0
  7  8  1  0
  7  9  1  0
  9 10  2  0
  9 11  1  0
 11 12  1  0
 11 13  1  0
 11 14  1  0
 14 15  1  0
 14 16  1  0
 14 17  1  0
 17 18  1  0
 18 19  2  0
 19 20  1  0
 20 21  1  0
 21 22  1  0
 21 23  1  0
 21 24  1  0
 19 25  1  0
 25 26  1  0
 26 27  2  0
  6 28  1  0
 28 29  1  0
 28 30  2  0
 30 31  1  0
 30  2  1  0
 26 17  1  0
M  END
>  <cnnaffinity>  (1) 
-5.2769

>  <filename>  (1) 
COc1nn(CC(F)(F)C(=O)Nc2cccnc2)c(=O)o1

$$$$
