
     RDKit          3D

 37 39  0  0  0  0  0  0  0  0999 V2000
    4.9815    1.7936   16.9490 H   0  0  0  0  0  0  0  0  0  0  0  0
    5.4256    1.2965   17.8078 C   0  0  0  0  0  0  0  0  0  0  0  0
    6.5835    0.6609   17.5867 N   0  0  0  0  0  0  0  0  0  0  0  0
    7.1461    0.0324   18.6277 C   0  0  0  0  0  0  0  0  0  0  0  0
    8.0908   -0.4631   18.4032 H   0  0  0  0  0  0  0  0  0  0  0  0
    6.6078   -0.0168   19.9315 C   0  0  0  0  0  0  0  0  0  0  0  0
    7.2895   -0.8058   21.0649 C   0  0  0  0  0  0  0  0  0  0  0  0
    6.5901   -2.1998   21.1227 C   0  0  0  0  0  0  0  0  0  0  0  0
    5.5218   -2.0439   21.3218 H   0  0  0  0  0  0  0  0  0  0  0  0
    6.6803   -2.6535   20.1346 H   0  0  0  0  0  0  0  0  0  0  0  0
    7.0938   -3.1627   22.0901 N   0  0  0  0  0  0  0  0  0  0  0  0
    6.7484   -3.1306   23.4347 N   0  0  0  0  0  0  0  0  0  0  0  0
    7.3499   -4.1576   23.9093 C   0  0  0  0  0  0  0  0  0  0  0  0
    7.3368   -4.5473   25.1710 O   0  0  0  0  0  0  0  0  0  0  0  0
    8.2153   -5.6124   25.5636 C   0  0  0  0  0  0  0  0  0  0  0  0
    9.2505   -5.2599   25.5823 H   0  0  0  0  0  0  0  0  0  0  0  0
    7.9038   -5.9070   26.5655 H   0  0  0  0  0  0  0  0  0  0  0  0
    8.1392   -6.4597   24.8794 H   0  0  0  0  0  0  0  0  0  0  0  0
    8.0297   -4.8998   23.0161 O   0  0  0  0  0  0  0  0  0  0  0  0
    7.8200   -4.2794   21.8088 C   0  0  0  0  0  0  0  0  0  0  0  0
    8.2133   -4.7334   20.7738 O   0  0  0  0  0  0  0  0  0  0  0  0
    7.2034   -0.0706   22.4311 C   0  0  0  0  0  0  0  0  0  0  0  0
    6.2768   -0.3110   22.9681 H   0  0  0  0  0  0  0  0  0  0  0  0
    7.2022    1.0094   22.2363 H   0  0  0  0  0  0  0  0  0  0  0  0
    8.4513   -0.4516   23.2550 C   0  0  0  0  0  0  0  0  0  0  0  0
    8.1928   -1.2272   23.9814 H   0  0  0  0  0  0  0  0  0  0  0  0
    8.8250    0.4104   23.8205 H   0  0  0  0  0  0  0  0  0  0  0  0
    9.4928   -0.9835   22.2469 C   0  0  0  0  0  0  0  0  0  0  0  0
    9.7771   -2.0137   22.4807 H   0  0  0  0  0  0  0  0  0  0  0  0
   10.4190   -0.3959   22.2687 H   0  0  0  0  0  0  0  0  0  0  0  0
    8.8278   -0.8883   20.8622 C   0  0  0  0  0  0  0  0  0  0  0  0
    9.1472    0.0504   20.3924 H   0  0  0  0  0  0  0  0  0  0  0  0
    9.1283   -1.6995   20.1861 H   0  0  0  0  0  0  0  0  0  0  0  0
    5.3886    0.6555   20.1261 C   0  0  0  0  0  0  0  0  0  0  0  0
    4.9189    0.6728   21.1122 H   0  0  0  0  0  0  0  0  0  0  0  0
    4.7913    1.3209   19.0526 C   0  0  0  0  0  0  0  0  0  0  0  0
    3.8578    1.8593   19.1680 H   0  0  0  0  0  0  0  0  0  0  0  0
  1  2  1  0
  2  3  2  0
  3  4  1  0
  4  5  1  0
  4  6  2  0
  6  7  1  0
  7  8  1  0
  8  9  1  0
  8 10  1  0
  8 11  1  0
 11 12  1  0
 12 13  2  0
 13 14  1  0
 14 15  1  0
 15 16  1  0
 15 17  1  0
 15 18  1  0
 13 19  1  0
 19 20  1  0
 20 21  2  0
  7 22  1  0
 22 23  1  0
 22 24  1  0
 22 25  1  0
 25 26  1  0
 25 27  1  0
 25 28  1  0
 28 29  1  0
 28 30  1  0
 28 31  1  0
 31 32  1  0
 31 33  1  0
  6 34  1  0
 34 35  1  0
 34 36  2  0
 36 37  1  0
 36  2  1  0
 31  7  1  0
 20 11  1  0
M  END
>  <cnnaffinity>  (1) 
-5.47746

>  <filename>  (1) 
COc1nn(CC2(c3cccnc3)CCCC2)c(=O)o1

$$$$
