
     RDKit          3D

 30 31  0  0  0  0  0  0  0  0999 V2000
    4.9478    1.8067   16.9789 H   0  0  0  0  0  0  0  0  0  0  0  0
    5.4038    1.2951   17.8234 C   0  0  0  0  0  0  0  0  0  0  0  0
    6.5612    0.6666   17.5641 N   0  0  0  0  0  0  0  0  0  0  0  0
    7.1578    0.0276   18.5756 C   0  0  0  0  0  0  0  0  0  0  0  0
    8.1083   -0.4517   18.3582 H   0  0  0  0  0  0  0  0  0  0  0  0
    6.6417   -0.0176   19.8805 C   0  0  0  0  0  0  0  0  0  0  0  0
    7.3836   -0.7089   20.9268 C   0  0  0  0  0  0  0  0  0  0  0  0
    8.0280   -1.9168   20.7536 N   0  0  0  0  0  0  0  0  0  0  0  0
    8.4880   -2.2341   21.9328 C   0  0  0  0  0  0  0  0  0  0  0  0
    9.0414   -3.1350   22.1702 H   0  0  0  0  0  0  0  0  0  0  0  0
    8.2042   -1.2828   22.8740 N   0  0  0  0  0  0  0  0  0  0  0  0
    8.4588   -1.2359   23.8430 H   0  0  0  0  0  0  0  0  0  0  0  0
    7.5259   -0.2862   22.2420 C   0  0  0  0  0  0  0  0  0  0  0  0
    7.2222    0.8888   22.8781 N   0  0  0  0  0  0  0  0  0  0  0  0
    6.8996    1.6267   22.2701 H   0  0  0  0  0  0  0  0  0  0  0  0
    7.1929    1.0999   24.3100 C   0  0  0  0  0  0  0  0  0  0  0  0
    7.0471    2.1715   24.4747 H   0  0  0  0  0  0  0  0  0  0  0  0
    8.1559    0.8443   24.7816 H   0  0  0  0  0  0  0  0  0  0  0  0
    6.0674    0.3209   25.0121 C   0  0  0  0  0  0  0  0  0  0  0  0
    6.1441   -0.7472   24.7540 H   0  0  0  0  0  0  0  0  0  0  0  0
    5.0937    0.6713   24.6479 H   0  0  0  0  0  0  0  0  0  0  0  0
    6.0783    0.5338   26.4116 O   0  0  0  0  0  0  0  0  0  0  0  0
    6.8501   -0.3862   27.1481 C   0  0  0  0  0  0  0  0  0  0  0  0
    6.8758   -0.0221   28.1782 H   0  0  0  0  0  0  0  0  0  0  0  0
    7.8839   -0.4674   26.7785 H   0  0  0  0  0  0  0  0  0  0  0  0
    6.4039   -1.3922   27.1295 H   0  0  0  0  0  0  0  0  0  0  0  0
    5.4265    0.6471   20.1360 C   0  0  0  0  0  0  0  0  0  0  0  0
    4.9979    0.6347   21.1405 H   0  0  0  0  0  0  0  0  0  0  0  0
    4.7951    1.3103   19.0848 C   0  0  0  0  0  0  0  0  0  0  0  0
    3.8636    1.8482   19.2279 H   0  0  0  0  0  0  0  0  0  0  0  0
  1  2  1  0
  2  3  2  0
  3  4  1  0
  4  5  1  0
  4  6  2  0
  6  7  1  0
  7  8  1  0
  8  9  2  0
  9 10  1  0
  9 11  1  0
 11 12  1  0
 11 13  1  0
 13 14  1  0
 14 15  1  0
 14 16  1  0
 16 17  1  0
 16 18  1  0
 16 19  1  0
 19 20  1  0
 19 21  1  0
 19 22  1  0
 22 23  1  0
 23 24  1  0
 23 25  1  0
 23 26  1  0
  6 27  1  0
 27 28  1  0
 27 29  2  0
 29 30  1  0
 29  2  1  0
 13  7  2  0
M  END
>  <cnnaffinity>  (1) 
-4.52179

>  <filename>  (1) 
COCCNc1[nH]cnc1-c1cccnc1

$$$$
