
     RDKit          3D

 42 45  0  0  0  0  0  0  0  0999 V2000
    8.4458   -5.7752   22.9599 C   0  0  0  0  0  0  0  0  0  0  0  0
    7.8718   -4.5096   22.7304 O   0  0  0  0  0  0  0  0  0  0  0  0
    8.7578   -3.5764   22.1442 C   0  0  0  0  0  0  0  0  0  0  0  0
    8.1530   -2.2145   21.9718 C   0  0  0  0  0  0  0  0  0  0  0  0
    7.8005   -1.8124   20.7655 N   0  0  0  0  0  0  0  0  0  0  0  0
    7.3170   -0.5722   20.9768 N   0  0  0  0  0  0  0  0  0  0  0  0
    6.6201    0.0793   19.9281 C   0  0  0  0  0  0  0  0  0  0  0  0
    5.3872    0.7064   20.1427 C   0  0  0  0  0  0  0  0  0  0  0  0
    4.7768    1.3256   19.0495 C   0  0  0  0  0  0  0  0  0  0  0  0
    5.4158    1.2878   17.8054 C   0  0  0  0  0  0  0  0  0  0  0  0
    6.5665    0.6254   17.5845 N   0  0  0  0  0  0  0  0  0  0  0  0
    7.1448    0.0214   18.6244 C   0  0  0  0  0  0  0  0  0  0  0  0
    8.0622   -0.5348   18.4339 H   0  0  0  0  0  0  0  0  0  0  0  0
    5.0001    1.8178   16.9527 H   0  0  0  0  0  0  0  0  0  0  0  0
    3.8345    1.8524   19.1597 H   0  0  0  0  0  0  0  0  0  0  0  0
    4.9370    0.7040   21.1373 H   0  0  0  0  0  0  0  0  0  0  0  0
    7.4502   -0.2667   22.3178 C   0  0  0  0  0  0  0  0  0  0  0  0
    7.1994    1.0583   22.8695 C   0  0  0  0  0  0  0  0  0  0  0  0
    7.4936    2.2306   22.1759 C   0  0  0  0  0  0  0  0  0  0  0  0
    7.2045    3.4993   22.7217 C   0  0  0  0  0  0  0  0  0  0  0  0
    6.6120    3.6144   23.9680 C   0  0  0  0  0  0  0  0  0  0  0  0
    6.2951    2.4369   24.7129 C   0  0  0  0  0  0  0  0  0  0  0  0
    5.6697    2.4477   26.0041 C   0  0  0  0  0  0  0  0  0  0  0  0
    5.3897    1.2548   26.6247 C   0  0  0  0  0  0  0  0  0  0  0  0
    5.7127    0.0223   25.9721 C   0  0  0  0  0  0  0  0  0  0  0  0
    5.4206   -1.2912   26.6489 C   0  0  0  0  0  0  0  0  0  0  0  0
    5.8897   -1.3248   27.6355 H   0  0  0  0  0  0  0  0  0  0  0  0
    5.8000   -2.1274   26.0589 H   0  0  0  0  0  0  0  0  0  0  0  0
    4.3451   -1.4267   26.7886 H   0  0  0  0  0  0  0  0  0  0  0  0
    6.2769   -0.0292   24.7960 N   0  0  0  0  0  0  0  0  0  0  0  0
    6.6008    1.1350   24.1594 C   0  0  0  0  0  0  0  0  0  0  0  0
    4.9316    1.1966   27.6077 H   0  0  0  0  0  0  0  0  0  0  0  0
    5.4217    3.3988   26.4788 H   0  0  0  0  0  0  0  0  0  0  0  0
    6.3734    4.5997   24.3765 H   0  0  0  0  0  0  0  0  0  0  0  0
    7.4496    4.3848   22.1346 H   0  0  0  0  0  0  0  0  0  0  0  0
    7.9328    2.1682   21.1800 H   0  0  0  0  0  0  0  0  0  0  0  0
    7.9879   -1.2972   22.9456 N   0  0  0  0  0  0  0  0  0  0  0  0
    9.6846   -3.4630   22.7335 H   0  0  0  0  0  0  0  0  0  0  0  0
    8.9909   -3.8755   21.1142 H   0  0  0  0  0  0  0  0  0  0  0  0
    8.9250   -6.1983   22.0625 H   0  0  0  0  0  0  0  0  0  0  0  0
    9.1794   -5.7306   23.7758 H   0  0  0  0  0  0  0  0  0  0  0  0
    7.6359   -6.4409   23.2592 H   0  0  0  0  0  0  0  0  0  0  0  0
  1  2  1  0
  2  3  1  0
  3  4  1  0
  4  5  2  0
  5  6  1  0
  6  7  1  0
  7  8  2  0
  8  9  1  0
  9 10  2  0
 10 11  1  0
 11 12  2  0
 12 13  1  0
 10 14  1  0
  9 15  1  0
  8 16  1  0
  6 17  1  0
 17 18  1  0
 18 19  2  0
 19 20  1  0
 20 21  2  0
 21 22  1  0
 22 23  2  0
 23 24  1  0
 24 25  2  0
 25 26  1  0
 26 27  1  0
 26 28  1  0
 26 29  1  0
 25 30  1  0
 30 31  2  0
 24 32  1  0
 23 33  1  0
 21 34  1  0
 20 35  1  0
 19 36  1  0
 17 37  2  0
  3 38  1  0
  3 39  1  0
  1 40  1  0
  1 41  1  0
  1 42  1  0
 37  4  1  0
 12  7  1  0
 31 18  1  0
 31 22  1  0
M  END
>  <cnnaffinity>  (1) 
-5.65295

>  <filename>  (1) 
COCc1nc(-c2cccc3ccc(C)nc23)n(-c2cccnc2)n1

$$$$
