
     RDKit          3D

 48 51  0  0  0  0  0  0  0  0999 V2000
    6.0049    4.9930   21.7768 C   0  0  0  0  0  0  0  0  0  0  0  0
    6.5281    3.9749   22.5885 O   0  0  0  0  0  0  0  0  0  0  0  0
    7.8583    4.1628   22.9967 C   0  0  0  0  0  0  0  0  0  0  0  0
    8.3489    2.9507   23.8092 C   0  0  0  0  0  0  0  0  0  0  0  0
    7.5064    2.7023   25.0652 C   0  0  0  0  0  0  0  0  0  0  0  0
    7.9449    1.9076   25.6762 H   0  0  0  0  0  0  0  0  0  0  0  0
    6.4912    2.4077   24.7849 H   0  0  0  0  0  0  0  0  0  0  0  0
    7.4470    3.6145   25.6719 H   0  0  0  0  0  0  0  0  0  0  0  0
    8.4712    1.7260   22.9904 N   0  0  0  0  0  0  0  0  0  0  0  0
    7.3781    1.0090   22.6283 N   0  0  0  0  0  0  0  0  0  0  0  0
    7.8683    0.1248   21.7825 C   0  0  0  0  0  0  0  0  0  0  0  0
    7.0190   -0.8169   20.9859 C   0  0  0  0  0  0  0  0  0  0  0  0
    6.3961   -0.1232   19.7776 C   0  0  0  0  0  0  0  0  0  0  0  0
    5.2535    0.6679   19.9461 C   0  0  0  0  0  0  0  0  0  0  0  0
    4.7497    1.3657   18.8444 C   0  0  0  0  0  0  0  0  0  0  0  0
    5.4220    1.2630   17.6246 C   0  0  0  0  0  0  0  0  0  0  0  0
    6.5304    0.5310   17.4426 N   0  0  0  0  0  0  0  0  0  0  0  0
    6.9954   -0.1428   18.5050 C   0  0  0  0  0  0  0  0  0  0  0  0
    7.8972   -0.7326   18.3352 H   0  0  0  0  0  0  0  0  0  0  0  0
    5.0540    1.7956   16.7506 H   0  0  0  0  0  0  0  0  0  0  0  0
    3.8622    1.9825   18.9209 H   0  0  0  0  0  0  0  0  0  0  0  0
    4.7855    0.7487   20.9296 H   0  0  0  0  0  0  0  0  0  0  0  0
    6.2431   -1.1968   21.6565 H   0  0  0  0  0  0  0  0  0  0  0  0
    7.6576   -1.6580   20.6931 H   0  0  0  0  0  0  0  0  0  0  0  0
    9.2061    0.2090   21.5733 N   0  0  0  0  0  0  0  0  0  0  0  0
    9.5589    1.2089   22.3536 C   0  0  0  0  0  0  0  0  0  0  0  0
   10.9131    1.7905   22.4817 C   0  0  0  0  0  0  0  0  0  0  0  0
   11.7567    1.4788   23.5959 C   0  0  0  0  0  0  0  0  0  0  0  0
   12.8946    2.2187   23.8084 C   0  0  0  0  0  0  0  0  0  0  0  0
   13.1930    3.3411   22.9815 C   0  0  0  0  0  0  0  0  0  0  0  0
   14.2050    4.2971   23.2595 C   0  0  0  0  0  0  0  0  0  0  0  0
   14.4945    5.2700   22.3407 C   0  0  0  0  0  0  0  0  0  0  0  0
   13.8201    5.4350   21.1702 N   0  0  0  0  0  0  0  0  0  0  0  0
   12.8259    4.6051   20.9248 C   0  0  0  0  0  0  0  0  0  0  0  0
   12.4375    3.5407   21.7914 C   0  0  0  0  0  0  0  0  0  0  0  0
   11.3282    2.6973   21.5324 C   0  0  0  0  0  0  0  0  0  0  0  0
   10.7991    2.7782   20.5848 H   0  0  0  0  0  0  0  0  0  0  0  0
   12.2671    4.7458   19.9980 H   0  0  0  0  0  0  0  0  0  0  0  0
   15.3235    5.9550   22.5153 H   0  0  0  0  0  0  0  0  0  0  0  0
   14.7085    4.2999   24.2091 H   0  0  0  0  0  0  0  0  0  0  0  0
   13.5777    1.9313   24.5949 H   0  0  0  0  0  0  0  0  0  0  0  0
   11.4900    0.6622   24.2636 H   0  0  0  0  0  0  0  0  0  0  0  0
    9.3743    3.1908   24.1072 H   0  0  0  0  0  0  0  0  0  0  0  0
    7.9533    5.0536   23.6458 H   0  0  0  0  0  0  0  0  0  0  0  0
    8.5330    4.3206   22.1353 H   0  0  0  0  0  0  0  0  0  0  0  0
    6.5834    5.1277   20.8492 H   0  0  0  0  0  0  0  0  0  0  0  0
    5.9486    5.9617   22.2989 H   0  0  0  0  0  0  0  0  0  0  0  0
    4.9914    4.6843   21.5125 H   0  0  0  0  0  0  0  0  0  0  0  0
  1  2  1  0
  2  3  1  0
  3  4  1  0
  4  5  1  0
  5  6  1  0
  5  7  1  0
  5  8  1  0
  4  9  1  0
  9 10  1  0
 10 11  2  0
 11 12  1  0
 12 13  1  0
 13 14  2  0
 14 15  1  0
 15 16  2  0
 16 17  1  0
 17 18  2  0
 18 19  1  0
 16 20  1  0
 15 21  1  0
 14 22  1  0
 12 23  1  0
 12 24  1  0
 11 25  1  0
 25 26  2  0
 26 27  1  0
 27 28  2  0
 28 29  1  0
 29 30  2  0
 30 31  1  0
 31 32  2  0
 32 33  1  0
 33 34  2  0
 34 35  1  0
 35 36  2  0
 36 37  1  0
 34 38  1  0
 32 39  1  0
 31 40  1  0
 29 41  1  0
 28 42  1  0
  4 43  1  0
  3 44  1  0
  3 45  1  0
  1 46  1  0
  1 47  1  0
  1 48  1  0
 26  9  1  0
 36 27  1  0
 18 13  1  0
 35 30  1  0
M  END
>  <cnnaffinity>  (1) 
-6.23539

>  <filename>  (1) 
COCC(C)n1nc(Cc2cccnc2)nc1-c1ccc2ccncc2c1

$$$$
