
     RDKit          3D

 30 30  0  0  0  0  0  0  0  0999 V2000
    5.0780    1.8641   16.9222 H   0  0  0  0  0  0  0  0  0  0  0  0
    5.4948    1.2941   17.7484 C   0  0  0  0  0  0  0  0  0  0  0  0
    6.6206    0.6062   17.4906 N   0  0  0  0  0  0  0  0  0  0  0  0
    7.1748   -0.0734   18.5054 C   0  0  0  0  0  0  0  0  0  0  0  0
    8.0937   -0.6159   18.2909 H   0  0  0  0  0  0  0  0  0  0  0  0
    6.6651   -0.1044   19.8287 C   0  0  0  0  0  0  0  0  0  0  0  0
    7.3361   -0.7419   20.9036 N   0  0  0  0  0  0  0  0  0  0  0  0
    7.5818   -1.7188   20.9186 H   0  0  0  0  0  0  0  0  0  0  0  0
    7.1987   -0.4615   22.2488 C   0  0  0  0  0  0  0  0  0  0  0  0
    7.1301    0.6103   22.9325 N   0  0  0  0  0  0  0  0  0  0  0  0
    7.1460    1.8614   22.2555 N   0  0  0  0  0  0  0  0  0  0  0  0
    7.9351    1.9420   21.6061 H   0  0  0  0  0  0  0  0  0  0  0  0
    7.1682    3.0093   23.1599 C   0  0  0  0  0  0  0  0  0  0  0  0
    7.8476    2.8512   24.0104 H   0  0  0  0  0  0  0  0  0  0  0  0
    6.1656    3.1784   23.5729 H   0  0  0  0  0  0  0  0  0  0  0  0
    7.6221    4.2086   22.3204 C   0  0  0  0  0  0  0  0  0  0  0  0
    7.0746    4.1910   21.3653 H   0  0  0  0  0  0  0  0  0  0  0  0
    8.6929    4.0943   22.0948 H   0  0  0  0  0  0  0  0  0  0  0  0
    7.4620    5.4581   22.9629 O   0  0  0  0  0  0  0  0  0  0  0  0
    6.2881    6.1490   22.5903 C   0  0  0  0  0  0  0  0  0  0  0  0
    5.3775    5.5583   22.7853 H   0  0  0  0  0  0  0  0  0  0  0  0
    6.2966    6.4223   21.5214 H   0  0  0  0  0  0  0  0  0  0  0  0
    6.2490    7.0636   23.1867 H   0  0  0  0  0  0  0  0  0  0  0  0
    7.2412   -1.7009   22.9042 N   0  0  0  0  0  0  0  0  0  0  0  0
    7.1321   -1.4064   23.8716 H   0  0  0  0  0  0  0  0  0  0  0  0
    6.3898   -2.1466   22.6006 H   0  0  0  0  0  0  0  0  0  0  0  0
    5.4697    0.5910   20.0623 C   0  0  0  0  0  0  0  0  0  0  0  0
    5.0657    0.6036   21.0721 H   0  0  0  0  0  0  0  0  0  0  0  0
    4.8811    1.2985   19.0051 C   0  0  0  0  0  0  0  0  0  0  0  0
    3.9758    1.8724   19.1604 H   0  0  0  0  0  0  0  0  0  0  0  0
  1  2  1  0
  2  3  2  0
  3  4  1  0
  4  5  1  0
  4  6  2  0
  6  7  1  0
  7  8  1  0
  7  9  1  0
  9 10  2  3
 10 11  1  0
 11 12  1  0
 11 13  1  0
 13 14  1  0
 13 15  1  0
 13 16  1  0
 16 17  1  0
 16 18  1  0
 16 19  1  0
 19 20  1  0
 20 21  1  0
 20 22  1  0
 20 23  1  0
  9 24  1  0
 24 25  1  0
 24 26  1  0
  6 27  1  0
 27 28  1  0
 27 29  2  0
 29 30  1  0
 29  2  1  0
M  END
>  <cnnaffinity>  (1) 
-4.00942

>  <filename>  (1) 
COCCNN=C(N)Nc1cccnc1

$$$$
