
     RDKit          3D

 42 45  0  0  0  0  0  0  0  0999 V2000
    8.4553   -5.7651   22.9705 C   0  0  0  0  0  0  0  0  0  0  0  0
    7.8811   -4.5001   22.7375 O   0  0  0  0  0  0  0  0  0  0  0  0
    8.7637   -3.5657   22.1482 C   0  0  0  0  0  0  0  0  0  0  0  0
    8.1604   -2.2035   21.9755 C   0  0  0  0  0  0  0  0  0  0  0  0
    7.8069   -1.8034   20.7689 N   0  0  0  0  0  0  0  0  0  0  0  0
    7.3231   -0.5633   20.9779 N   0  0  0  0  0  0  0  0  0  0  0  0
    6.6218    0.0838   19.9297 C   0  0  0  0  0  0  0  0  0  0  0  0
    5.3880    0.7072   20.1444 C   0  0  0  0  0  0  0  0  0  0  0  0
    4.7790    1.3270   19.0516 C   0  0  0  0  0  0  0  0  0  0  0  0
    5.4173    1.2905   17.8072 C   0  0  0  0  0  0  0  0  0  0  0  0
    6.5686    0.6293   17.5863 N   0  0  0  0  0  0  0  0  0  0  0  0
    7.1467    0.0261   18.6263 C   0  0  0  0  0  0  0  0  0  0  0  0
    8.0650   -0.5287   18.4363 H   0  0  0  0  0  0  0  0  0  0  0  0
    4.9999    1.8176   16.9537 H   0  0  0  0  0  0  0  0  0  0  0  0
    3.8365    1.8524   19.1612 H   0  0  0  0  0  0  0  0  0  0  0  0
    4.9332    0.7010   21.1374 H   0  0  0  0  0  0  0  0  0  0  0  0
    7.4579   -0.2546   22.3169 C   0  0  0  0  0  0  0  0  0  0  0  0
    7.1992    1.0698   22.8664 C   0  0  0  0  0  0  0  0  0  0  0  0
    7.4871    2.2434   22.1656 C   0  0  0  0  0  0  0  0  0  0  0  0
    7.1953    3.5048   22.7252 C   0  0  0  0  0  0  0  0  0  0  0  0
    7.6024    4.9344   21.8066 Cl  0  0  0  0  0  0  0  0  0  0  0  0
    6.6000    3.6264   23.9660 C   0  0  0  0  0  0  0  0  0  0  0  0
    6.2915    2.4416   24.7072 C   0  0  0  0  0  0  0  0  0  0  0  0
    5.6711    2.4560   25.9989 C   0  0  0  0  0  0  0  0  0  0  0  0
    5.4002    1.2640   26.6287 C   0  0  0  0  0  0  0  0  0  0  0  0
    5.7285    0.0306   25.9809 C   0  0  0  0  0  0  0  0  0  0  0  0
    5.4457   -1.2823   26.6651 C   0  0  0  0  0  0  0  0  0  0  0  0
    5.8290   -2.1191   26.0778 H   0  0  0  0  0  0  0  0  0  0  0  0
    4.3711   -1.4229   26.8078 H   0  0  0  0  0  0  0  0  0  0  0  0
    5.9154   -1.3082   27.6518 H   0  0  0  0  0  0  0  0  0  0  0  0
    6.2886   -0.0223   24.8030 N   0  0  0  0  0  0  0  0  0  0  0  0
    6.6037    1.1392   24.1597 C   0  0  0  0  0  0  0  0  0  0  0  0
    4.9471    1.2071   27.6133 H   0  0  0  0  0  0  0  0  0  0  0  0
    5.4222    3.4086   26.4680 H   0  0  0  0  0  0  0  0  0  0  0  0
    6.3601    4.6159   24.3582 H   0  0  0  0  0  0  0  0  0  0  0  0
    7.9127    2.1999   21.1648 H   0  0  0  0  0  0  0  0  0  0  0  0
    7.9969   -1.2818   22.9468 N   0  0  0  0  0  0  0  0  0  0  0  0
    9.6896   -3.4511   22.7362 H   0  0  0  0  0  0  0  0  0  0  0  0
    8.9975   -3.8645   21.1186 H   0  0  0  0  0  0  0  0  0  0  0  0
    7.6456   -6.4290   23.2748 H   0  0  0  0  0  0  0  0  0  0  0  0
    9.1921   -5.7183   23.7834 H   0  0  0  0  0  0  0  0  0  0  0  0
    8.9319   -6.1922   22.0737 H   0  0  0  0  0  0  0  0  0  0  0  0
  1  2  1  0
  2  3  1  0
  3  4  1  0
  4  5  2  0
  5  6  1  0
  6  7  1  0
  7  8  2  0
  8  9  1  0
  9 10  2  0
 10 11  1  0
 11 12  2  0
 12 13  1  0
 10 14  1  0
  9 15  1  0
  8 16  1  0
  6 17  1  0
 17 18  1  0
 18 19  2  0
 19 20  1  0
 20 21  1  0
 20 22  2  0
 22 23  1  0
 23 24  2  0
 24 25  1  0
 25 26  2  0
 26 27  1  0
 27 28  1  0
 27 29  1  0
 27 30  1  0
 26 31  1  0
 31 32  2  0
 25 33  1  0
 24 34  1  0
 22 35  1  0
 19 36  1  0
 17 37  2  0
  3 38  1  0
  3 39  1  0
  1 40  1  0
  1 41  1  0
  1 42  1  0
 37  4  1  0
 12  7  1  0
 32 18  1  0
 32 23  1  0
M  END
>  <cnnaffinity>  (1) 
-5.83834

>  <filename>  (1) 
COCc1nc(-c2cc(Cl)cc3ccc(C)nc23)n(-c2cccnc2)n1

$$$$
