
     RDKit          3D

 44 47  0  0  0  0  0  0  0  0999 V2000
   13.8434    0.0252   22.5598 C   0  0  0  0  0  0  0  0  0  0  0  0
   12.4953    0.3573   22.7851 O   0  0  0  0  0  0  0  0  0  0  0  0
   11.5181   -0.3736   22.0712 C   0  0  0  0  0  0  0  0  0  0  0  0
   11.1692   -1.6782   22.7886 C   0  0  0  0  0  0  0  0  0  0  0  0
   10.0660   -2.4941   22.1202 C   0  0  0  0  0  0  0  0  0  0  0  0
    8.7907   -1.8130   21.9419 N   0  0  0  0  0  0  0  0  0  0  0  0
    8.4576   -1.3482   20.7207 N   0  0  0  0  0  0  0  0  0  0  0  0
    7.3178   -0.7215   20.9370 C   0  0  0  0  0  0  0  0  0  0  0  0
    6.6198   -0.0029   19.8841 C   0  0  0  0  0  0  0  0  0  0  0  0
    5.4129    0.6613   20.1319 C   0  0  0  0  0  0  0  0  0  0  0  0
    4.8018    1.3164   19.0708 C   0  0  0  0  0  0  0  0  0  0  0  0
    5.4220    1.2940   17.8161 C   0  0  0  0  0  0  0  0  0  0  0  0
    6.5848    0.6664   17.5732 N   0  0  0  0  0  0  0  0  0  0  0  0
    7.1738    0.0371   18.5946 C   0  0  0  0  0  0  0  0  0  0  0  0
    8.1274   -0.4511   18.3818 H   0  0  0  0  0  0  0  0  0  0  0  0
    4.9606    1.8036   16.9750 H   0  0  0  0  0  0  0  0  0  0  0  0
    3.8694    1.8461   19.2151 H   0  0  0  0  0  0  0  0  0  0  0  0
    5.0031    0.6559   21.1428 H   0  0  0  0  0  0  0  0  0  0  0  0
    6.8880   -0.7728   22.2201 N   0  0  0  0  0  0  0  0  0  0  0  0
    7.8382   -1.4536   22.8307 C   0  0  0  0  0  0  0  0  0  0  0  0
    7.8886   -1.7693   24.2838 C   0  0  0  0  0  0  0  0  0  0  0  0
    6.5079   -2.0827   24.9780 C   0  0  0  0  0  0  0  0  0  0  0  0
    6.7181   -0.8130   25.7628 C   0  0  0  0  0  0  0  0  0  0  0  0
    7.9705   -0.5550   25.2071 C   0  0  0  0  0  0  0  0  0  0  0  0
    8.7035    0.5877   25.4934 C   0  0  0  0  0  0  0  0  0  0  0  0
    8.1218    1.4730   26.4159 C   0  0  0  0  0  0  0  0  0  0  0  0
    6.8707    1.2257   26.9954 C   0  0  0  0  0  0  0  0  0  0  0  0
    6.1491    0.0694   26.6642 C   0  0  0  0  0  0  0  0  0  0  0  0
    4.5802   -0.1970   27.3628 Cl  0  0  0  0  0  0  0  0  0  0  0  0
    6.4324    1.9312   27.6926 H   0  0  0  0  0  0  0  0  0  0  0  0
    8.6465    2.3828   26.6874 H   0  0  0  0  0  0  0  0  0  0  0  0
    9.6692    0.8253   25.0486 H   0  0  0  0  0  0  0  0  0  0  0  0
    5.6518   -2.0716   24.3026 H   0  0  0  0  0  0  0  0  0  0  0  0
    6.5046   -3.0007   25.5720 H   0  0  0  0  0  0  0  0  0  0  0  0
    8.6408   -2.5385   24.4675 H   0  0  0  0  0  0  0  0  0  0  0  0
   10.3564   -2.7562   21.1081 H   0  0  0  0  0  0  0  0  0  0  0  0
    9.8971   -3.4304   22.6621 H   0  0  0  0  0  0  0  0  0  0  0  0
   10.8825   -1.4549   23.8249 H   0  0  0  0  0  0  0  0  0  0  0  0
   12.0662   -2.3087   22.8078 H   0  0  0  0  0  0  0  0  0  0  0  0
   11.8248   -0.5746   21.0263 H   0  0  0  0  0  0  0  0  0  0  0  0
   10.6504    0.2895   22.0335 H   0  0  0  0  0  0  0  0  0  0  0  0
   14.4151    0.5436   23.3346 H   0  0  0  0  0  0  0  0  0  0  0  0
   14.1959    0.3724   21.5815 H   0  0  0  0  0  0  0  0  0  0  0  0
   14.0631   -1.0520   22.6353 H   0  0  0  0  0  0  0  0  0  0  0  0
  1  2  1  0
  2  3  1  0
  3  4  1  0
  4  5  1  0
  5  6  1  0
  6  7  1  0
  7  8  2  0
  8  9  1  0
  9 10  2  0
 10 11  1  0
 11 12  2  0
 12 13  1  0
 13 14  2  0
 14 15  1  0
 12 16  1  0
 11 17  1  0
 10 18  1  0
  8 19  1  0
 19 20  2  0
 20 21  1  0
 21 22  1  0
 22 23  1  0
 23 24  2  0
 24 25  1  0
 25 26  2  0
 26 27  1  0
 27 28  2  0
 28 29  1  0
 27 30  1  0
 26 31  1  0
 25 32  1  0
 22 33  1  0
 22 34  1  0
 21 35  1  0
  5 36  1  0
  5 37  1  0
  4 38  1  0
  4 39  1  0
  3 40  1  0
  3 41  1  0
  1 42  1  0
  1 43  1  0
  1 44  1  0
 20  6  1  0
 24 21  1  0
 14  9  1  0
 28 23  1  0
M  END
>  <cnnaffinity>  (1) 
-6.04933

>  <filename>  (1) 
COCCCn1nc(-c2cccnc2)nc1C1Cc2c(Cl)cccc21

$$$$
