
     RDKit          3D

 43 44  0  0  0  0  0  0  0  0999 V2000
    2.8335    1.1845   29.3756 C   0  0  0  0  0  0  0  0  0  0  0  0
    3.2997    0.2626   28.4228 O   0  0  0  0  0  0  0  0  0  0  0  0
    4.4412   -0.5038   28.7531 C   0  0  0  0  0  0  0  0  0  0  0  0
    4.7384   -1.3480   27.5049 C   0  0  0  0  0  0  0  0  0  0  0  0
    5.7069   -2.3937   27.7103 O   0  0  0  0  0  0  0  0  0  0  0  0
    5.5923   -2.7752   28.5930 H   0  0  0  0  0  0  0  0  0  0  0  0
    5.2990   -0.4936   26.3655 C   0  0  0  0  0  0  0  0  0  0  0  0
    5.4135   -1.2585   25.0638 C   0  0  0  0  0  0  0  0  0  0  0  0
    6.4811   -2.2946   25.1981 N   0  0  0  0  0  4  0  0  0  0  0  0
    6.6359   -3.1023   23.9655 C   0  0  0  0  0  0  0  0  0  0  0  0
    7.3435   -2.2520   22.9244 C   0  0  0  0  0  0  0  0  0  0  0  0
    8.7165   -2.0069   23.0597 C   0  0  0  0  0  0  0  0  0  0  0  0
    9.4113   -1.2165   22.2347 N   0  0  0  0  0  0  0  0  0  0  0  0
    8.7596   -0.6116   21.2360 C   0  0  0  0  0  0  0  0  0  0  0  0
    7.3773   -0.7533   20.9925 C   0  0  0  0  0  0  0  0  0  0  0  0
    6.6703   -0.0176   19.8862 C   0  0  0  0  0  0  0  0  0  0  0  0
    5.4560    0.6448   20.1259 C   0  0  0  0  0  0  0  0  0  0  0  0
    4.8247    1.3187   19.0764 C   0  0  0  0  0  0  0  0  0  0  0  0
    5.4124    1.3132   17.8100 C   0  0  0  0  0  0  0  0  0  0  0  0
    6.5642    0.6753   17.5472 N   0  0  0  0  0  0  0  0  0  0  0  0
    7.1638    0.0422   18.5638 C   0  0  0  0  0  0  0  0  0  0  0  0
    8.0899   -0.4696   18.3029 H   0  0  0  0  0  0  0  0  0  0  0  0
    4.9420    1.8335   16.9750 H   0  0  0  0  0  0  0  0  0  0  0  0
    3.8960    1.8530   19.2253 H   0  0  0  0  0  0  0  0  0  0  0  0
    5.0228    0.6520   21.1260 H   0  0  0  0  0  0  0  0  0  0  0  0
    6.6771   -1.5988   21.8756 C   0  0  0  0  0  0  0  0  0  0  0  0
    5.6026   -1.7348   21.7402 H   0  0  0  0  0  0  0  0  0  0  0  0
    9.3682    0.0385   20.5991 H   0  0  0  0  0  0  0  0  0  0  0  0
    9.2954   -2.4841   23.8567 H   0  0  0  0  0  0  0  0  0  0  0  0
    7.1855   -4.0237   24.1793 H   0  0  0  0  0  0  0  0  0  0  0  0
    5.6460   -3.3993   23.5969 H   0  0  0  0  0  0  0  0  0  0  0  0
    7.3859   -1.7945   25.3472 H   0  0  0  0  0  0  0  0  0  0  0  0
    6.2548   -2.8223   26.0737 H   0  0  0  0  0  0  0  0  0  0  0  0
    4.4518   -1.7452   24.8236 H   0  0  0  0  0  0  0  0  0  0  0  0
    5.6301   -0.5851   24.2252 H   0  0  0  0  0  0  0  0  0  0  0  0
    6.2855   -0.1078   26.6610 H   0  0  0  0  0  0  0  0  0  0  0  0
    4.6522    0.3738   26.2153 H   0  0  0  0  0  0  0  0  0  0  0  0
    3.7831   -1.8043   27.1999 H   0  0  0  0  0  0  0  0  0  0  0  0
    4.2594   -1.1520   29.6272 H   0  0  0  0  0  0  0  0  0  0  0  0
    5.3173    0.1235   28.9909 H   0  0  0  0  0  0  0  0  0  0  0  0
    3.5717    1.9681   29.6029 H   0  0  0  0  0  0  0  0  0  0  0  0
    1.9490    1.6551   28.9339 H   0  0  0  0  0  0  0  0  0  0  0  0
    2.5402    0.7041   30.3207 H   0  0  0  0  0  0  0  0  0  0  0  0
  1  2  1  0
  2  3  1  0
  3  4  1  0
  4  5  1  0
  5  6  1  0
  4  7  1  0
  7  8  1  0
  8  9  1  0
  9 10  1  0
 10 11  1  0
 11 12  2  0
 12 13  1  0
 13 14  2  0
 14 15  1  0
 15 16  1  0
 16 17  2  0
 17 18  1  0
 18 19  2  0
 19 20  1  0
 20 21  2  0
 21 22  1  0
 19 23  1  0
 18 24  1  0
 17 25  1  0
 15 26  2  0
 26 27  1  0
 14 28  1  0
 12 29  1  0
 10 30  1  0
 10 31  1  0
  9 32  1  0
  9 33  1  0
  8 34  1  0
  8 35  1  0
  7 36  1  0
  7 37  1  0
  4 38  1  0
  3 39  1  0
  3 40  1  0
  1 41  1  0
  1 42  1  0
  1 43  1  0
 26 11  1  0
 21 16  1  0
M  CHG  1   9   1
M  END
>  <cnnaffinity>  (1) 
-4.20282

>  <filename>  (1) 
COCC(O)CC[NH2+]Cc1cncc(-c2cccnc2)c1

$$$$
