
     RDKit          3D

 37 38  0  0  0  0  0  0  0  0999 V2000
    4.9573    1.7934   16.9465 H   0  0  0  0  0  0  0  0  0  0  0  0
    5.4218    1.3089   17.8021 C   0  0  0  0  0  0  0  0  0  0  0  0
    6.5839    0.6814   17.5763 N   0  0  0  0  0  0  0  0  0  0  0  0
    7.1713    0.0875   18.6270 C   0  0  0  0  0  0  0  0  0  0  0  0
    8.1136   -0.4085   18.3955 H   0  0  0  0  0  0  0  0  0  0  0  0
    6.6718    0.0847   19.9367 C   0  0  0  0  0  0  0  0  0  0  0  0
    7.4626   -0.7045   20.9875 C   0  0  0  0  0  0  0  0  0  0  0  0
    7.5510   -2.1335   20.6417 N   0  0  0  0  0  0  0  0  0  0  0  0
    8.2522   -2.2395   19.9190 H   0  0  0  0  0  0  0  0  0  0  0  0
    6.3296   -2.8399   20.2206 C   0  0  0  0  0  0  0  0  0  0  0  0
    6.1058   -2.7059   19.1491 H   0  0  0  0  0  0  0  0  0  0  0  0
    5.4560   -2.4621   20.7593 H   0  0  0  0  0  0  0  0  0  0  0  0
    6.4549   -4.3214   20.5302 C   0  0  0  0  0  0  0  0  0  0  0  0
    7.4445   -4.6794   20.2120 H   0  0  0  0  0  0  0  0  0  0  0  0
    6.4253   -4.4824   21.6226 H   0  0  0  0  0  0  0  0  0  0  0  0
    5.4304   -5.0169   19.8521 O   0  0  0  0  0  0  0  0  0  0  0  0
    5.6755   -6.3939   19.7968 C   0  0  0  0  0  0  0  0  0  0  0  0
    4.9195   -6.8635   19.1714 H   0  0  0  0  0  0  0  0  0  0  0  0
    6.6632   -6.5863   19.3506 H   0  0  0  0  0  0  0  0  0  0  0  0
    5.6320   -6.8643   20.7925 H   0  0  0  0  0  0  0  0  0  0  0  0
    8.9056   -0.1564   21.0931 C   0  0  0  0  0  0  0  0  0  0  0  0
    8.8609    0.9227   21.2791 H   0  0  0  0  0  0  0  0  0  0  0  0
    9.4458   -0.2957   20.1512 H   0  0  0  0  0  0  0  0  0  0  0  0
    9.6966   -0.8006   22.2326 C   0  0  0  0  0  0  0  0  0  0  0  0
    9.9357   -1.8515   22.0003 H   0  0  0  0  0  0  0  0  0  0  0  0
   10.6472   -0.2799   22.3866 H   0  0  0  0  0  0  0  0  0  0  0  0
    9.0047   -0.7000   23.4640 O   0  0  0  0  0  0  0  0  0  0  0  0
    7.7245   -1.3049   23.4403 C   0  0  0  0  0  0  0  0  0  0  0  0
    7.8047   -2.3904   23.2606 H   0  0  0  0  0  0  0  0  0  0  0  0
    7.3060   -1.1536   24.4407 H   0  0  0  0  0  0  0  0  0  0  0  0
    6.8231   -0.6752   22.3834 C   0  0  0  0  0  0  0  0  0  0  0  0
    6.5594    0.3447   22.6754 H   0  0  0  0  0  0  0  0  0  0  0  0
    5.9065   -1.2525   22.3246 H   0  0  0  0  0  0  0  0  0  0  0  0
    5.4390    0.7259   20.1424 C   0  0  0  0  0  0  0  0  0  0  0  0
    4.9743    0.7474   21.1299 H   0  0  0  0  0  0  0  0  0  0  0  0
    4.8074    1.3431   19.0582 C   0  0  0  0  0  0  0  0  0  0  0  0
    3.8592    1.8553   19.1804 H   0  0  0  0  0  0  0  0  0  0  0  0
  1  2  1  0
  2  3  2  0
  3  4  1  0
  4  5  1  0
  4  6  2  0
  6  7  1  0
  7  8  1  0
  8  9  1  0
  8 10  1  0
 10 11  1  0
 10 12  1  0
 10 13  1  0
 13 14  1  0
 13 15  1  0
 13 16  1  0
 16 17  1  0
 17 18  1  0
 17 19  1  0
 17 20  1  0
  7 21  1  0
 21 22  1  0
 21 23  1  0
 21 24  1  0
 24 25  1  0
 24 26  1  0
 24 27  1  0
 27 28  1  0
 28 29  1  0
 28 30  1  0
 28 31  1  0
 31 32  1  0
 31 33  1  0
  6 34  1  0
 34 35  1  0
 34 36  2  0
 36 37  1  0
 36  2  1  0
 31  7  1  0
M  END
>  <cnnaffinity>  (1) 
-4.45139

>  <filename>  (1) 
COCCNC1(c2cccnc2)CCOCC1

$$$$
