
     RDKit          3D

 44 47  0  0  0  0  0  0  0  0999 V2000
    6.2992   -5.8163   25.3292 C   0  0  0  0  0  0  0  0  0  0  0  0
    5.9052   -4.9872   24.2676 O   0  0  0  0  0  0  0  0  0  0  0  0
    6.8467   -4.0387   23.8233 C   0  0  0  0  0  0  0  0  0  0  0  0
    7.5954   -4.5436   22.5906 C   0  0  0  0  0  0  0  0  0  0  0  0
    8.6545   -3.5621   22.0484 C   0  0  0  0  0  0  0  0  0  0  0  0
    8.1952   -2.1548   21.8590 C   0  0  0  0  0  0  0  0  0  0  0  0
    7.7631   -1.7674   20.6815 N   0  0  0  0  0  0  0  0  0  0  0  0
    7.3040   -0.5137   20.9131 N   0  0  0  0  0  0  0  0  0  0  0  0
    6.5758    0.1098   19.8690 C   0  0  0  0  0  0  0  0  0  0  0  0
    5.3386    0.7311   20.0688 C   0  0  0  0  0  0  0  0  0  0  0  0
    4.7565    1.3660   18.9703 C   0  0  0  0  0  0  0  0  0  0  0  0
    5.4075    1.3352   17.7317 C   0  0  0  0  0  0  0  0  0  0  0  0
    6.5632    0.6764   17.5260 N   0  0  0  0  0  0  0  0  0  0  0  0
    7.1119    0.0550   18.5680 C   0  0  0  0  0  0  0  0  0  0  0  0
    8.0210   -0.5185   18.3971 H   0  0  0  0  0  0  0  0  0  0  0  0
    4.9750    1.8243   16.8640 H   0  0  0  0  0  0  0  0  0  0  0  0
    3.8031    1.8721   19.0598 H   0  0  0  0  0  0  0  0  0  0  0  0
    4.8512    0.7065   21.0462 H   0  0  0  0  0  0  0  0  0  0  0  0
    7.5584   -0.1717   22.2231 C   0  0  0  0  0  0  0  0  0  0  0  0
    7.3323    1.1483   22.7954 C   0  0  0  0  0  0  0  0  0  0  0  0
    7.0211    1.3791   24.1505 C   0  0  0  0  0  0  0  0  0  0  0  0
    6.7939    0.5464   25.2847 C   0  0  0  0  0  0  0  0  0  0  0  0
    6.4753    1.1046   26.5037 C   0  0  0  0  0  0  0  0  0  0  0  0
    6.3752    2.5302   26.6347 C   0  0  0  0  0  0  0  0  0  0  0  0
    6.5945    3.3270   25.5431 C   0  0  0  0  0  0  0  0  0  0  0  0
    6.9104    2.7613   24.3154 N   0  0  0  0  0  0  0  0  0  0  0  0
    7.1480    3.3816   23.1024 C   0  0  0  0  0  0  0  0  0  0  0  0
    7.4062    2.4229   22.1633 C   0  0  0  0  0  0  0  0  0  0  0  0
    7.6253    2.6132   21.1169 H   0  0  0  0  0  0  0  0  0  0  0  0
    7.1018    4.4603   23.0292 H   0  0  0  0  0  0  0  0  0  0  0  0
    6.5290    4.4099   25.5507 H   0  0  0  0  0  0  0  0  0  0  0  0
    6.1182    2.9804   27.5925 H   0  0  0  0  0  0  0  0  0  0  0  0
    6.2942    0.4712   27.3708 H   0  0  0  0  0  0  0  0  0  0  0  0
    6.8968   -0.5220   25.1375 H   0  0  0  0  0  0  0  0  0  0  0  0
    8.1078   -1.2216   22.8330 N   0  0  0  0  0  0  0  0  0  0  0  0
    8.9382   -3.8854   21.0451 H   0  0  0  0  0  0  0  0  0  0  0  0
    9.5398   -3.5361   22.6920 H   0  0  0  0  0  0  0  0  0  0  0  0
    8.0842   -5.4991   22.8230 H   0  0  0  0  0  0  0  0  0  0  0  0
    6.8489   -4.7598   21.8146 H   0  0  0  0  0  0  0  0  0  0  0  0
    7.5488   -3.7220   24.6171 H   0  0  0  0  0  0  0  0  0  0  0  0
    6.2690   -3.1555   23.5412 H   0  0  0  0  0  0  0  0  0  0  0  0
    6.2153   -5.3157   26.3022 H   0  0  0  0  0  0  0  0  0  0  0  0
    7.3348   -6.1809   25.2433 H   0  0  0  0  0  0  0  0  0  0  0  0
    5.6181   -6.6692   25.3118 H   0  0  0  0  0  0  0  0  0  0  0  0
  1  2  1  0
  2  3  1  0
  3  4  1  0
  4  5  1  0
  5  6  1  0
  6  7  2  0
  7  8  1  0
  8  9  1  0
  9 10  2  0
 10 11  1  0
 11 12  2  0
 12 13  1  0
 13 14  2  0
 14 15  1  0
 12 16  1  0
 11 17  1  0
 10 18  1  0
  8 19  1  0
 19 20  1  0
 20 21  2  0
 21 22  1  0
 22 23  2  0
 23 24  1  0
 24 25  2  0
 25 26  1  0
 26 27  1  0
 27 28  2  0
 28 29  1  0
 27 30  1  0
 25 31  1  0
 24 32  1  0
 23 33  1  0
 22 34  1  0
 19 35  2  0
  5 36  1  0
  5 37  1  0
  4 38  1  0
  4 39  1  0
  3 40  1  0
  3 41  1  0
  1 42  1  0
  1 43  1  0
  1 44  1  0
 35  6  1  0
 14  9  1  0
 28 20  1  0
 26 21  1  0
M  END
>  <cnnaffinity>  (1) 
-5.79989

>  <filename>  (1) 
COCCCc1nc(-c2ccn3ccccc23)n(-c2cccnc2)n1

$$$$
