
     RDKit          3D

 45 47  0  0  0  0  0  0  0  0999 V2000
    8.3685    7.1821   23.1227 C   0  0  0  0  0  0  0  0  0  0  0  0
    9.1594    7.4238   24.2665 O   0  0  0  0  0  0  0  0  0  0  0  0
   10.2169    6.5028   24.4517 C   0  0  0  0  0  0  0  0  0  0  0  0
    9.7359    5.0925   24.6961 C   0  0  0  0  0  0  0  0  0  0  0  0
    9.2191    4.7455   25.9502 C   0  0  0  0  0  0  0  0  0  0  0  0
    8.7167    3.5434   26.2511 N   0  0  0  0  0  0  0  0  0  0  0  0
    8.6740    2.6267   25.2827 C   0  0  0  0  0  0  0  0  0  0  0  0
    9.1477    2.8641   23.9908 C   0  0  0  0  0  0  0  0  0  0  0  0
    9.0284    1.7791   23.0219 C   0  0  0  0  0  0  0  0  0  0  0  0
    7.9591    1.0461   22.7711 N   0  0  0  0  0  0  0  0  0  0  0  0
    8.3517    0.2920   21.7131 C   0  0  0  0  0  0  0  0  0  0  0  0
    7.4463   -0.6571   20.9771 C   0  0  0  0  0  0  0  0  0  0  0  0
    6.6734   -0.0099   19.8323 C   0  0  0  0  0  0  0  0  0  0  0  0
    5.4648    0.6458   20.0894 C   0  0  0  0  0  0  0  0  0  0  0  0
    4.8177    1.3145   19.0487 C   0  0  0  0  0  0  0  0  0  0  0  0
    5.4067    1.2973   17.7805 C   0  0  0  0  0  0  0  0  0  0  0  0
    6.5506    0.6553   17.5025 N   0  0  0  0  0  0  0  0  0  0  0  0
    7.1559    0.0152   18.5114 C   0  0  0  0  0  0  0  0  0  0  0  0
    8.0797   -0.5111   18.2654 H   0  0  0  0  0  0  0  0  0  0  0  0
    4.9391    1.8171   16.9470 H   0  0  0  0  0  0  0  0  0  0  0  0
    3.8881    1.8475   19.2090 H   0  0  0  0  0  0  0  0  0  0  0  0
    5.0496    0.6278   21.0994 H   0  0  0  0  0  0  0  0  0  0  0  0
    6.7423   -1.0599   21.7138 H   0  0  0  0  0  0  0  0  0  0  0  0
    8.0651   -1.4830   20.6078 H   0  0  0  0  0  0  0  0  0  0  0  0
    9.6042    0.4700   21.3362 N   0  0  0  0  0  0  0  0  0  0  0  0
   10.0516    1.3990   22.2152 N   0  0  0  0  0  0  0  0  0  0  0  0
   11.4767    1.7253   22.2606 C   0  0  0  0  0  0  0  0  0  0  0  0
   11.8831    2.4090   20.9608 C   0  0  0  0  0  0  0  0  0  0  0  0
   12.0866    1.6687   20.2069 H   0  0  0  0  0  0  0  0  0  0  0  0
   11.0554    2.9959   20.5779 H   0  0  0  0  0  0  0  0  0  0  0  0
   12.7467    3.0655   21.0786 H   0  0  0  0  0  0  0  0  0  0  0  0
   12.3023    0.4607   22.6203 C   0  0  0  0  0  0  0  0  0  0  0  0
   12.1632    0.1441   23.9247 F   0  0  0  0  0  0  0  0  0  0  0  0
   12.0040   -0.6164   21.8912 F   0  0  0  0  0  0  0  0  0  0  0  0
   13.6117    0.7110   22.4251 F   0  0  0  0  0  0  0  0  0  0  0  0
   11.6449    2.4094   23.0938 H   0  0  0  0  0  0  0  0  0  0  0  0
    9.6750    4.1282   23.6888 C   0  0  0  0  0  0  0  0  0  0  0  0
    9.9870    4.3702   22.6673 H   0  0  0  0  0  0  0  0  0  0  0  0
    8.2497    1.6622   25.5464 H   0  0  0  0  0  0  0  0  0  0  0  0
    9.2256    5.4702   26.7594 H   0  0  0  0  0  0  0  0  0  0  0  0
   10.9090    6.5299   23.5935 H   0  0  0  0  0  0  0  0  0  0  0  0
   10.7532    6.8843   25.3269 H   0  0  0  0  0  0  0  0  0  0  0  0
    8.9607    7.1719   22.1906 H   0  0  0  0  0  0  0  0  0  0  0  0
    7.6483    8.0004   23.0644 H   0  0  0  0  0  0  0  0  0  0  0  0
    7.8233    6.2292   23.2032 H   0  0  0  0  0  0  0  0  0  0  0  0
  1  2  1  0
  2  3  1  0
  3  4  1  0
  4  5  2  0
  5  6  1  0
  6  7  2  0
  7  8  1  0
  8  9  1  0
  9 10  2  0
 10 11  1  0
 11 12  1  0
 12 13  1  0
 13 14  2  0
 14 15  1  0
 15 16  2  0
 16 17  1  0
 17 18  2  0
 18 19  1  0
 16 20  1  0
 15 21  1  0
 14 22  1  0
 12 23  1  0
 12 24  1  0
 11 25  2  0
 25 26  1  0
 26 27  1  0
 27 28  1  0
 28 29  1  0
 28 30  1  0
 28 31  1  0
 27 32  1  0
 32 33  1  0
 32 34  1  0
 32 35  1  0
 27 36  1  0
  8 37  2  0
 37 38  1  0
  7 39  1  0
  5 40  1  0
  3 41  1  0
  3 42  1  0
  1 43  1  0
  1 44  1  0
  1 45  1  0
 37  4  1  0
 26  9  1  0
 18 13  1  0
M  END
>  <cnnaffinity>  (1) 
-5.74638

>  <filename>  (1) 
COCc1cncc(-c2nc(Cc3cccnc3)nn2C(C)C(F)(F)F)c1

$$$$
