
     RDKit          3D

 46 49  0  0  0  0  0  0  0  0999 V2000
    7.0914    5.5067   22.3910 C   0  0  0  0  0  0  0  0  0  0  0  0
    8.1201    4.6410   22.8112 O   0  0  0  0  0  0  0  0  0  0  0  0
    7.7814    3.8494   23.9322 C   0  0  0  0  0  0  0  0  0  0  0  0
    8.8767    2.7996   24.1452 C   0  0  0  0  0  0  0  0  0  0  0  0
    8.7858    2.0745   25.4920 C   0  0  0  0  0  0  0  0  0  0  0  0
    8.8318    2.7947   26.3172 H   0  0  0  0  0  0  0  0  0  0  0  0
    9.6284    1.3844   25.6085 H   0  0  0  0  0  0  0  0  0  0  0  0
    7.8578    1.5012   25.5908 H   0  0  0  0  0  0  0  0  0  0  0  0
    8.9188    1.8471   23.0190 N   0  0  0  0  0  0  0  0  0  0  0  0
    7.8297    1.1014   22.7211 N   0  0  0  0  0  0  0  0  0  0  0  0
    8.2357    0.3576   21.7107 C   0  0  0  0  0  0  0  0  0  0  0  0
    7.3499   -0.6267   20.9950 C   0  0  0  0  0  0  0  0  0  0  0  0
    6.5856   -0.0112   19.8288 C   0  0  0  0  0  0  0  0  0  0  0  0
    5.3704    0.6474   20.0493 C   0  0  0  0  0  0  0  0  0  0  0  0
    4.7625    1.3275   18.9921 C   0  0  0  0  0  0  0  0  0  0  0  0
    5.3875    1.3106   17.7436 C   0  0  0  0  0  0  0  0  0  0  0  0
    6.5271    0.6467   17.4948 N   0  0  0  0  0  0  0  0  0  0  0  0
    7.0995    0.0024   18.5196 C   0  0  0  0  0  0  0  0  0  0  0  0
    8.0222   -0.5348   18.2872 H   0  0  0  0  0  0  0  0  0  0  0  0
    4.9581    1.8479   16.9000 H   0  0  0  0  0  0  0  0  0  0  0  0
    3.8383    1.8777   19.1272 H   0  0  0  0  0  0  0  0  0  0  0  0
    4.9245    0.6288   21.0445 H   0  0  0  0  0  0  0  0  0  0  0  0
    8.0011   -1.4337   20.6418 H   0  0  0  0  0  0  0  0  0  0  0  0
    6.6548   -1.0568   21.7266 H   0  0  0  0  0  0  0  0  0  0  0  0
    9.5260    0.5570   21.3473 N   0  0  0  0  0  0  0  0  0  0  0  0
    9.9487    1.4684   22.2100 C   0  0  0  0  0  0  0  0  0  0  0  0
   11.2790    2.0776   22.3439 C   0  0  0  0  0  0  0  0  0  0  0  0
   11.4529    3.4738   22.3469 C   0  0  0  0  0  0  0  0  0  0  0  0
   12.7086    4.0598   22.5735 C   0  0  0  0  0  0  0  0  0  0  0  0
   13.8397    3.2828   22.7794 C   0  0  0  0  0  0  0  0  0  0  0  0
   13.6816    1.8932   22.7078 C   0  0  0  0  0  0  0  0  0  0  0  0
   12.4314    1.2721   22.4973 C   0  0  0  0  0  0  0  0  0  0  0  0
   12.5923   -0.1056   22.4430 N   0  0  0  0  0  0  0  0  0  0  0  0
   13.8702   -0.3010   22.5533 C   0  0  0  0  0  0  0  0  0  0  0  0
   14.5881    0.8498   22.7335 N   0  0  0  0  0  0  0  0  0  0  0  0
   15.5865    0.9411   22.6844 H   0  0  0  0  0  0  0  0  0  0  0  0
   14.3491   -1.2748   22.4872 H   0  0  0  0  0  0  0  0  0  0  0  0
   14.8013    3.7692   22.9079 H   0  0  0  0  0  0  0  0  0  0  0  0
   12.8047    5.1396   22.5850 H   0  0  0  0  0  0  0  0  0  0  0  0
   10.5963    4.1273   22.2103 H   0  0  0  0  0  0  0  0  0  0  0  0
    9.8196    3.3409   24.1345 H   0  0  0  0  0  0  0  0  0  0  0  0
    6.8161    3.3374   23.7864 H   0  0  0  0  0  0  0  0  0  0  0  0
    7.7021    4.4808   24.8349 H   0  0  0  0  0  0  0  0  0  0  0  0
    7.4035    5.9365   21.4371 H   0  0  0  0  0  0  0  0  0  0  0  0
    6.1383    4.9739   22.2365 H   0  0  0  0  0  0  0  0  0  0  0  0
    6.9215    6.3236   23.1104 H   0  0  0  0  0  0  0  0  0  0  0  0
  1  2  1  0
  2  3  1  0
  3  4  1  0
  4  5  1  0
  5  6  1  0
  5  7  1  0
  5  8  1  0
  4  9  1  0
  9 10  1  0
 10 11  2  0
 11 12  1  0
 12 13  1  0
 13 14  2  0
 14 15  1  0
 15 16  2  0
 16 17  1  0
 17 18  2  0
 18 19  1  0
 16 20  1  0
 15 21  1  0
 14 22  1  0
 12 23  1  0
 12 24  1  0
 11 25  1  0
 25 26  2  0
 26 27  1  0
 27 28  2  0
 28 29  1  0
 29 30  2  0
 30 31  1  0
 31 32  2  0
 32 33  1  0
 33 34  2  0
 34 35  1  0
 35 36  1  0
 34 37  1  0
 30 38  1  0
 29 39  1  0
 28 40  1  0
  4 41  1  0
  3 42  1  0
  3 43  1  0
  1 44  1  0
  1 45  1  0
  1 46  1  0
 26  9  1  0
 32 27  1  0
 18 13  1  0
 35 31  1  0
M  END
>  <cnnaffinity>  (1) 
-6.46461

>  <filename>  (1) 
COCC(C)n1nc(Cc2cccnc2)nc1-c1cccc2[nH]cnc12

$$$$
