
     RDKit          3D

 35 37  0  0  0  0  0  0  0  0999 V2000
    4.8148    1.9162   16.9081 H   0  0  0  0  0  0  0  0  0  0  0  0
    5.3602    1.4045   17.7003 C   0  0  0  0  0  0  0  0  0  0  0  0
    6.5253    0.8376   17.3465 N   0  0  0  0  0  0  0  0  0  0  0  0
    7.2171    0.1875   18.2916 C   0  0  0  0  0  0  0  0  0  0  0  0
    8.1604   -0.2530   17.9834 H   0  0  0  0  0  0  0  0  0  0  0  0
    6.7744    0.0424   19.6279 C   0  0  0  0  0  0  0  0  0  0  0  0
    7.4791   -0.7425   20.6222 N   0  0  0  0  0  0  0  0  0  0  0  0
    8.7792   -0.5485   21.0632 C   0  0  0  0  0  0  0  0  0  0  0  0
    9.5568    0.2584   20.6300 O   0  0  0  0  0  0  0  0  0  0  0  0
    8.9694   -1.5686   22.2030 C   0  0  0  0  0  0  0  0  0  0  0  0
    9.9711   -1.7752   22.8359 O   0  0  0  0  0  0  0  0  0  0  0  0
    7.7442   -2.2077   22.3468 N   0  0  0  0  0  0  0  0  0  0  0  0
    7.3974   -3.1539   23.3773 C   0  0  0  0  0  0  0  0  0  0  0  0
    6.3227   -4.0422   23.2167 C   0  0  0  0  0  0  0  0  0  0  0  0
    5.7235   -3.9744   22.3211 H   0  0  0  0  0  0  0  0  0  0  0  0
    6.0227   -4.9585   24.2345 C   0  0  0  0  0  0  0  0  0  0  0  0
    5.1811   -5.6407   24.1176 H   0  0  0  0  0  0  0  0  0  0  0  0
    6.7901   -5.0209   25.4009 C   0  0  0  0  0  0  0  0  0  0  0  0
    6.5465   -5.7595   26.1666 H   0  0  0  0  0  0  0  0  0  0  0  0
    7.8439   -4.1054   25.5583 C   0  0  0  0  0  0  0  0  0  0  0  0
    8.7576   -3.9948   27.0954 S   0  0  0  0  0  0  0  0  0  0  0  0
    9.4164   -2.6912   27.1131 O   0  0  0  0  0  0  0  0  0  0  0  0
    7.8936   -4.4699   28.1677 O   0  0  0  0  0  0  0  0  0  0  0  0
   10.0520   -5.1775   26.9808 C   0  0  0  0  0  0  0  0  0  0  0  0
    9.6381   -6.1601   26.7542 H   0  0  0  0  0  0  0  0  0  0  0  0
   10.7449   -4.8350   26.2165 H   0  0  0  0  0  0  0  0  0  0  0  0
   10.5013   -5.1381   27.9756 H   0  0  0  0  0  0  0  0  0  0  0  0
    8.1522   -3.1811   24.5518 C   0  0  0  0  0  0  0  0  0  0  0  0
    8.9502   -2.4576   24.6655 H   0  0  0  0  0  0  0  0  0  0  0  0
    6.8578   -1.7225   21.3891 C   0  0  0  0  0  0  0  0  0  0  0  0
    5.7275   -2.0966   21.2149 O   0  0  0  0  0  0  0  0  0  0  0  0
    5.5611    0.6425   19.9785 C   0  0  0  0  0  0  0  0  0  0  0  0
    5.1859    0.5395   20.9949 H   0  0  0  0  0  0  0  0  0  0  0  0
    4.8432    1.3413   18.9986 C   0  0  0  0  0  0  0  0  0  0  0  0
    3.8925    1.8194   19.2217 H   0  0  0  0  0  0  0  0  0  0  0  0
  1  2  1  0
  2  3  2  0
  3  4  1  0
  4  5  1  0
  4  6  2  0
  6  7  1  0
  7  8  1  0
  8  9  2  0
  8 10  1  0
 10 11  2  0
 10 12  1  0
 12 13  1  0
 13 14  2  0
 14 15  1  0
 14 16  1  0
 16 17  1  0
 16 18  2  0
 18 19  1  0
 18 20  1  0
 20 21  1  0
 21 22  2  0
 21 23  2  0
 21 24  1  0
 24 25  1  0
 24 26  1  0
 24 27  1  0
 20 28  2  0
 28 29  1  0
 12 30  1  0
 30 31  2  0
  6 32  1  0
 32 33  1  0
 32 34  2  0
 34 35  1  0
 34  2  1  0
 30  7  1  0
 28 13  1  0
M  END
>  <cnnaffinity>  (1) 
-5.34157

>  <filename>  (1) 
CS(=O)(=O)c1cccc(N2C(=O)C(=O)N(c3cccnc3)C2=O)c1

$$$$
