
     RDKit          3D

 29 30  0  0  0  0  0  0  0  0999 V2000
    5.0428    1.7051   17.0123 H   0  0  0  0  0  0  0  0  0  0  0  0
    5.4925    1.2412   17.8859 C   0  0  0  0  0  0  0  0  0  0  0  0
    6.6656    0.6148   17.6868 N   0  0  0  0  0  0  0  0  0  0  0  0
    7.2490    0.0359   18.7447 C   0  0  0  0  0  0  0  0  0  0  0  0
    8.1915   -0.4854   18.5655 H   0  0  0  0  0  0  0  0  0  0  0  0
    6.7114    0.0512   20.0599 C   0  0  0  0  0  0  0  0  0  0  0  0
    7.3175   -0.5888   21.1533 N   0  0  0  0  0  0  0  0  0  0  0  0
    7.0948   -0.1885   22.5295 C   0  0  0  0  0  0  0  0  0  0  0  0
    6.1193   -0.5384   22.8870 H   0  0  0  0  0  0  0  0  0  0  0  0
    7.1227    0.9002   22.6465 H   0  0  0  0  0  0  0  0  0  0  0  0
    8.2478   -0.9064   23.2361 C   0  0  0  0  0  0  0  0  0  0  0  0
    9.1355   -0.2727   23.3516 H   0  0  0  0  0  0  0  0  0  0  0  0
    7.9716   -1.3190   24.2071 H   0  0  0  0  0  0  0  0  0  0  0  0
    8.5642   -2.0075   22.4010 O   0  0  0  0  0  0  0  0  0  0  0  0
    8.1436   -1.7604   21.1097 C   0  0  1  0  0  0  0  0  0  0  0  0
    9.0334   -1.6645   20.4517 H   0  0  0  0  0  0  0  0  0  0  0  0
    7.3155   -2.8051   20.5736 N   0  0  0  0  0  0  0  0  0  0  0  0
    6.5425   -2.2593   20.2130 H   0  0  0  0  0  0  0  0  0  0  0  0
    6.3100   -3.5238   21.6735 S   0  0  0  0  0  0  0  0  0  0  0  0
    6.9622   -3.9774   22.8656 O   0  0  0  0  0  0  0  0  0  0  0  0
    5.1523   -2.6486   21.6214 O   0  0  0  0  0  0  0  0  0  0  0  0
    6.0307   -4.9012   20.6468 C   0  0  0  0  0  0  0  0  0  0  0  0
    5.2328   -5.5121   21.0575 H   0  0  0  0  0  0  0  0  0  0  0  0
    6.9963   -5.4034   20.6191 H   0  0  0  0  0  0  0  0  0  0  0  0
    5.7659   -4.5215   19.6619 H   0  0  0  0  0  0  0  0  0  0  0  0
    5.4746    0.6976   20.2323 C   0  0  0  0  0  0  0  0  0  0  0  0
    5.0240    0.7032   21.2241 H   0  0  0  0  0  0  0  0  0  0  0  0
    4.8590    1.3003   19.1308 C   0  0  0  0  0  0  0  0  0  0  0  0
    3.9151    1.8267   19.2380 H   0  0  0  0  0  0  0  0  0  0  0  0
  1  2  1  0
  2  3  2  0
  3  4  1  0
  4  5  1  0
  4  6  2  0
  6  7  1  0
  7  8  1  0
  8  9  1  0
  8 10  1  0
  8 11  1  0
 11 12  1  0
 11 13  1  0
 11 14  1  0
 14 15  1  0
 15 16  1  6
 15 17  1  0
 17 18  1  0
 17 19  1  0
 19 20  2  0
 19 21  2  0
 19 22  1  0
 22 23  1  0
 22 24  1  0
 22 25  1  0
  6 26  1  0
 26 27  1  0
 26 28  2  0
 28 29  1  0
 28  2  1  0
 15  7  1  0
M  END
>  <cnnaffinity>  (1) 
-4.21248

>  <filename>  (1) 
CS(=O)(=O)N[C@@H]1OCCN1c1cccnc1

$$$$
