
     RDKit          3D

 44 47  0  0  0  0  0  0  0  0999 V2000
   12.7931    0.7592   23.6778 C   0  0  0  0  0  0  0  0  0  0  0  0
   11.0821    0.1817   23.6532 S   0  0  0  0  0  0  0  0  0  0  0  0
   10.9167   -0.6420   24.8880 O   0  0  0  0  0  0  0  0  0  0  0  0
   11.3030   -0.9627   22.2541 C   0  0  0  0  0  0  0  0  0  0  0  0
   10.1476   -1.9685   22.0781 C   0  0  0  0  0  0  0  0  0  0  0  0
    8.7965   -1.4299   21.7107 C   0  0  0  0  0  0  0  0  0  0  0  0
    8.4626   -0.9812   20.5187 N   0  0  0  0  0  0  0  0  0  0  0  0
    7.2049   -0.4889   20.7017 C   0  0  0  0  0  0  0  0  0  0  0  0
    6.4539    0.1639   19.6244 C   0  0  0  0  0  0  0  0  0  0  0  0
    5.2317    0.8437   19.7960 C   0  0  0  0  0  0  0  0  0  0  0  0
    4.6890    1.4905   18.6861 C   0  0  0  0  0  0  0  0  0  0  0  0
    5.3610    1.4277   17.4603 C   0  0  0  0  0  0  0  0  0  0  0  0
    6.5032    0.7468   17.2811 N   0  0  0  0  0  0  0  0  0  0  0  0
    7.0239    0.1354   18.3470 C   0  0  0  0  0  0  0  0  0  0  0  0
    7.9473   -0.4168   18.1890 H   0  0  0  0  0  0  0  0  0  0  0  0
    4.9776    1.9436   16.5826 H   0  0  0  0  0  0  0  0  0  0  0  0
    3.7667    2.0601   18.7506 H   0  0  0  0  0  0  0  0  0  0  0  0
    4.7287    0.8660   20.7652 H   0  0  0  0  0  0  0  0  0  0  0  0
    6.7459   -0.6154   21.9292 N   0  0  0  0  0  0  0  0  0  0  0  0
    7.7563   -1.2644   22.5674 N   0  0  0  0  0  0  0  0  0  0  0  0
    7.6471   -1.6687   23.9343 C   0  0  0  0  0  0  0  0  0  0  0  0
    7.6647   -3.0075   24.2732 C   0  0  0  0  0  0  0  0  0  0  0  0
    7.5185   -3.4044   25.6280 C   0  0  0  0  0  0  0  0  0  0  0  0
    7.3501   -2.4669   26.6165 C   0  0  0  0  0  0  0  0  0  0  0  0
    7.3712   -1.0733   26.3047 C   0  0  0  0  0  0  0  0  0  0  0  0
    7.2673   -0.0849   27.3319 C   0  0  0  0  0  0  0  0  0  0  0  0
    7.4110    1.2496   27.0412 C   0  0  0  0  0  0  0  0  0  0  0  0
    7.6161    1.6747   25.7019 C   0  0  0  0  0  0  0  0  0  0  0  0
    7.6281    0.7571   24.6744 C   0  0  0  0  0  0  0  0  0  0  0  0
    7.5322   -0.6505   24.9422 C   0  0  0  0  0  0  0  0  0  0  0  0
    7.7051    1.0870   23.6406 H   0  0  0  0  0  0  0  0  0  0  0  0
    7.7840    2.7267   25.4900 H   0  0  0  0  0  0  0  0  0  0  0  0
    7.3664    1.9977   27.8312 H   0  0  0  0  0  0  0  0  0  0  0  0
    7.0711   -0.4350   28.3418 H   0  0  0  0  0  0  0  0  0  0  0  0
    7.2114   -2.7704   27.6504 H   0  0  0  0  0  0  0  0  0  0  0  0
    7.5529   -4.4622   25.8762 H   0  0  0  0  0  0  0  0  0  0  0  0
    7.7427   -3.7691   23.4999 H   0  0  0  0  0  0  0  0  0  0  0  0
   10.4241   -2.6317   21.2572 H   0  0  0  0  0  0  0  0  0  0  0  0
   10.0733   -2.5841   22.9792 H   0  0  0  0  0  0  0  0  0  0  0  0
   12.2250   -1.5286   22.4310 H   0  0  0  0  0  0  0  0  0  0  0  0
   11.4441   -0.3330   21.3745 H   0  0  0  0  0  0  0  0  0  0  0  0
   13.0115    1.2937   22.7529 H   0  0  0  0  0  0  0  0  0  0  0  0
   13.4797   -0.0815   23.8208 H   0  0  0  0  0  0  0  0  0  0  0  0
   12.8999    1.4310   24.5311 H   0  0  0  0  0  0  0  0  0  0  0  0
  1  2  1  0
  2  3  2  0
  2  4  1  0
  4  5  1  0
  5  6  1  0
  6  7  2  0
  7  8  1  0
  8  9  1  0
  9 10  2  0
 10 11  1  0
 11 12  2  0
 12 13  1  0
 13 14  2  0
 14 15  1  0
 12 16  1  0
 11 17  1  0
 10 18  1  0
  8 19  2  0
 19 20  1  0
 20 21  1  0
 21 22  2  0
 22 23  1  0
 23 24  2  0
 24 25  1  0
 25 26  2  0
 26 27  1  0
 27 28  2  0
 28 29  1  0
 29 30  2  0
 29 31  1  0
 28 32  1  0
 27 33  1  0
 26 34  1  0
 24 35  1  0
 23 36  1  0
 22 37  1  0
  5 38  1  0
  5 39  1  0
  4 40  1  0
  4 41  1  0
  1 42  1  0
  1 43  1  0
  1 44  1  0
 20  6  1  0
 30 21  1  0
 14  9  1  0
 30 25  1  0
M  END
>  <cnnaffinity>  (1) 
-6.1166

>  <filename>  (1) 
CS(=O)CCc1nc(-c2cccnc2)nn1-c1cccc2ccccc12

$$$$
