
     RDKit          3D

 41 42  0  0  0  0  0  0  0  0999 V2000
    5.2534   -6.3361   27.0100 C   0  0  0  0  0  0  0  0  0  0  0  0
    5.4461   -5.0623   25.8386 S   0  0  0  0  0  0  0  0  0  0  0  0
    4.9257   -5.5545   24.5681 O   0  0  0  0  0  0  0  0  0  0  0  0
    4.8886   -3.8448   26.4134 O   0  0  0  0  0  0  0  0  0  0  0  0
    7.1669   -4.8580   25.6711 C   0  0  0  0  0  0  0  0  0  0  0  0
    8.1302   -5.4849   26.4729 C   0  0  0  0  0  0  0  0  0  0  0  0
    9.4614   -5.2502   26.1624 C   0  0  0  0  0  0  0  0  0  0  0  0
    9.7562   -4.4306   25.0798 C   0  0  0  0  0  0  0  0  0  0  0  0
    8.8206   -3.8412   24.3354 N   0  0  0  0  0  0  0  0  0  0  0  0
    7.5255   -4.0019   24.6102 C   0  0  0  0  0  0  0  0  0  0  0  0
    6.5217   -3.2801   23.6611 C   0  0  0  0  0  0  0  0  0  0  0  0
    7.0497   -2.1587   22.8455 N   0  0  0  0  0  0  0  0  0  0  0  0
    6.5762   -1.8475   21.5896 C   0  0  0  0  0  0  0  0  0  0  0  0
    5.6753   -2.4456   21.0348 O   0  0  0  0  0  0  0  0  0  0  0  0
    7.2711   -0.7664   20.9790 N   0  0  0  0  0  0  0  0  0  0  0  0
    8.6048   -0.2990   21.3501 C   0  0  0  0  0  0  0  0  0  0  0  0
    8.6345    1.0474   22.0647 C   0  0  0  0  0  0  0  0  0  0  0  0
    8.0462    0.9328   23.2929 F   0  0  0  0  0  0  0  0  0  0  0  0
    9.9423    1.3787   22.2534 F   0  0  0  0  0  0  0  0  0  0  0  0
    8.1460    1.8625   21.5180 H   0  0  0  0  0  0  0  0  0  0  0  0
    9.1258   -1.0298   21.9778 H   0  0  0  0  0  0  0  0  0  0  0  0
    9.2125   -0.1680   20.4483 H   0  0  0  0  0  0  0  0  0  0  0  0
    6.6413   -0.0553   19.9023 C   0  0  0  0  0  0  0  0  0  0  0  0
    5.4340    0.6144   20.1379 C   0  0  0  0  0  0  0  0  0  0  0  0
    4.8380    1.3068   19.0804 C   0  0  0  0  0  0  0  0  0  0  0  0
    5.4578    1.3120   17.8262 C   0  0  0  0  0  0  0  0  0  0  0  0
    6.6202    0.6844   17.5822 N   0  0  0  0  0  0  0  0  0  0  0  0
    7.1945    0.0340   18.6033 C   0  0  0  0  0  0  0  0  0  0  0  0
    8.1327   -0.4714   18.3790 H   0  0  0  0  0  0  0  0  0  0  0  0
    5.0040    1.8384   16.9869 H   0  0  0  0  0  0  0  0  0  0  0  0
    3.9084    1.8447   19.2224 H   0  0  0  0  0  0  0  0  0  0  0  0
    4.9991    0.5827   21.1383 H   0  0  0  0  0  0  0  0  0  0  0  0
    7.5250   -1.4099   23.3251 H   0  0  0  0  0  0  0  0  0  0  0  0
    6.1406   -4.0537   22.9870 H   0  0  0  0  0  0  0  0  0  0  0  0
    5.6430   -2.9616   24.2480 H   0  0  0  0  0  0  0  0  0  0  0  0
   10.7862   -4.2330   24.7927 H   0  0  0  0  0  0  0  0  0  0  0  0
   10.2589   -5.6911   26.7415 H   0  0  0  0  0  0  0  0  0  0  0  0
    7.9058   -6.1495   27.3139 H   0  0  0  0  0  0  0  0  0  0  0  0
    5.6466   -5.9824   27.9597 H   0  0  0  0  0  0  0  0  0  0  0  0
    4.1811   -6.5028   27.0679 H   0  0  0  0  0  0  0  0  0  0  0  0
    5.7638   -7.2218   26.6393 H   0  0  0  0  0  0  0  0  0  0  0  0
  1  2  1  0
  2  3  2  0
  2  4  2  0
  2  5  1  0
  5  6  2  0
  6  7  1  0
  7  8  2  0
  8  9  1  0
  9 10  2  0
 10 11  1  0
 11 12  1  0
 12 13  1  0
 13 14  2  0
 13 15  1  0
 15 16  1  0
 16 17  1  0
 17 18  1  0
 17 19  1  0
 17 20  1  0
 16 21  1  0
 16 22  1  0
 15 23  1  0
 23 24  2  0
 24 25  1  0
 25 26  2  0
 26 27  1  0
 27 28  2  0
 28 29  1  0
 26 30  1  0
 25 31  1  0
 24 32  1  0
 12 33  1  0
 11 34  1  0
 11 35  1  0
  8 36  1  0
  7 37  1  0
  6 38  1  0
  1 39  1  0
  1 40  1  0
  1 41  1  0
 10  5  1  0
 28 23  1  0
M  END
>  <cnnaffinity>  (1) 
-5.69131

>  <filename>  (1) 
CS(=O)(=O)c1cccnc1CNC(=O)N(CC(F)F)c1cccnc1

$$$$
