
     RDKit          3D

 33 35  0  0  0  0  0  0  0  0999 V2000
    5.2116    1.9850   17.0838 H   0  0  0  0  0  0  0  0  0  0  0  0
    5.4363    1.2485   17.8531 C   0  0  0  0  0  0  0  0  0  0  0  0
    6.4188    0.3715   17.5786 N   0  0  0  0  0  0  0  0  0  0  0  0
    6.7551   -0.5136   18.5203 C   0  0  0  0  0  0  0  0  0  0  0  0
    7.5583   -1.2099   18.2776 H   0  0  0  0  0  0  0  0  0  0  0  0
    6.1505   -0.5427   19.7839 C   0  0  0  0  0  0  0  0  0  0  0  0
    6.7357   -1.3073   20.8346 N   0  0  0  0  0  0  0  0  0  0  0  0
    6.0044   -2.1499   21.5916 N   0  0  0  0  0  0  0  0  0  0  0  0
    6.8032   -2.6430   22.4588 N   0  0  0  0  0  0  0  0  0  0  0  0
    8.0586   -2.1559   22.3196 N   0  0  0  0  0  0  0  0  0  0  0  0
    8.0104   -1.3127   21.3153 C   0  0  0  0  0  0  0  0  0  0  0  0
    9.3602   -0.3634   20.6488 S   0  0  0  0  0  0  0  0  0  0  0  0
    8.9991    1.2643   21.3290 C   0  0  0  0  0  0  0  0  0  0  0  0
    7.8435    1.9564   20.9459 C   0  0  0  0  0  0  0  0  0  0  0  0
    7.2327    1.6072   20.1280 H   0  0  0  0  0  0  0  0  0  0  0  0
    7.4562    3.0991   21.6390 C   0  0  0  0  0  0  0  0  0  0  0  0
    6.5002    3.5608   21.4143 H   0  0  0  0  0  0  0  0  0  0  0  0
    8.2532    3.6430   22.6374 C   0  0  0  0  0  0  0  0  0  0  0  0
    7.9079    4.5470   23.1387 H   0  0  0  0  0  0  0  0  0  0  0  0
    9.4470    2.9794   22.9692 C   0  0  0  0  0  0  0  0  0  0  0  0
   10.4314    3.5279   24.3467 S   0  0  0  0  0  0  0  0  0  0  0  0
   11.2245    2.3912   24.8061 O   0  0  0  0  0  0  0  0  0  0  0  0
    9.5735    4.2956   25.2479 O   0  0  0  0  0  0  0  0  0  0  0  0
   11.6049    4.6836   23.7044 C   0  0  0  0  0  0  0  0  0  0  0  0
   12.3892    4.1408   23.1776 H   0  0  0  0  0  0  0  0  0  0  0  0
   11.0929    5.4192   23.0853 H   0  0  0  0  0  0  0  0  0  0  0  0
   12.0156    5.1470   24.6004 H   0  0  0  0  0  0  0  0  0  0  0  0
    9.8224    1.7915   22.3236 C   0  0  0  0  0  0  0  0  0  0  0  0
   10.6980    1.2249   22.6309 H   0  0  0  0  0  0  0  0  0  0  0  0
    5.0682    0.3061   20.0416 C   0  0  0  0  0  0  0  0  0  0  0  0
    4.5505    0.2653   21.0013 H   0  0  0  0  0  0  0  0  0  0  0  0
    4.7305    1.2464   19.0622 C   0  0  0  0  0  0  0  0  0  0  0  0
    3.9686    2.0038   19.2287 H   0  0  0  0  0  0  0  0  0  0  0  0
  1  2  1  0
  2  3  2  0
  3  4  1  0
  4  5  1  0
  4  6  2  0
  6  7  1  0
  7  8  1  0
  8  9  2  0
  9 10  1  0
 10 11  2  0
 11 12  1  0
 12 13  1  0
 13 14  2  0
 14 15  1  0
 14 16  1  0
 16 17  1  0
 16 18  2  0
 18 19  1  0
 18 20  1  0
 20 21  1  0
 21 22  2  0
 21 23  2  0
 21 24  1  0
 24 25  1  0
 24 26  1  0
 24 27  1  0
 20 28  2  0
 28 29  1  0
  6 30  1  0
 30 31  1  0
 30 32  2  0
 32 33  1  0
 32  2  1  0
 11  7  1  0
 28 13  1  0
M  END
>  <cnnaffinity>  (1) 
-5.37138

>  <filename>  (1) 
CS(=O)(=O)c1cccc(Sc2nnnn2-c2cccnc2)c1

$$$$
