
     RDKit          3D

 39 41  0  0  0  0  0  0  0  0999 V2000
    4.9237    1.6885   17.0580 H   0  0  0  0  0  0  0  0  0  0  0  0
    5.4935    1.1958   17.8405 C   0  0  0  0  0  0  0  0  0  0  0  0
    6.6396    0.6025   17.4628 N   0  0  0  0  0  0  0  0  0  0  0  0
    7.3872    0.0240   18.4117 C   0  0  0  0  0  0  0  0  0  0  0  0
    8.2897   -0.4832   18.0638 H   0  0  0  0  0  0  0  0  0  0  0  0
    7.0727    0.0243   19.7991 C   0  0  0  0  0  0  0  0  0  0  0  0
    7.9554   -0.5030   20.7440 N   0  0  0  0  0  0  0  0  0  0  0  0
    8.5339   -1.2828   20.4641 H   0  0  0  0  0  0  0  0  0  0  0  0
    7.8898   -0.2712   22.1818 C   0  0  0  0  0  0  0  0  0  0  0  0
    8.1322    1.2009   22.5275 C   0  0  0  0  0  0  0  0  0  0  0  0
    7.1025    2.0873   22.8839 C   0  0  0  0  0  0  0  0  0  0  0  0
    6.0875    1.7146   23.0095 H   0  0  0  0  0  0  0  0  0  0  0  0
    7.3625    3.4489   23.0518 C   0  0  0  0  0  0  0  0  0  0  0  0
    6.5391    4.1149   23.2990 H   0  0  0  0  0  0  0  0  0  0  0  0
    8.6564    3.9599   22.9032 C   0  0  0  0  0  0  0  0  0  0  0  0
    8.8312    5.0292   23.0139 H   0  0  0  0  0  0  0  0  0  0  0  0
    9.6919    3.0667   22.5942 C   0  0  0  0  0  0  0  0  0  0  0  0
   11.3944    3.5878   22.4352 S   0  0  0  0  0  0  0  0  0  0  0  0
   11.4979    5.0295   22.6163 O   0  0  0  0  0  0  0  0  0  0  0  0
   11.9820    2.8964   21.2922 O   0  0  0  0  0  0  0  0  0  0  0  0
   12.1014    2.8292   23.8613 C   0  0  0  0  0  0  0  0  0  0  0  0
   11.8419    1.7696   23.8209 H   0  0  0  0  0  0  0  0  0  0  0  0
   13.1762    2.9496   23.7812 H   0  0  0  0  0  0  0  0  0  0  0  0
   11.6982    3.3130   24.7427 H   0  0  0  0  0  0  0  0  0  0  0  0
    9.4274    1.7058   22.3869 C   0  0  0  0  0  0  0  0  0  0  0  0
   10.2161    1.0151   22.0850 H   0  0  0  0  0  0  0  0  0  0  0  0
    6.6840   -0.9461   22.9001 C   0  0  0  0  0  0  0  0  0  0  0  0
    6.0963   -0.2685   23.5223 H   0  0  0  0  0  0  0  0  0  0  0  0
    6.0326   -1.4544   22.1883 H   0  0  0  0  0  0  0  0  0  0  0  0
    7.6319   -1.8660   23.7031 C   0  0  0  0  0  0  0  0  0  0  0  0
    7.6452   -1.6517   24.7785 H   0  0  0  0  0  0  0  0  0  0  0  0
    7.4713   -2.9430   23.5767 H   0  0  0  0  0  0  0  0  0  0  0  0
    8.8311   -1.2621   22.9220 C   0  0  0  0  0  0  0  0  0  0  0  0
    9.5947   -0.7870   23.5393 H   0  0  0  0  0  0  0  0  0  0  0  0
    9.3354   -1.9541   22.2398 H   0  0  0  0  0  0  0  0  0  0  0  0
    5.8318    0.5886   20.1495 C   0  0  0  0  0  0  0  0  0  0  0  0
    5.5105    0.5603   21.1855 H   0  0  0  0  0  0  0  0  0  0  0  0
    5.0370    1.1804   19.1614 C   0  0  0  0  0  0  0  0  0  0  0  0
    4.0812    1.6302   19.4030 H   0  0  0  0  0  0  0  0  0  0  0  0
  1  2  1  0
  2  3  2  0
  3  4  1  0
  4  5  1  0
  4  6  2  0
  6  7  1  0
  7  8  1  0
  7  9  1  0
  9 10  1  0
 10 11  2  0
 11 12  1  0
 11 13  1  0
 13 14  1  0
 13 15  2  0
 15 16  1  0
 15 17  1  0
 17 18  1  0
 18 19  2  0
 18 20  2  0
 18 21  1  0
 21 22  1  0
 21 23  1  0
 21 24  1  0
 17 25  2  0
 25 26  1  0
  9 27  1  0
 27 28  1  0
 27 29  1  0
 27 30  1  0
 30 31  1  0
 30 32  1  0
 30 33  1  0
 33 34  1  0
 33 35  1  0
  6 36  1  0
 36 37  1  0
 36 38  2  0
 38 39  1  0
 38  2  1  0
 33  9  1  0
 25 10  1  0
M  END
>  <cnnaffinity>  (1) 
-5.29377

>  <filename>  (1) 
CS(=O)(=O)c1cccc(C2(Nc3cccnc3)CCC2)c1

$$$$
