
     RDKit          3D

 49 51  0  0  0  0  0  0  0  0999 V2000
   10.1139   -3.4159   23.2728 C   0  0  0  0  0  0  0  0  0  0  0  0
    9.6740   -1.7886   23.7074 S   0  0  0  0  0  0  0  0  0  0  0  0
    9.8747   -1.0400   22.4724 O   0  0  0  0  0  0  0  0  0  0  0  0
   10.3822   -1.4078   24.9204 O   0  0  0  0  0  0  0  0  0  0  0  0
    7.9752   -1.8886   24.1222 C   0  0  0  0  0  0  0  0  0  0  0  0
    7.0865   -2.8781   23.6734 C   0  0  0  0  0  0  0  0  0  0  0  0
    5.8512   -2.9646   24.3092 C   0  0  0  0  0  0  0  0  0  0  0  0
    5.5689   -2.0964   25.3623 C   0  0  0  0  0  0  0  0  0  0  0  0
    6.4080   -1.1255   25.7378 N   0  0  0  0  0  0  0  0  0  0  0  0
    7.5545   -0.9467   25.0754 C   0  0  0  0  0  0  0  0  0  0  0  0
    8.3209    0.3099   25.5215 C   0  0  0  0  0  0  0  0  0  0  0  0
    7.4530    1.6393   25.7267 N   0  0  0  0  0  4  0  0  0  0  0  0
    6.9579    2.2481   24.4092 C   0  0  0  0  0  0  0  0  0  0  0  0
    8.0932    2.3778   23.4214 C   0  0  0  0  0  0  0  0  0  0  0  0
    9.1274    3.2982   23.6375 C   0  0  0  0  0  0  0  0  0  0  0  0
   10.2150    3.3576   22.7638 C   0  0  0  0  0  0  0  0  0  0  0  0
   11.5236    4.4573   23.0933 Cl  0  0  0  0  0  0  0  0  0  0  0  0
   10.2668    2.5343   21.6383 C   0  0  0  0  0  0  0  0  0  0  0  0
    9.2322    1.6237   21.3981 C   0  0  0  0  0  0  0  0  0  0  0  0
    8.1731    1.5042   22.3113 C   0  0  0  0  0  0  0  0  0  0  0  0
    7.2072    0.5370   22.2702 O   0  0  0  0  0  0  0  0  0  0  0  0
    7.1381   -0.3829   21.1853 C   0  0  0  0  0  0  0  0  0  0  0  0
    6.5183    0.2221   19.9484 C   0  0  0  0  0  0  0  0  0  0  0  0
    5.3018    0.9190   20.0123 C   0  0  0  0  0  0  0  0  0  0  0  0
    4.7800    1.4601   18.8377 C   0  0  0  0  0  0  0  0  0  0  0  0
    5.4885    1.2915   17.6440 C   0  0  0  0  0  0  0  0  0  0  0  0
    6.6474    0.6203   17.5633 N   0  0  0  0  0  0  0  0  0  0  0  0
    7.1401    0.1142   18.6994 C   0  0  0  0  0  0  0  0  0  0  0  0
    8.0898   -0.4211   18.6124 H   0  0  0  0  0  0  0  0  0  0  0  0
    5.1134    1.7059   16.7100 H   0  0  0  0  0  0  0  0  0  0  0  0
    3.8543    2.0272   18.8359 H   0  0  0  0  0  0  0  0  0  0  0  0
    4.7905    1.0398   20.9694 H   0  0  0  0  0  0  0  0  0  0  0  0
    6.5243   -1.2074   21.5721 H   0  0  0  0  0  0  0  0  0  0  0  0
    8.1388   -0.7799   20.9851 H   0  0  0  0  0  0  0  0  0  0  0  0
    9.2927    0.9677   20.5363 H   0  0  0  0  0  0  0  0  0  0  0  0
   11.1139    2.6209   20.9618 H   0  0  0  0  0  0  0  0  0  0  0  0
    9.1046    3.9731   24.4898 H   0  0  0  0  0  0  0  0  0  0  0  0
    6.1920    1.5963   23.9948 H   0  0  0  0  0  0  0  0  0  0  0  0
    6.5235    3.2339   24.5906 H   0  0  0  0  0  0  0  0  0  0  0  0
    8.0262    2.3731   26.2041 H   0  0  0  0  0  0  0  0  0  0  0  0
    6.6515    1.3754   26.3398 H   0  0  0  0  0  0  0  0  0  0  0  0
    9.1199    0.5462   24.8244 H   0  0  0  0  0  0  0  0  0  0  0  0
    8.7622    0.0611   26.4816 H   0  0  0  0  0  0  0  0  0  0  0  0
    4.6305   -2.1726   25.9108 H   0  0  0  0  0  0  0  0  0  0  0  0
    5.1116   -3.6834   23.9952 H   0  0  0  0  0  0  0  0  0  0  0  0
    7.2984   -3.5713   22.8551 H   0  0  0  0  0  0  0  0  0  0  0  0
    9.4521   -3.7108   22.4675 H   0  0  0  0  0  0  0  0  0  0  0  0
   11.1327   -3.3618   22.8965 H   0  0  0  0  0  0  0  0  0  0  0  0
   10.0304   -4.0730   24.1284 H   0  0  0  0  0  0  0  0  0  0  0  0
  1  2  1  0
  2  3  2  0
  2  4  2  0
  2  5  1  0
  5  6  2  0
  6  7  1  0
  7  8  2  0
  8  9  1  0
  9 10  2  0
 10 11  1  0
 11 12  1  0
 12 13  1  0
 13 14  1  0
 14 15  2  0
 15 16  1  0
 16 17  1  0
 16 18  2  0
 18 19  1  0
 19 20  2  0
 20 21  1  0
 21 22  1  0
 22 23  1  0
 23 24  2  0
 24 25  1  0
 25 26  2  0
 26 27  1  0
 27 28  2  0
 28 29  1  0
 26 30  1  0
 25 31  1  0
 24 32  1  0
 22 33  1  0
 22 34  1  0
 19 35  1  0
 18 36  1  0
 15 37  1  0
 13 38  1  0
 13 39  1  0
 12 40  1  0
 12 41  1  0
 11 42  1  0
 11 43  1  0
  8 44  1  0
  7 45  1  0
  6 46  1  0
  1 47  1  0
  1 48  1  0
  1 49  1  0
 10  5  1  0
 20 14  1  0
 28 23  1  0
M  CHG  1  12   1
M  END
>  <cnnaffinity>  (1) 
-5.9225

>  <filename>  (1) 
CS(=O)(=O)c1cccnc1C[NH2+]Cc1cc(Cl)ccc1OCc1cccnc1

$$$$
