
     RDKit          3D

 42 44  0  0  0  0  0  0  0  0999 V2000
    4.9181    1.8032   16.9744 H   0  0  0  0  0  0  0  0  0  0  0  0
    5.3914    1.3030   17.8163 C   0  0  0  0  0  0  0  0  0  0  0  0
    6.5538    0.6822   17.5603 N   0  0  0  0  0  0  0  0  0  0  0  0
    7.1657    0.0648   18.5824 C   0  0  0  0  0  0  0  0  0  0  0  0
    8.1113   -0.4250   18.3517 H   0  0  0  0  0  0  0  0  0  0  0  0
    6.6659    0.0307   19.9112 C   0  0  0  0  0  0  0  0  0  0  0  0
    7.2843   -0.6515   20.9771 N   0  0  0  0  0  0  0  0  0  0  0  0
    7.8582   -1.9594   20.7424 C   0  0  0  0  0  0  0  0  0  0  0  0
    7.2827   -2.3725   19.9131 H   0  0  0  0  0  0  0  0  0  0  0  0
    8.9299   -1.9020   20.4641 H   0  0  0  0  0  0  0  0  0  0  0  0
    7.6877   -2.8762   21.9526 C   0  0  0  0  0  0  0  0  0  0  0  0
    8.2104   -3.8247   21.7748 H   0  0  0  0  0  0  0  0  0  0  0  0
    6.6205   -3.1122   22.0589 H   0  0  0  0  0  0  0  0  0  0  0  0
    8.2020   -2.1994   23.2362 C   0  0  0  0  0  0  0  0  0  0  0  0
    9.2871   -2.0393   23.1139 H   0  0  0  0  0  0  0  0  0  0  0  0
    7.9899   -3.0736   24.4587 C   0  0  0  0  0  0  0  0  0  0  0  0
    9.0906   -3.5119   25.2079 C   0  0  0  0  0  0  0  0  0  0  0  0
   10.0884   -3.2216   24.8876 H   0  0  0  0  0  0  0  0  0  0  0  0
    8.9117   -4.3081   26.3405 C   0  0  0  0  0  0  0  0  0  0  0  0
    9.7769   -4.6408   26.9037 H   0  0  0  0  0  0  0  0  0  0  0  0
    7.6319   -4.6872   26.7422 C   0  0  0  0  0  0  0  0  0  0  0  0
    7.5118   -5.3304   27.6135 H   0  0  0  0  0  0  0  0  0  0  0  0
    6.5252   -4.2497   25.9968 C   0  0  0  0  0  0  0  0  0  0  0  0
    4.8740   -4.7610   26.4672 S   0  0  0  0  0  0  0  0  0  0  0  0
    4.0425   -4.8174   25.2706 O   0  0  0  0  0  0  0  0  0  0  0  0
    4.9839   -5.8849   27.3882 O   0  0  0  0  0  0  0  0  0  0  0  0
    4.2255   -3.4338   27.4208 C   0  0  0  0  0  0  0  0  0  0  0  0
    4.8625   -3.3088   28.2930 H   0  0  0  0  0  0  0  0  0  0  0  0
    3.2294   -3.7808   27.6968 H   0  0  0  0  0  0  0  0  0  0  0  0
    4.1771   -2.5579   26.7779 H   0  0  0  0  0  0  0  0  0  0  0  0
    6.7003   -3.4550   24.8529 C   0  0  0  0  0  0  0  0  0  0  0  0
    5.8508   -3.1369   24.2455 H   0  0  0  0  0  0  0  0  0  0  0  0
    7.5336   -0.8155   23.3983 C   0  0  0  0  0  0  0  0  0  0  0  0
    7.9201   -0.3066   24.2891 H   0  0  0  0  0  0  0  0  0  0  0  0
    6.4543   -0.9633   23.5469 H   0  0  0  0  0  0  0  0  0  0  0  0
    7.7496    0.0568   22.1584 C   0  0  0  0  0  0  0  0  0  0  0  0
    7.1983    1.0008   22.2442 H   0  0  0  0  0  0  0  0  0  0  0  0
    8.8224    0.3203   22.0664 H   0  0  0  0  0  0  0  0  0  0  0  0
    5.4455    0.6820   20.1435 C   0  0  0  0  0  0  0  0  0  0  0  0
    5.0334    0.6379   21.1515 H   0  0  0  0  0  0  0  0  0  0  0  0
    4.7984    1.3237   19.0855 C   0  0  0  0  0  0  0  0  0  0  0  0
    3.8634    1.8499   19.2408 H   0  0  0  0  0  0  0  0  0  0  0  0
  1  2  1  0
  2  3  2  0
  3  4  1  0
  4  5  1  0
  4  6  2  0
  6  7  1  0
  7  8  1  0
  8  9  1  0
  8 10  1  0
  8 11  1  0
 11 12  1  0
 11 13  1  0
 11 14  1  0
 14 15  1  0
 14 16  1  0
 16 17  2  0
 17 18  1  0
 17 19  1  0
 19 20  1  0
 19 21  2  0
 21 22  1  0
 21 23  1  0
 23 24  1  0
 24 25  2  0
 24 26  2  0
 24 27  1  0
 27 28  1  0
 27 29  1  0
 27 30  1  0
 23 31  2  0
 31 32  1  0
 14 33  1  0
 33 34  1  0
 33 35  1  0
 33 36  1  0
 36 37  1  0
 36 38  1  0
  6 39  1  0
 39 40  1  0
 39 41  2  0
 41 42  1  0
 41  2  1  0
 36  7  1  0
 31 16  1  0
M  END
>  <cnnaffinity>  (1) 
-5.65196

>  <filename>  (1) 
CS(=O)(=O)c1cccc(C2CCN(c3cccnc3)CC2)c1

$$$$
