
     RDKit          3D

 33 34  0  0  0  0  0  0  0  0999 V2000
    5.7775    1.5795   16.9583 H   0  0  0  0  0  0  0  0  0  0  0  0
    6.1085    1.0226   17.8380 C   0  0  0  0  0  0  0  0  0  0  0  0
    7.0946    0.1402   17.6332 N   0  0  0  0  0  0  0  0  0  0  0  0
    7.5690   -0.5321   18.6935 C   0  0  0  0  0  0  0  0  0  0  0  0
    8.3822   -1.2242   18.4488 H   0  0  0  0  0  0  0  0  0  0  0  0
    7.1396   -0.3364   20.0189 C   0  0  0  0  0  0  0  0  0  0  0  0
    7.9494   -0.9294   21.1704 C   0  0  0  0  0  0  0  0  0  0  0  0
    7.9920   -2.3982   21.0974 N   0  0  0  0  0  0  0  0  0  0  0  0
    8.1854   -2.7049   20.1529 H   0  0  0  0  0  0  0  0  0  0  0  0
    6.6057   -3.2842   21.2654 S   0  0  0  0  0  0  0  0  0  0  0  0
    6.9230   -4.4306   20.4384 O   0  0  0  0  0  0  0  0  0  0  0  0
    5.4312   -2.4766   21.0517 O   0  0  0  0  0  0  0  0  0  0  0  0
    6.5807   -3.8448   22.9189 C   0  0  0  0  0  0  0  0  0  0  0  0
    6.2840   -3.0349   23.5791 H   0  0  0  0  0  0  0  0  0  0  0  0
    7.5584   -4.2612   23.1583 H   0  0  0  0  0  0  0  0  0  0  0  0
    5.8157   -4.6195   22.9101 H   0  0  0  0  0  0  0  0  0  0  0  0
    7.4929   -0.4973   22.5790 C   0  0  0  0  0  0  0  0  0  0  0  0
    7.4710    0.6004   22.6049 H   0  0  0  0  0  0  0  0  0  0  0  0
    6.4779   -0.8420   22.7800 H   0  0  0  0  0  0  0  0  0  0  0  0
    8.4507   -0.9595   23.6867 C   0  0  0  0  0  0  0  0  0  0  0  0
    8.3919   -2.0436   23.8661 H   0  0  0  0  0  0  0  0  0  0  0  0
    8.2037   -0.4685   24.6326 H   0  0  0  0  0  0  0  0  0  0  0  0
    9.7848   -0.5699   23.4212 O   0  0  0  0  0  0  0  0  0  0  0  0
   10.2840   -0.9984   22.1675 C   0  0  0  0  0  0  0  0  0  0  0  0
   10.3680   -2.0952   22.1290 H   0  0  0  0  0  0  0  0  0  0  0  0
   11.2918   -0.5805   22.0987 H   0  0  0  0  0  0  0  0  0  0  0  0
    9.4202   -0.4805   21.0257 C   0  0  0  0  0  0  0  0  0  0  0  0
    9.8303   -0.8008   20.0663 H   0  0  0  0  0  0  0  0  0  0  0  0
    9.4467    0.6134   21.0319 H   0  0  0  0  0  0  0  0  0  0  0  0
    6.0518    0.5412   20.1950 C   0  0  0  0  0  0  0  0  0  0  0  0
    5.6073    0.6968   21.1798 H   0  0  0  0  0  0  0  0  0  0  0  0
    5.5423    1.2344   19.0946 C   0  0  0  0  0  0  0  0  0  0  0  0
    4.7332    1.9512   19.1980 H   0  0  0  0  0  0  0  0  0  0  0  0
  1  2  1  0
  2  3  2  0
  3  4  1  0
  4  5  1  0
  4  6  2  0
  6  7  1  0
  7  8  1  0
  8  9  1  0
  8 10  1  0
 10 11  2  0
 10 12  2  0
 10 13  1  0
 13 14  1  0
 13 15  1  0
 13 16  1  0
  7 17  1  0
 17 18  1  0
 17 19  1  0
 17 20  1  0
 20 21  1  0
 20 22  1  0
 20 23  1  0
 23 24  1  0
 24 25  1  0
 24 26  1  0
 24 27  1  0
 27 28  1  0
 27 29  1  0
  6 30  1  0
 30 31  1  0
 30 32  2  0
 32 33  1  0
 32  2  1  0
 27  7  1  0
M  END
>  <cnnaffinity>  (1) 
-4.46652

>  <filename>  (1) 
CS(=O)(=O)NC1(c2cccnc2)CCOCC1

$$$$
