
     RDKit          3D

 38 40  0  0  0  0  0  0  0  0999 V2000
    4.9719    1.8582   16.9128 H   0  0  0  0  0  0  0  0  0  0  0  0
    5.4151    1.3362   17.7575 C   0  0  0  0  0  0  0  0  0  0  0  0
    6.5806    0.7131   17.5192 N   0  0  0  0  0  0  0  0  0  0  0  0
    7.1510    0.0785   18.5495 C   0  0  0  0  0  0  0  0  0  0  0  0
    8.0977   -0.4208   18.3384 H   0  0  0  0  0  0  0  0  0  0  0  0
    6.6026    0.0156   19.8454 C   0  0  0  0  0  0  0  0  0  0  0  0
    7.3230   -0.6756   20.9890 C   0  0  2  0  0  0  0  0  0  0  0  0
    8.1590   -1.2403   20.5548 H   0  0  0  0  0  0  0  0  0  0  0  0
    6.4674   -1.7180   21.7243 C   0  0  0  0  0  0  0  0  0  0  0  0
    5.8241   -2.6320   21.2570 O   0  0  0  0  0  0  0  0  0  0  0  0
    6.5956   -1.4855   23.0642 N   0  0  0  0  0  0  0  0  0  0  0  0
    5.8661   -1.9399   23.5935 H   0  0  0  0  0  0  0  0  0  0  0  0
    7.0636   -0.1429   23.3785 C   0  0  0  0  0  0  0  0  0  0  0  0
    7.7056   -0.1743   24.2689 H   0  0  0  0  0  0  0  0  0  0  0  0
    6.2337    0.5590   23.5863 H   0  0  0  0  0  0  0  0  0  0  0  0
    7.8391    0.2924   22.1042 C   0  0  1  0  0  0  0  0  0  0  0  0
    7.5797    1.3279   21.8644 H   0  0  0  0  0  0  0  0  0  0  0  0
    9.3493    0.2313   22.2663 C   0  0  0  0  0  0  0  0  0  0  0  0
    9.9472   -1.0047   22.5507 C   0  0  0  0  0  0  0  0  0  0  0  0
    9.3331   -1.8918   22.6936 H   0  0  0  0  0  0  0  0  0  0  0  0
   11.3314   -1.1141   22.6592 C   0  0  0  0  0  0  0  0  0  0  0  0
   11.7743   -2.0931   22.8088 H   0  0  0  0  0  0  0  0  0  0  0  0
   12.1413    0.0186   22.5795 C   0  0  0  0  0  0  0  0  0  0  0  0
   13.2219   -0.0641   22.6882 H   0  0  0  0  0  0  0  0  0  0  0  0
   11.5438    1.2730   22.3683 C   0  0  0  0  0  0  0  0  0  0  0  0
   12.6107    2.7156   22.3069 S   0  0  0  0  0  0  0  0  0  0  0  0
   12.4516    3.3772   21.0185 O   0  0  0  0  0  0  0  0  0  0  0  0
   13.9081    2.3097   22.8291 O   0  0  0  0  0  0  0  0  0  0  0  0
   11.9748    3.8913   23.4454 C   0  0  0  0  0  0  0  0  0  0  0  0
   12.6950    4.7056   23.3681 H   0  0  0  0  0  0  0  0  0  0  0  0
   11.9248    3.4682   24.4446 H   0  0  0  0  0  0  0  0  0  0  0  0
   11.0084    4.2046   23.0606 H   0  0  0  0  0  0  0  0  0  0  0  0
   10.1599    1.3738   22.1542 C   0  0  0  0  0  0  0  0  0  0  0  0
    9.6848    2.3175   21.8822 H   0  0  0  0  0  0  0  0  0  0  0  0
    5.3803    0.6589   20.0644 C   0  0  0  0  0  0  0  0  0  0  0  0
    4.9140    0.6312   21.0534 H   0  0  0  0  0  0  0  0  0  0  0  0
    4.7782    1.3353   19.0028 C   0  0  0  0  0  0  0  0  0  0  0  0
    3.8427    1.8664   19.1308 H   0  0  0  0  0  0  0  0  0  0  0  0
  1  2  1  0
  2  3  2  0
  3  4  1  0
  4  5  1  0
  4  6  2  0
  6  7  1  0
  7  8  1  6
  7  9  1  0
  9 10  2  0
  9 11  1  0
 11 12  1  0
 11 13  1  0
 13 14  1  0
 13 15  1  0
 13 16  1  0
 16 17  1  6
 16 18  1  0
 18 19  2  0
 19 20  1  0
 19 21  1  0
 21 22  1  0
 21 23  2  0
 23 24  1  0
 23 25  1  0
 25 26  1  0
 26 27  2  0
 26 28  2  0
 26 29  1  0
 29 30  1  0
 29 31  1  0
 29 32  1  0
 25 33  2  0
 33 34  1  0
  6 35  1  0
 35 36  1  0
 35 37  2  0
 37 38  1  0
 37  2  1  0
 16  7  1  0
 33 18  1  0
M  END
>  <cnnaffinity>  (1) 
-5.85258

>  <filename>  (1) 
CS(=O)(=O)c1cccc([C@@H]2CNC(=O)[C@H]2c2cccnc2)c1

$$$$
