
     RDKit          3D

 38 40  0  0  0  0  0  0  0  0999 V2000
    4.9873    1.7190   17.0692 H   0  0  0  0  0  0  0  0  0  0  0  0
    5.4641    1.2540   17.9287 C   0  0  0  0  0  0  0  0  0  0  0  0
    6.6282    0.6265   17.6845 N   0  0  0  0  0  0  0  0  0  0  0  0
    7.2339    0.0357   18.7214 C   0  0  0  0  0  0  0  0  0  0  0  0
    8.1841   -0.4613   18.5275 H   0  0  0  0  0  0  0  0  0  0  0  0
    6.7192    0.0370   20.0382 C   0  0  0  0  0  0  0  0  0  0  0  0
    7.4112   -0.6074   21.1001 N   0  0  0  0  0  0  0  0  0  0  0  0
    7.6854   -1.9652   21.1235 C   0  0  0  0  0  0  0  0  0  0  0  0
    6.9917   -2.8355   20.6445 O   0  0  0  0  0  0  0  0  0  0  0  0
    8.9595   -2.1276   21.9328 C   0  0  0  0  0  0  0  0  0  0  0  0
    9.8015   -2.3586   21.2751 H   0  0  0  0  0  0  0  0  0  0  0  0
    8.8289   -2.9893   22.5871 H   0  0  0  0  0  0  0  0  0  0  0  0
    9.1363   -0.7754   22.6622 C   0  0  0  0  0  0  0  0  0  0  0  0
   10.0200   -0.2452   22.2981 H   0  0  0  0  0  0  0  0  0  0  0  0
    9.2448   -0.8911   23.7472 H   0  0  0  0  0  0  0  0  0  0  0  0
    7.8664    0.0514   22.3237 C   0  0  2  0  0  0  0  0  0  0  0  0
    8.0870    1.1031   22.0891 H   0  0  0  0  0  0  0  0  0  0  0  0
    6.8405    0.0072   23.4610 C   0  0  0  0  0  0  0  0  0  0  0  0
    6.4634   -1.2151   24.0494 C   0  0  0  0  0  0  0  0  0  0  0  0
    6.8978   -2.1570   23.7177 H   0  0  0  0  0  0  0  0  0  0  0  0
    5.5045   -1.2511   25.0611 C   0  0  0  0  0  0  0  0  0  0  0  0
    5.2090   -2.2109   25.4717 H   0  0  0  0  0  0  0  0  0  0  0  0
    4.8942   -0.0837   25.5102 C   0  0  0  0  0  0  0  0  0  0  0  0
    4.1119   -0.1541   26.2672 H   0  0  0  0  0  0  0  0  0  0  0  0
    5.3159    1.1416   24.9745 C   0  0  0  0  0  0  0  0  0  0  0  0
    4.7448    2.6624   25.7041 S   0  0  0  0  0  0  0  0  0  0  0  0
    5.1223    3.7775   24.8487 O   0  0  0  0  0  0  0  0  0  0  0  0
    3.3766    2.4830   26.1739 O   0  0  0  0  0  0  0  0  0  0  0  0
    5.7523    2.7662   27.1396 C   0  0  0  0  0  0  0  0  0  0  0  0
    5.5358    1.8973   27.7569 H   0  0  0  0  0  0  0  0  0  0  0  0
    6.7887    2.7865   26.8129 H   0  0  0  0  0  0  0  0  0  0  0  0
    5.4630    3.6874   27.6380 H   0  0  0  0  0  0  0  0  0  0  0  0
    6.2629    1.1914   23.9411 C   0  0  0  0  0  0  0  0  0  0  0  0
    6.5607    2.1509   23.5215 H   0  0  0  0  0  0  0  0  0  0  0  0
    5.5214    0.7114   20.2792 C   0  0  0  0  0  0  0  0  0  0  0  0
    5.1294    0.7260   21.2974 H   0  0  0  0  0  0  0  0  0  0  0  0
    4.8720    1.3191   19.1968 C   0  0  0  0  0  0  0  0  0  0  0  0
    3.9326    1.8476   19.3242 H   0  0  0  0  0  0  0  0  0  0  0  0
  1  2  1  0
  2  3  2  0
  3  4  1  0
  4  5  1  0
  4  6  2  0
  6  7  1  0
  7  8  1  0
  8  9  2  0
  8 10  1  0
 10 11  1  0
 10 12  1  0
 10 13  1  0
 13 14  1  0
 13 15  1  0
 13 16  1  0
 16 17  1  6
 16 18  1  0
 18 19  2  0
 19 20  1  0
 19 21  1  0
 21 22  1  0
 21 23  2  0
 23 24  1  0
 23 25  1  0
 25 26  1  0
 26 27  2  0
 26 28  2  0
 26 29  1  0
 29 30  1  0
 29 31  1  0
 29 32  1  0
 25 33  2  0
 33 34  1  0
  6 35  1  0
 35 36  1  0
 35 37  2  0
 37 38  1  0
 37  2  1  0
 16  7  1  0
 33 18  1  0
M  END
>  <cnnaffinity>  (1) 
-4.72362

>  <filename>  (1) 
CS(=O)(=O)c1cccc([C@H]2CCC(=O)N2c2cccnc2)c1

$$$$
