
     RDKit          3D

 37 39  0  0  0  0  0  0  0  0999 V2000
    6.7684   -2.4767   21.3523 C   0  0  0  0  0  0  0  0  0  0  0  0
    7.4549   -0.8769   21.0987 S   0  0  0  0  0  0  0  0  0  0  0  0
    8.8773   -0.9249   20.8222 O   0  0  0  0  0  0  0  0  0  0  0  0
    6.9132   -0.1369   22.4791 N   0  0  0  0  0  0  0  0  0  0  0  0
    7.6264   -0.5391   23.5018 C   0  0  0  0  0  0  0  0  0  0  0  0
    8.4167   -1.4942   23.5457 O   0  0  0  0  0  0  0  0  0  0  0  0
    7.4509    0.3117   24.7732 C   0  0  0  0  0  0  0  0  0  0  0  0
    8.4170    1.4427   24.7115 C   0  0  0  0  0  0  0  0  0  0  0  0
    8.1714    2.7499   24.4010 C   0  0  0  0  0  0  0  0  0  0  0  0
    9.4390    3.3919   24.2361 C   0  0  0  0  0  0  0  0  0  0  0  0
    9.8237    4.7177   23.9563 C   0  0  0  0  0  0  0  0  0  0  0  0
   11.1754    4.9865   23.8074 C   0  0  0  0  0  0  0  0  0  0  0  0
   11.7159    6.6215   23.6059 Cl  0  0  0  0  0  0  0  0  0  0  0  0
   12.1539    3.9665   23.8858 C   0  0  0  0  0  0  0  0  0  0  0  0
   11.7907    2.6615   24.1956 C   0  0  0  0  0  0  0  0  0  0  0  0
   10.4271    2.3879   24.3891 C   0  0  0  0  0  0  0  0  0  0  0  0
    9.7718    1.2143   24.6896 N   0  0  0  0  0  0  0  0  0  0  0  0
   10.1786    0.2949   24.6249 H   0  0  0  0  0  0  0  0  0  0  0  0
   12.5463    1.8890   24.2975 H   0  0  0  0  0  0  0  0  0  0  0  0
   13.1916    4.2244   23.7029 H   0  0  0  0  0  0  0  0  0  0  0  0
    9.0830    5.5032   23.8575 H   0  0  0  0  0  0  0  0  0  0  0  0
    7.1946    3.1837   24.2452 H   0  0  0  0  0  0  0  0  0  0  0  0
    7.6247   -0.3532   25.6167 H   0  0  0  0  0  0  0  0  0  0  0  0
    6.4285    0.6881   24.8126 H   0  0  0  0  0  0  0  0  0  0  0  0
    6.5771   -0.0283   19.8843 C   0  0  0  0  0  0  0  0  0  0  0  0
    5.3795    0.6506   20.1060 C   0  0  0  0  0  0  0  0  0  0  0  0
    4.8251    1.2943   19.0068 C   0  0  0  0  0  0  0  0  0  0  0  0
    5.4947    1.2474   17.7790 C   0  0  0  0  0  0  0  0  0  0  0  0
    6.6661    0.6150   17.6017 N   0  0  0  0  0  0  0  0  0  0  0  0
    7.2139    0.0067   18.6472 C   0  0  0  0  0  0  0  0  0  0  0  0
    8.1875   -0.4622   18.4964 H   0  0  0  0  0  0  0  0  0  0  0  0
    5.0761    1.7390   16.9035 H   0  0  0  0  0  0  0  0  0  0  0  0
    3.9028    1.8557   19.0935 H   0  0  0  0  0  0  0  0  0  0  0  0
    4.9229    0.7042   21.0979 H   0  0  0  0  0  0  0  0  0  0  0  0
    6.8514   -3.0403   20.4287 H   0  0  0  0  0  0  0  0  0  0  0  0
    5.7371   -2.3657   21.6859 H   0  0  0  0  0  0  0  0  0  0  0  0
    7.4029   -2.8771   22.1387 H   0  0  0  0  0  0  0  0  0  0  0  0
  1  2  1  0
  2  3  2  0
  2  4  2  0
  4  5  1  0
  5  6  2  0
  5  7  1  0
  7  8  1  0
  8  9  2  0
  9 10  1  0
 10 11  2  0
 11 12  1  0
 12 13  1  0
 12 14  2  0
 14 15  1  0
 15 16  2  0
 16 17  1  0
 17 18  1  0
 15 19  1  0
 14 20  1  0
 11 21  1  0
  9 22  1  0
  7 23  1  0
  7 24  1  0
  2 25  1  0
 25 26  2  0
 26 27  1  0
 27 28  2  0
 28 29  1  0
 29 30  2  0
 30 31  1  0
 28 32  1  0
 27 33  1  0
 26 34  1  0
  1 35  1  0
  1 36  1  0
  1 37  1  0
 17  8  1  0
 30 25  1  0
 16 10  1  0
M  END
>  <cnnaffinity>  (1) 
-5.43623

>  <filename>  (1) 
CS(=O)(=NC(=O)Cc1cc2cc(Cl)ccc2[nH]1)c1cccnc1

$$$$
