
     RDKit          3D

 38 39  0  0  0  0  0  0  0  0999 V2000
    7.1956   -6.5746   28.0942 C   0  0  0  0  0  0  0  0  0  0  0  0
    6.1716   -5.9170   26.8252 S   0  0  0  0  0  0  0  0  0  0  0  0
    4.8000   -6.2686   27.1768 O   0  0  0  0  0  0  0  0  0  0  0  0
    6.7515   -6.2901   25.5417 O   0  0  0  0  0  0  0  0  0  0  0  0
    6.3747   -4.1571   27.0236 C   0  0  0  0  0  0  0  0  0  0  0  0
    5.5194   -3.4611   27.8906 C   0  0  0  0  0  0  0  0  0  0  0  0
    5.6844   -2.0847   28.0391 C   0  0  0  0  0  0  0  0  0  0  0  0
    6.6907   -1.4095   27.3387 C   0  0  0  0  0  0  0  0  0  0  0  0
    7.5382   -2.1107   26.4624 C   0  0  0  0  0  0  0  0  0  0  0  0
    8.7778   -1.2480   25.5134 S   0  0  0  0  0  0  0  0  0  0  0  0
    7.7604   -0.7377   24.0884 C   0  0  0  0  0  0  0  0  0  0  0  0
    7.6019   -1.8694   23.0555 C   0  0  0  0  0  0  0  0  0  0  0  0
    6.7705   -1.5621   21.8159 C   0  0  0  0  0  0  0  0  0  0  0  0
    5.7125   -2.1071   21.5808 O   0  0  0  0  0  0  0  0  0  0  0  0
    7.3648   -0.6556   20.9539 N   0  0  0  0  0  0  0  0  0  0  0  0
    6.7012    0.0124   19.8857 C   0  0  0  0  0  0  0  0  0  0  0  0
    5.4756    0.6415   20.1357 C   0  0  0  0  0  0  0  0  0  0  0  0
    4.8277    1.3052   19.0897 C   0  0  0  0  0  0  0  0  0  0  0  0
    5.4181    1.2965   17.8219 C   0  0  0  0  0  0  0  0  0  0  0  0
    6.5860    0.6848   17.5564 N   0  0  0  0  0  0  0  0  0  0  0  0
    7.2152    0.0725   18.5697 C   0  0  0  0  0  0  0  0  0  0  0  0
    8.1579   -0.4233   18.3303 H   0  0  0  0  0  0  0  0  0  0  0  0
    4.9365    1.7997   16.9870 H   0  0  0  0  0  0  0  0  0  0  0  0
    3.8872    1.8243   19.2499 H   0  0  0  0  0  0  0  0  0  0  0  0
    5.0513    0.5914   21.1368 H   0  0  0  0  0  0  0  0  0  0  0  0
    8.3684   -0.6024   21.0130 H   0  0  0  0  0  0  0  0  0  0  0  0
    8.5942   -2.1921   22.7225 H   0  0  0  0  0  0  0  0  0  0  0  0
    7.1186   -2.7301   23.5308 H   0  0  0  0  0  0  0  0  0  0  0  0
    8.2675    0.1451   23.6804 H   0  0  0  0  0  0  0  0  0  0  0  0
    6.7881   -0.4072   24.4730 H   0  0  0  0  0  0  0  0  0  0  0  0
    7.3847   -3.4927   26.3107 C   0  0  0  0  0  0  0  0  0  0  0  0
    8.0325   -4.0225   25.6150 H   0  0  0  0  0  0  0  0  0  0  0  0
    6.8219   -0.3390   27.4590 H   0  0  0  0  0  0  0  0  0  0  0  0
    5.0249   -1.5439   28.7119 H   0  0  0  0  0  0  0  0  0  0  0  0
    4.7270   -3.9842   28.4263 H   0  0  0  0  0  0  0  0  0  0  0  0
    8.2198   -6.5964   27.7298 H   0  0  0  0  0  0  0  0  0  0  0  0
    7.0672   -5.9413   28.9675 H   0  0  0  0  0  0  0  0  0  0  0  0
    6.7940   -7.5668   28.2735 H   0  0  0  0  0  0  0  0  0  0  0  0
  1  2  1  0
  2  3  2  0
  2  4  2  0
  2  5  1  0
  5  6  2  0
  6  7  1  0
  7  8  2  0
  8  9  1  0
  9 10  1  0
 10 11  1  0
 11 12  1  0
 12 13  1  0
 13 14  2  0
 13 15  1  0
 15 16  1  0
 16 17  2  0
 17 18  1  0
 18 19  2  0
 19 20  1  0
 20 21  2  0
 21 22  1  0
 19 23  1  0
 18 24  1  0
 17 25  1  0
 15 26  1  0
 12 27  1  0
 12 28  1  0
 11 29  1  0
 11 30  1  0
  9 31  2  0
 31 32  1  0
  8 33  1  0
  7 34  1  0
  6 35  1  0
  1 36  1  0
  1 37  1  0
  1 38  1  0
 31  5  1  0
 21 16  1  0
M  END
>  <cnnaffinity>  (1) 
-5.30544

>  <filename>  (1) 
CS(=O)(=O)c1cccc(SCCC(=O)Nc2cccnc2)c1

$$$$
