
     RDKit          3D

 44 46  0  0  0  0  0  0  0  0999 V2000
    9.4598    5.9180   25.3285 C   0  0  0  0  0  0  0  0  0  0  0  0
    8.6148    4.8824   26.4714 S   0  0  0  0  0  0  0  0  0  0  0  0
    8.5374    5.6246   27.7222 O   0  0  0  0  0  0  0  0  0  0  0  0
    9.2408    3.5713   26.3833 O   0  0  0  0  0  0  0  0  0  0  0  0
    6.9650    4.7339   25.7823 C   0  0  0  0  0  0  0  0  0  0  0  0
    6.5665    3.9960   24.6621 C   0  0  0  0  0  0  0  0  0  0  0  0
    7.2518    3.2050   23.5787 C   0  0  0  0  0  0  0  0  0  0  0  0
    6.6930    2.3683   22.9058 O   0  0  0  0  0  0  0  0  0  0  0  0
    8.5497    3.5567   23.4108 O   0  0  0  0  0  0  0  0  0  0  0  0
    9.3606    2.6513   22.6004 C   0  0  0  0  0  0  0  0  0  0  0  0
    9.5004    1.2726   23.2358 C   0  0  0  0  0  0  0  0  0  0  0  0
   10.0246    1.1539   24.5368 C   0  0  0  0  0  0  0  0  0  0  0  0
   10.0281   -0.0857   25.1875 C   0  0  0  0  0  0  0  0  0  0  0  0
   10.5095   -0.1895   26.8531 Cl  0  0  0  0  0  0  0  0  0  0  0  0
    9.6037   -1.2436   24.5386 C   0  0  0  0  0  0  0  0  0  0  0  0
    9.1145   -1.1424   23.2363 C   0  0  0  0  0  0  0  0  0  0  0  0
    9.0171    0.1054   22.6017 C   0  0  0  0  0  0  0  0  0  0  0  0
    8.4756    0.2305   21.3534 O   0  0  0  0  0  0  0  0  0  0  0  0
    7.4507   -0.6772   20.9318 C   0  0  0  0  0  0  0  0  0  0  0  0
    6.6497    0.0128   19.8633 C   0  0  0  0  0  0  0  0  0  0  0  0
    5.4533    0.6926   20.1208 C   0  0  0  0  0  0  0  0  0  0  0  0
    4.8163    1.3434   19.0606 C   0  0  0  0  0  0  0  0  0  0  0  0
    5.4143    1.3089   17.7982 C   0  0  0  0  0  0  0  0  0  0  0  0
    6.5636    0.6656   17.5351 N   0  0  0  0  0  0  0  0  0  0  0  0
    7.1605    0.0462   18.5600 C   0  0  0  0  0  0  0  0  0  0  0  0
    8.1071   -0.4510   18.3366 H   0  0  0  0  0  0  0  0  0  0  0  0
    4.9522    1.8125   16.9520 H   0  0  0  0  0  0  0  0  0  0  0  0
    3.8870    1.8839   19.1992 H   0  0  0  0  0  0  0  0  0  0  0  0
    5.0527    0.7341   21.1360 H   0  0  0  0  0  0  0  0  0  0  0  0
    7.9162   -1.5893   20.5240 H   0  0  0  0  0  0  0  0  0  0  0  0
    6.8054   -0.9558   21.7785 H   0  0  0  0  0  0  0  0  0  0  0  0
    8.8080   -2.0230   22.6851 H   0  0  0  0  0  0  0  0  0  0  0  0
    9.6320   -2.1958   25.0661 H   0  0  0  0  0  0  0  0  0  0  0  0
   10.3793    2.0175   25.0981 H   0  0  0  0  0  0  0  0  0  0  0  0
    8.9378    2.5702   21.5936 H   0  0  0  0  0  0  0  0  0  0  0  0
   10.3387    3.1452   22.5589 H   0  0  0  0  0  0  0  0  0  0  0  0
    4.8449    4.0161   24.5037 S   0  0  0  0  0  0  0  0  0  0  0  0
    4.6778    5.0343   25.8589 C   0  0  0  0  0  0  0  0  0  0  0  0
    5.8594    5.3407   26.4502 C   0  0  0  0  0  0  0  0  0  0  0  0
    5.9612    5.9673   27.3350 H   0  0  0  0  0  0  0  0  0  0  0  0
    3.7041    5.3780   26.1777 H   0  0  0  0  0  0  0  0  0  0  0  0
    9.3896    5.4434   24.3534 H   0  0  0  0  0  0  0  0  0  0  0  0
   10.4871    5.9521   25.6837 H   0  0  0  0  0  0  0  0  0  0  0  0
    8.9901    6.8986   25.3716 H   0  0  0  0  0  0  0  0  0  0  0  0
  1  2  1  0
  2  3  2  0
  2  4  2  0
  2  5  1  0
  5  6  2  0
  6  7  1  0
  7  8  2  0
  7  9  1  0
  9 10  1  0
 10 11  1  0
 11 12  2  0
 12 13  1  0
 13 14  1  0
 13 15  2  0
 15 16  1  0
 16 17  2  0
 17 18  1  0
 18 19  1  0
 19 20  1  0
 20 21  2  0
 21 22  1  0
 22 23  2  0
 23 24  1  0
 24 25  2  0
 25 26  1  0
 23 27  1  0
 22 28  1  0
 21 29  1  0
 19 30  1  0
 19 31  1  0
 16 32  1  0
 15 33  1  0
 12 34  1  0
 10 35  1  0
 10 36  1  0
  6 37  1  0
 37 38  1  0
 38 39  2  0
 39 40  1  0
 38 41  1  0
  1 42  1  0
  1 43  1  0
  1 44  1  0
 39  5  1  0
 17 11  1  0
 25 20  1  0
M  END
>  <cnnaffinity>  (1) 
-5.65147

>  <filename>  (1) 
CS(=O)(=O)c1ccsc1C(=O)OCc1cc(Cl)ccc1OCc1cccnc1

$$$$
