
     RDKit          3D

 32 33  0  0  0  0  0  0  0  0999 V2000
   11.6428   -0.1377   22.8183 C   0  0  0  0  0  0  0  0  0  0  0  0
   11.1383   -1.7278   22.1221 S   0  0  0  0  0  0  0  0  0  0  0  0
    9.3173   -1.5564   22.2105 C   0  0  0  0  0  0  0  0  0  0  0  0
    8.7400   -0.6209   21.1168 C   0  0  0  0  0  0  0  0  0  0  0  0
    9.4012    0.1396   20.4373 O   0  0  0  0  0  0  0  0  0  0  0  0
    7.3708   -0.6994   20.9338 N   0  0  0  0  0  0  0  0  0  0  0  0
    6.6710   -0.0070   19.9062 C   0  0  0  0  0  0  0  0  0  0  0  0
    5.4494    0.6229   20.1708 C   0  0  0  0  0  0  0  0  0  0  0  0
    4.8181    1.2978   19.1153 C   0  0  0  0  0  0  0  0  0  0  0  0
    5.3952    1.2959   17.8399 C   0  0  0  0  0  0  0  0  0  0  0  0
    6.5534    0.6737   17.5662 N   0  0  0  0  0  0  0  0  0  0  0  0
    7.1729    0.0607   18.5808 C   0  0  0  0  0  0  0  0  0  0  0  0
    8.1194   -0.4200   18.3639 H   0  0  0  0  0  0  0  0  0  0  0  0
    4.9169    1.7892   16.9976 H   0  0  0  0  0  0  0  0  0  0  0  0
    3.8872    1.8321   19.2675 H   0  0  0  0  0  0  0  0  0  0  0  0
    5.0201    0.6190   21.1744 H   0  0  0  0  0  0  0  0  0  0  0  0
    6.8250   -1.1077   21.6757 H   0  0  0  0  0  0  0  0  0  0  0  0
    8.8589   -1.1959   23.6183 C   0  0  0  0  0  0  0  0  0  0  0  0
    8.8280   -2.1940   24.6036 C   0  0  0  0  0  0  0  0  0  0  0  0
    8.4720   -1.8760   25.9170 C   0  0  0  0  0  0  0  0  0  0  0  0
    8.1588   -0.5593   26.2707 C   0  0  0  0  0  0  0  0  0  0  0  0
    8.2239    0.4325   25.2890 C   0  0  0  0  0  0  0  0  0  0  0  0
    7.8542    2.0749   25.7193 Cl  0  0  0  0  0  0  0  0  0  0  0  0
    8.5766    0.1343   23.9722 C   0  0  0  0  0  0  0  0  0  0  0  0
    8.6561    0.9373   23.2399 H   0  0  0  0  0  0  0  0  0  0  0  0
    7.8703   -0.2928   27.2846 H   0  0  0  0  0  0  0  0  0  0  0  0
    8.4287   -2.6609   26.6655 H   0  0  0  0  0  0  0  0  0  0  0  0
    9.0979   -3.2143   24.3379 H   0  0  0  0  0  0  0  0  0  0  0  0
    8.9778   -2.5797   21.9871 H   0  0  0  0  0  0  0  0  0  0  0  0
   11.0920    0.6811   22.3485 H   0  0  0  0  0  0  0  0  0  0  0  0
   11.4748   -0.1221   23.8975 H   0  0  0  0  0  0  0  0  0  0  0  0
   12.7084   -0.0002   22.6239 H   0  0  0  0  0  0  0  0  0  0  0  0
  1  2  1  0
  2  3  1  0
  3  4  1  0
  4  5  2  0
  4  6  1  0
  6  7  1  0
  7  8  2  0
  8  9  1  0
  9 10  2  0
 10 11  1  0
 11 12  2  0
 12 13  1  0
 10 14  1  0
  9 15  1  0
  8 16  1  0
  6 17  1  0
  3 18  1  0
 18 19  2  0
 19 20  1  0
 20 21  2  0
 21 22  1  0
 22 23  1  0
 22 24  2  0
 24 25  1  0
 21 26  1  0
 20 27  1  0
 19 28  1  0
  3 29  1  0
  1 30  1  0
  1 31  1  0
  1 32  1  0
 12  7  1  0
 24 18  1  0
M  END
>  <cnnaffinity>  (1) 
-5.42694

>  <filename>  (1) 
CSC(C(=O)Nc1cccnc1)c1cccc(Cl)c1

$$$$
