
     RDKit          3D

 40 42  0  0  0  0  0  0  0  0999 V2000
    5.6350   -5.8181   22.5021 C   0  0  0  0  0  0  0  0  0  0  0  0
    7.0300   -5.0911   21.6082 S   0  0  0  0  0  0  0  0  0  0  0  0
    7.9455   -4.4624   23.0375 C   0  0  0  0  0  0  0  0  0  0  0  0
    7.4452   -3.0999   23.5322 C   0  0  0  0  0  0  0  0  0  0  0  0
    7.6354   -2.0292   22.5182 C   0  0  0  0  0  0  0  0  0  0  0  0
    6.6800   -1.5998   21.7256 N   0  0  0  0  0  0  0  0  0  0  0  0
    7.3199   -0.7005   20.9331 N   0  0  0  0  0  0  0  0  0  0  0  0
    6.6422   -0.0047   19.8982 C   0  0  0  0  0  0  0  0  0  0  0  0
    5.4327    0.6428   20.1659 C   0  0  0  0  0  0  0  0  0  0  0  0
    4.8127    1.3129   19.1089 C   0  0  0  0  0  0  0  0  0  0  0  0
    5.3988    1.2964   17.8367 C   0  0  0  0  0  0  0  0  0  0  0  0
    6.5549    0.6684   17.5733 N   0  0  0  0  0  0  0  0  0  0  0  0
    7.1603    0.0457   18.5895 C   0  0  0  0  0  0  0  0  0  0  0  0
    8.1099   -0.4321   18.3611 H   0  0  0  0  0  0  0  0  0  0  0  0
    4.9223    1.7879   16.9923 H   0  0  0  0  0  0  0  0  0  0  0  0
    3.8819    1.8410   19.2587 H   0  0  0  0  0  0  0  0  0  0  0  0
    5.0153    0.6031   21.1760 H   0  0  0  0  0  0  0  0  0  0  0  0
    8.6102   -0.5909   21.3619 C   0  0  0  0  0  0  0  0  0  0  0  0
    9.6262    0.3255   20.7870 C   0  0  0  0  0  0  0  0  0  0  0  0
   10.3598    1.1073   21.8526 C   0  0  0  0  0  0  0  0  0  0  0  0
   11.6175    0.6830   22.2942 C   0  0  0  0  0  0  0  0  0  0  0  0
   12.2682    1.3202   23.3531 C   0  0  0  0  0  0  0  0  0  0  0  0
   11.6412    2.3967   23.9842 C   0  0  0  0  0  0  0  0  0  0  0  0
   10.3803    2.8354   23.5791 C   0  0  0  0  0  0  0  0  0  0  0  0
    9.7511    2.1832   22.5182 C   0  0  0  0  0  0  0  0  0  0  0  0
    8.1571    2.7162   22.0623 Cl  0  0  0  0  0  0  0  0  0  0  0  0
    9.8818    3.6692   24.0658 H   0  0  0  0  0  0  0  0  0  0  0  0
   12.1163    2.9096   24.8040 H   0  0  0  0  0  0  0  0  0  0  0  0
   13.2488    0.9791   23.6740 H   0  0  0  0  0  0  0  0  0  0  0  0
   12.0697   -0.1775   21.8056 H   0  0  0  0  0  0  0  0  0  0  0  0
   10.3066   -0.3435   20.2580 H   0  0  0  0  0  0  0  0  0  0  0  0
    9.1623    1.0190   20.0849 H   0  0  0  0  0  0  0  0  0  0  0  0
    8.8503   -1.4580   22.3214 N   0  0  0  0  0  0  0  0  0  0  0  0
    6.3809   -3.1464   23.7707 H   0  0  0  0  0  0  0  0  0  0  0  0
    7.9928   -2.8132   24.4349 H   0  0  0  0  0  0  0  0  0  0  0  0
    7.8805   -5.2095   23.8349 H   0  0  0  0  0  0  0  0  0  0  0  0
    8.9991   -4.4053   22.7481 H   0  0  0  0  0  0  0  0  0  0  0  0
    4.9380   -6.2377   21.7737 H   0  0  0  0  0  0  0  0  0  0  0  0
    5.1032   -5.0757   23.1078 H   0  0  0  0  0  0  0  0  0  0  0  0
    5.9916   -6.6225   23.1518 H   0  0  0  0  0  0  0  0  0  0  0  0
  1  2  1  0
  2  3  1  0
  3  4  1  0
  4  5  1  0
  5  6  2  0
  6  7  1  0
  7  8  1  0
  8  9  2  0
  9 10  1  0
 10 11  2  0
 11 12  1  0
 12 13  2  0
 13 14  1  0
 11 15  1  0
 10 16  1  0
  9 17  1  0
  7 18  1  0
 18 19  1  0
 19 20  1  0
 20 21  2  0
 21 22  1  0
 22 23  2  0
 23 24  1  0
 24 25  2  0
 25 26  1  0
 24 27  1  0
 23 28  1  0
 22 29  1  0
 21 30  1  0
 19 31  1  0
 19 32  1  0
 18 33  2  0
  4 34  1  0
  4 35  1  0
  3 36  1  0
  3 37  1  0
  1 38  1  0
  1 39  1  0
  1 40  1  0
 33  5  1  0
 13  8  1  0
 25 20  1  0
M  END
>  <cnnaffinity>  (1) 
-6.46729

>  <filename>  (1) 
CSCCc1nc(Cc2ccccc2Cl)n(-c2cccnc2)n1

$$$$
