
     RDKit          3D

 29 30  0  0  0  0  0  0  0  0999 V2000
    4.9154    1.7965   16.9826 H   0  0  0  0  0  0  0  0  0  0  0  0
    5.3914    1.3003   17.8251 C   0  0  0  0  0  0  0  0  0  0  0  0
    6.5525    0.6855   17.5547 N   0  0  0  0  0  0  0  0  0  0  0  0
    7.1472    0.0516   18.5733 C   0  0  0  0  0  0  0  0  0  0  0  0
    8.1125   -0.4084   18.3620 H   0  0  0  0  0  0  0  0  0  0  0  0
    6.6263   -0.0268   19.8787 C   0  0  0  0  0  0  0  0  0  0  0  0
    7.4001   -0.6880   20.9967 C   0  0  0  0  0  0  0  0  0  0  0  0
    6.7140   -1.0498   21.7698 H   0  0  0  0  0  0  0  0  0  0  0  0
    7.9584   -1.5569   20.6304 H   0  0  0  0  0  0  0  0  0  0  0  0
    8.4040    0.2481   21.7062 C   0  0  1  0  0  0  0  0  0  0  0  0
    8.9523   -0.3019   22.4814 H   0  0  0  0  0  0  0  0  0  0  0  0
    9.3391    0.6857   20.7719 F   0  0  0  0  0  0  0  0  0  0  0  0
    7.8754    1.4355   22.2770 N   0  0  0  0  0  0  0  0  0  0  0  0
    7.9865    2.2520   21.7049 H   0  0  0  0  0  0  0  0  0  0  0  0
    6.9557    1.4821   23.3043 C   0  0  0  0  0  0  0  0  0  0  0  0
    6.1988    2.6476   23.5235 C   0  0  0  0  0  0  0  0  0  0  0  0
    6.3178    3.4936   22.8525 H   0  0  0  0  0  0  0  0  0  0  0  0
    5.3099    2.7240   24.6002 C   0  0  0  0  0  0  0  0  0  0  0  0
    4.7333    3.6218   24.7932 H   0  0  0  0  0  0  0  0  0  0  0  0
    5.1661    1.6326   25.4588 C   0  0  0  0  0  0  0  0  0  0  0  0
    4.0677    1.7179   26.8049 Cl  0  0  0  0  0  0  0  0  0  0  0  0
    5.9000    0.4676   25.2489 C   0  0  0  0  0  0  0  0  0  0  0  0
    5.7826   -0.3738   25.9195 H   0  0  0  0  0  0  0  0  0  0  0  0
    6.7865    0.3921   24.1762 C   0  0  0  0  0  0  0  0  0  0  0  0
    7.3620   -0.5063   24.0024 H   0  0  0  0  0  0  0  0  0  0  0  0
    5.4228    0.6383   20.1399 C   0  0  0  0  0  0  0  0  0  0  0  0
    5.0155    0.6360   21.1557 H   0  0  0  0  0  0  0  0  0  0  0  0
    4.7952    1.3150   19.0915 C   0  0  0  0  0  0  0  0  0  0  0  0
    3.8677    1.8505   19.2452 H   0  0  0  0  0  0  0  0  0  0  0  0
  1  2  1  0
  2  3  2  0
  3  4  1  0
  4  5  1  0
  4  6  2  0
  6  7  1  0
  7  8  1  0
  7  9  1  0
  7 10  1  0
 10 11  1  1
 10 12  1  0
 10 13  1  0
 13 14  1  0
 13 15  1  0
 15 16  2  0
 16 17  1  0
 16 18  1  0
 18 19  1  0
 18 20  2  0
 20 21  1  0
 20 22  1  0
 22 23  1  0
 22 24  2  0
 24 25  1  0
  6 26  1  0
 26 27  1  0
 26 28  2  0
 28 29  1  0
 28  2  1  0
 24 15  1  0
M  END
>  <cnnaffinity>  (1) 
-4.82731

>  <filename>  (1) 
F[C@H](Cc1cccnc1)Nc1ccc(Cl)cc1

$$$$
