
     RDKit          3D

 31 32  0  0  0  0  0  0  0  0999 V2000
    6.4041   -2.4190   23.6040 H   0  0  0  0  0  0  0  0  0  0  0  0
    7.2743   -3.0062   23.2963 C   0  0  0  0  0  0  0  0  0  0  0  0
    7.6080   -3.0051   21.9996 C   0  0  0  0  0  0  0  0  0  0  0  0
    8.4205   -3.6362   21.6353 H   0  0  0  0  0  0  0  0  0  0  0  0
    6.9100   -2.1038   21.0095 C   0  0  0  0  0  0  0  0  0  0  0  0
    7.0219   -2.4612   19.9859 H   0  0  0  0  0  0  0  0  0  0  0  0
    5.8298   -2.1040   21.2079 H   0  0  0  0  0  0  0  0  0  0  0  0
    7.3435   -0.6272   21.0356 C   0  0  1  0  0  0  0  0  0  0  0  0
    7.1488   -0.1986   22.0292 H   0  0  0  0  0  0  0  0  0  0  0  0
    8.7188   -0.5345   20.8172 F   0  0  0  0  0  0  0  0  0  0  0  0
    6.6215    0.1397   19.9531 C   0  0  0  0  0  0  0  0  0  0  0  0
    7.1483    0.1144   18.6500 C   0  0  0  0  0  0  0  0  0  0  0  0
    8.0917   -0.3955   18.4633 H   0  0  0  0  0  0  0  0  0  0  0  0
    6.5596    0.6801   17.5888 N   0  0  0  0  0  0  0  0  0  0  0  0
    5.3930    1.3060   17.7999 C   0  0  0  0  0  0  0  0  0  0  0  0
    4.9564    1.7909   16.9294 H   0  0  0  0  0  0  0  0  0  0  0  0
    4.7587    1.3617   19.0446 C   0  0  0  0  0  0  0  0  0  0  0  0
    3.8085    1.8754   19.1353 H   0  0  0  0  0  0  0  0  0  0  0  0
    5.3788    0.7625   20.1458 C   0  0  0  0  0  0  0  0  0  0  0  0
    4.8958    0.7915   21.1257 H   0  0  0  0  0  0  0  0  0  0  0  0
    7.9167   -3.7231   24.4162 C   0  0  0  0  0  0  0  0  0  0  0  0
    7.1691   -3.8927   25.5974 C   0  0  0  0  0  0  0  0  0  0  0  0
    6.1672   -3.4733   25.6500 H   0  0  0  0  0  0  0  0  0  0  0  0
    7.6988   -4.5875   26.6854 C   0  0  0  0  0  0  0  0  0  0  0  0
    7.1014   -4.7290   27.5806 H   0  0  0  0  0  0  0  0  0  0  0  0
    8.9951   -5.1059   26.6153 C   0  0  0  0  0  0  0  0  0  0  0  0
    9.4020   -5.6614   27.4560 H   0  0  0  0  0  0  0  0  0  0  0  0
    9.7578   -4.9235   25.4560 C   0  0  0  0  0  0  0  0  0  0  0  0
   10.7641   -5.3260   25.4073 H   0  0  0  0  0  0  0  0  0  0  0  0
    9.2241   -4.2338   24.3609 C   0  0  0  0  0  0  0  0  0  0  0  0
    9.8339   -4.0614   23.4739 H   0  0  0  0  0  0  0  0  0  0  0  0
  1  2  1  0
  2  3  2  3
  3  4  1  0
  3  5  1  0
  5  6  1  0
  5  7  1  0
  5  8  1  0
  8  9  1  1
  8 10  1  0
  8 11  1  0
 11 12  2  0
 12 13  1  0
 12 14  1  0
 14 15  2  0
 15 16  1  0
 15 17  1  0
 17 18  1  0
 17 19  2  0
 19 20  1  0
  2 21  1  0
 21 22  2  0
 22 23  1  0
 22 24  1  0
 24 25  1  0
 24 26  2  0
 26 27  1  0
 26 28  1  0
 28 29  1  0
 28 30  2  0
 30 31  1  0
 19 11  1  0
 30 21  1  0
M  END
>  <cnnaffinity>  (1) 
-4.68881

>  <filename>  (1) 
F[C@H](CC=Cc1ccccc1)c1cccnc1

$$$$
