
     RDKit          3D

 31 32  0  0  0  0  0  0  0  0999 V2000
    4.9167    1.7889   16.9874 H   0  0  0  0  0  0  0  0  0  0  0  0
    5.3974    1.2975   17.8302 C   0  0  0  0  0  0  0  0  0  0  0  0
    6.5593    0.6839   17.5607 N   0  0  0  0  0  0  0  0  0  0  0  0
    7.1579    0.0659   18.5845 C   0  0  0  0  0  0  0  0  0  0  0  0
    8.1113   -0.4093   18.3672 H   0  0  0  0  0  0  0  0  0  0  0  0
    6.6434   -0.0100   19.8927 C   0  0  0  0  0  0  0  0  0  0  0  0
    7.4098   -0.7145   20.9935 C   0  0  0  0  0  0  0  0  0  0  0  0
    6.7233   -1.0157   21.7901 H   0  0  0  0  0  0  0  0  0  0  0  0
    7.8828   -1.6256   20.6054 H   0  0  0  0  0  0  0  0  0  0  0  0
    8.4968    0.1457   21.6472 C   0  0  1  0  0  0  0  0  0  0  0  0
    9.0521   -0.4528   22.3817 H   0  0  0  0  0  0  0  0  0  0  0  0
    9.4127    0.5336   20.6722 F   0  0  0  0  0  0  0  0  0  0  0  0
    7.9775    1.4232   22.3145 C   0  0  0  0  0  0  0  0  0  0  0  0
    8.8141    1.9888   22.7507 H   0  0  0  0  0  0  0  0  0  0  0  0
    7.5292    2.0662   21.5575 H   0  0  0  0  0  0  0  0  0  0  0  0
    6.9368    1.1821   23.2566 O   0  0  0  0  0  0  0  0  0  0  0  0
    7.1982    0.6015   24.4711 C   0  0  0  0  0  0  0  0  0  0  0  0
    6.0609    0.2363   25.2146 C   0  0  0  0  0  0  0  0  0  0  0  0
    5.0806    0.4119   24.7841 H   0  0  0  0  0  0  0  0  0  0  0  0
    6.2023   -0.3388   26.4765 C   0  0  0  0  0  0  0  0  0  0  0  0
    5.3230   -0.6215   27.0521 H   0  0  0  0  0  0  0  0  0  0  0  0
    7.4729   -0.5586   27.0176 C   0  0  0  0  0  0  0  0  0  0  0  0
    7.5808   -1.0133   27.9962 H   0  0  0  0  0  0  0  0  0  0  0  0
    8.6013   -0.1895   26.2827 C   0  0  0  0  0  0  0  0  0  0  0  0
    9.5920   -0.3522   26.7021 H   0  0  0  0  0  0  0  0  0  0  0  0
    8.4746    0.3879   25.0111 C   0  0  0  0  0  0  0  0  0  0  0  0
    9.3608    0.6755   24.4518 H   0  0  0  0  0  0  0  0  0  0  0  0
    5.4334    0.6477   20.1550 C   0  0  0  0  0  0  0  0  0  0  0  0
    5.0260    0.6451   21.1725 H   0  0  0  0  0  0  0  0  0  0  0  0
    4.8003    1.3134   19.0981 C   0  0  0  0  0  0  0  0  0  0  0  0
    3.8665    1.8486   19.2502 H   0  0  0  0  0  0  0  0  0  0  0  0
  1  2  1  0
  2  3  2  0
  3  4  1  0
  4  5  1  0
  4  6  2  0
  6  7  1  0
  7  8  1  0
  7  9  1  0
  7 10  1  0
 10 11  1  1
 10 12  1  0
 10 13  1  0
 13 14  1  0
 13 15  1  0
 13 16  1  0
 16 17  1  0
 17 18  2  0
 18 19  1  0
 18 20  1  0
 20 21  1  0
 20 22  2  0
 22 23  1  0
 22 24  1  0
 24 25  1  0
 24 26  2  0
 26 27  1  0
  6 28  1  0
 28 29  1  0
 28 30  2  0
 30 31  1  0
 30  2  1  0
 26 17  1  0
M  END
>  <cnnaffinity>  (1) 
-4.44812

>  <filename>  (1) 
F[C@@H](COc1ccccc1)Cc1cccnc1

$$$$
