
     RDKit          3D

 34 36  0  0  0  0  0  0  0  0999 V2000
    7.9689   -1.5498   20.6198 H   0  0  0  0  0  0  0  0  0  0  0  0
    7.3695   -0.6950   20.9198 C   0  0  0  0  0  0  0  0  0  0  0  0
    7.4397   -0.3956   22.2204 C   0  0  0  0  0  0  0  0  0  0  0  0
    6.9080    0.7502   22.7013 F   0  0  0  0  0  0  0  0  0  0  0  0
    8.2285   -1.1653   23.2604 C   0  0  0  0  0  0  0  0  0  0  0  0
    7.9623   -0.7864   24.2528 H   0  0  0  0  0  0  0  0  0  0  0  0
    7.9311   -2.2211   23.2541 H   0  0  0  0  0  0  0  0  0  0  0  0
    9.7277   -1.0406   23.0289 C   0  0  0  0  0  0  0  0  0  0  0  0
   10.4325   -2.0243   22.2795 C   0  0  0  0  0  0  0  0  0  0  0  0
    9.9016   -2.9060   21.9287 H   0  0  0  0  0  0  0  0  0  0  0  0
   11.7611   -1.8508   21.9843 C   0  0  0  0  0  0  0  0  0  0  0  0
   12.2877   -2.5266   21.3318 H   0  0  0  0  0  0  0  0  0  0  0  0
   12.4772   -0.7085   22.4248 C   0  0  0  0  0  0  0  0  0  0  0  0
   13.8560   -0.5113   22.1049 C   0  0  0  0  0  0  0  0  0  0  0  0
   14.3959   -1.3131   21.6086 H   0  0  0  0  0  0  0  0  0  0  0  0
   14.4684    0.6812   22.4014 C   0  0  0  0  0  0  0  0  0  0  0  0
   15.4909    0.8780   22.0814 H   0  0  0  0  0  0  0  0  0  0  0  0
   13.7431    1.7112   23.0642 C   0  0  0  0  0  0  0  0  0  0  0  0
   14.2259    2.6719   23.2013 H   0  0  0  0  0  0  0  0  0  0  0  0
   12.4452    1.5168   23.4696 C   0  0  0  0  0  0  0  0  0  0  0  0
   11.8988    2.2777   24.0218 H   0  0  0  0  0  0  0  0  0  0  0  0
   11.7715    0.3024   23.1461 C   0  0  0  0  0  0  0  0  0  0  0  0
   10.3937    0.0962   23.4315 C   0  0  0  0  0  0  0  0  0  0  0  0
    9.8418    0.9028   23.9064 H   0  0  0  0  0  0  0  0  0  0  0  0
    6.6294    0.0146   19.8498 C   0  0  0  0  0  0  0  0  0  0  0  0
    7.1260    0.0348   18.5253 C   0  0  0  0  0  0  0  0  0  0  0  0
    8.0686   -0.4626   18.2871 H   0  0  0  0  0  0  0  0  0  0  0  0
    6.5330    0.6673   17.5075 N   0  0  0  0  0  0  0  0  0  0  0  0
    5.3832    1.3080   17.7781 C   0  0  0  0  0  0  0  0  0  0  0  0
    4.9249    1.8348   16.9459 H   0  0  0  0  0  0  0  0  0  0  0  0
    4.7841    1.3303   19.0400 C   0  0  0  0  0  0  0  0  0  0  0  0
    3.8569    1.8691   19.1877 H   0  0  0  0  0  0  0  0  0  0  0  0
    5.4210    0.6828   20.0994 C   0  0  0  0  0  0  0  0  0  0  0  0
    5.0026    0.6926   21.1066 H   0  0  0  0  0  0  0  0  0  0  0  0
  1  2  1  0
  2  3  2  3
  3  4  1  0
  3  5  1  0
  5  6  1  0
  5  7  1  0
  5  8  1  0
  8  9  2  0
  9 10  1  0
  9 11  1  0
 11 12  1  0
 11 13  2  0
 13 14  1  0
 14 15  1  0
 14 16  2  0
 16 17  1  0
 16 18  1  0
 18 19  1  0
 18 20  2  0
 20 21  1  0
 20 22  1  0
 22 23  2  0
 23 24  1  0
  2 25  1  0
 25 26  2  0
 26 27  1  0
 26 28  1  0
 28 29  2  0
 29 30  1  0
 29 31  1  0
 31 32  1  0
 31 33  2  0
 33 34  1  0
 23  8  1  0
 33 25  1  0
 22 13  1  0
M  END
>  <cnnaffinity>  (1) 
-5.51159

>  <filename>  (1) 
FC(=Cc1cccnc1)Cc1ccc2ccccc2c1

$$$$
