
     RDKit          3D

 25 26  0  0  0  0  0  0  0  0999 V2000
    5.7391   -1.4293   21.9101 H   0  0  0  0  0  0  0  0  0  0  0  0
    6.8162   -1.3619   21.9549 C   0  0  0  0  0  0  0  0  0  0  0  0
    7.3844   -0.6937   20.9516 C   0  0  0  0  0  0  0  0  0  0  0  0
    8.7238   -0.7128   20.7708 F   0  0  0  0  0  0  0  0  0  0  0  0
    6.6748    0.0397   19.8979 C   0  0  0  0  0  0  0  0  0  0  0  0
    7.1896    0.0803   18.5890 C   0  0  0  0  0  0  0  0  0  0  0  0
    8.1270   -0.4239   18.3646 H   0  0  0  0  0  0  0  0  0  0  0  0
    6.5670    0.6735   17.5684 N   0  0  0  0  0  0  0  0  0  0  0  0
    5.4044    1.2900   17.8381 C   0  0  0  0  0  0  0  0  0  0  0  0
    4.9183    1.7784   16.9982 H   0  0  0  0  0  0  0  0  0  0  0  0
    4.8068    1.3099   19.1054 C   0  0  0  0  0  0  0  0  0  0  0  0
    3.8729    1.8414   19.2592 H   0  0  0  0  0  0  0  0  0  0  0  0
    5.4419    0.6550   20.1551 C   0  0  0  0  0  0  0  0  0  0  0  0
    5.0140    0.6395   21.1633 H   0  0  0  0  0  0  0  0  0  0  0  0
    7.5018   -2.0596   23.0477 C   0  0  0  0  0  0  0  0  0  0  0  0
    8.6496   -1.4963   23.6310 C   0  0  0  0  0  0  0  0  0  0  0  0
    8.9922   -0.5286   23.2760 H   0  0  0  0  0  0  0  0  0  0  0  0
    9.3170   -2.1554   24.6569 C   0  0  0  0  0  0  0  0  0  0  0  0
   10.1952   -1.6971   25.0955 H   0  0  0  0  0  0  0  0  0  0  0  0
    8.8516   -3.3952   25.1048 C   0  0  0  0  0  0  0  0  0  0  0  0
    9.3699   -3.9125   25.9029 H   0  0  0  0  0  0  0  0  0  0  0  0
    7.7162   -3.9766   24.5343 C   0  0  0  0  0  0  0  0  0  0  0  0
    7.3367   -4.9331   24.8747 H   0  0  0  0  0  0  0  0  0  0  0  0
    7.0463   -3.3051   23.5137 C   0  0  0  0  0  0  0  0  0  0  0  0
    5.6427   -4.0595   22.8126 Cl  0  0  0  0  0  0  0  0  0  0  0  0
  1  2  1  0
  2  3  2  3
  3  4  1  0
  3  5  1  0
  5  6  2  0
  6  7  1  0
  6  8  1  0
  8  9  2  0
  9 10  1  0
  9 11  1  0
 11 12  1  0
 11 13  2  0
 13 14  1  0
  2 15  1  0
 15 16  2  0
 16 17  1  0
 16 18  1  0
 18 19  1  0
 18 20  2  0
 20 21  1  0
 20 22  1  0
 22 23  1  0
 22 24  2  0
 24 25  1  0
 13  5  1  0
 24 15  1  0
M  END
>  <cnnaffinity>  (1) 
-4.68166

>  <filename>  (1) 
FC(=Cc1ccccc1Cl)c1cccnc1

$$$$
