
     RDKit          3D

 28 29  0  0  0  0  0  0  0  0999 V2000
    7.9179   -1.6506   20.6843 H   0  0  0  0  0  0  0  0  0  0  0  0
    7.3884   -0.7343   20.9289 C   0  0  0  0  0  0  0  0  0  0  0  0
    7.5099   -0.2774   22.1779 C   0  0  0  0  0  0  0  0  0  0  0  0
    8.1870   -0.9641   23.1080 F   0  0  0  0  0  0  0  0  0  0  0  0
    6.9943    0.8639   22.6163 O   0  0  0  0  0  0  0  0  0  0  0  0
    7.2200    1.4025   23.9319 C   0  0  0  0  0  0  0  0  0  0  0  0
    6.9470    0.6677   24.6923 H   0  0  0  0  0  0  0  0  0  0  0  0
    6.5284    2.2409   23.9821 H   0  0  0  0  0  0  0  0  0  0  0  0
    8.6295    1.8975   24.1062 C   0  0  0  0  0  0  0  0  0  0  0  0
    9.1153    2.9898   23.3815 C   0  0  0  0  0  0  0  0  0  0  0  0
    8.4774    3.5330   22.6921 H   0  0  0  0  0  0  0  0  0  0  0  0
   10.4491    3.3640   23.5483 C   0  0  0  0  0  0  0  0  0  0  0  0
   10.8461    4.2167   23.0053 H   0  0  0  0  0  0  0  0  0  0  0  0
   11.3052    2.7336   24.3633 N   0  0  0  0  0  0  0  0  0  0  0  0
   10.8295    1.6811   25.0355 C   0  0  0  0  0  0  0  0  0  0  0  0
   11.5220    1.1592   25.6829 H   0  0  0  0  0  0  0  0  0  0  0  0
    9.5140    1.2295   24.9459 C   0  0  0  0  0  0  0  0  0  0  0  0
    9.1904    0.3552   25.5007 H   0  0  0  0  0  0  0  0  0  0  0  0
    6.6486   -0.0110   19.8808 C   0  0  0  0  0  0  0  0  0  0  0  0
    7.1614    0.0584   18.5673 C   0  0  0  0  0  0  0  0  0  0  0  0
    8.1168   -0.4201   18.3574 H   0  0  0  0  0  0  0  0  0  0  0  0
    6.5630    0.6877   17.5542 N   0  0  0  0  0  0  0  0  0  0  0  0
    5.3972    1.2970   17.8308 C   0  0  0  0  0  0  0  0  0  0  0  0
    4.9128    1.7869   16.9917 H   0  0  0  0  0  0  0  0  0  0  0  0
    4.8023    1.3110   19.0980 C   0  0  0  0  0  0  0  0  0  0  0  0
    3.8724    1.8446   19.2546 H   0  0  0  0  0  0  0  0  0  0  0  0
    5.4393    0.6555   20.1501 C   0  0  0  0  0  0  0  0  0  0  0  0
    5.0287    0.6348   21.1618 H   0  0  0  0  0  0  0  0  0  0  0  0
  1  2  1  0
  2  3  2  3
  3  4  1  0
  3  5  1  0
  5  6  1  0
  6  7  1  0
  6  8  1  0
  6  9  1  0
  9 10  2  0
 10 11  1  0
 10 12  1  0
 12 13  1  0
 12 14  2  0
 14 15  1  0
 15 16  1  0
 15 17  2  0
 17 18  1  0
  2 19  1  0
 19 20  2  0
 20 21  1  0
 20 22  1  0
 22 23  2  0
 23 24  1  0
 23 25  1  0
 25 26  1  0
 25 27  2  0
 27 28  1  0
 17  9  1  0
 27 19  1  0
M  END
>  <cnnaffinity>  (1) 
-4.43076

>  <filename>  (1) 
FC(=Cc1cccnc1)OCc1ccncc1

$$$$
