
     RDKit          3D

 29 30  0  0  0  0  0  0  0  0999 V2000
    6.7114   -1.1665   21.7323 H   0  0  0  0  0  0  0  0  0  0  0  0
    7.3352   -0.6821   20.9855 C   0  0  0  0  0  0  0  0  0  0  0  0
    8.6459   -0.7126   21.2145 C   0  0  0  0  0  0  0  0  0  0  0  0
    9.5168   -0.0491   20.4172 F   0  0  0  0  0  0  0  0  0  0  0  0
    9.2846   -1.4034   22.3996 C   0  0  0  0  0  0  0  0  0  0  0  0
    9.0530   -2.4745   22.3890 H   0  0  0  0  0  0  0  0  0  0  0  0
   10.3721   -1.2736   22.3665 H   0  0  0  0  0  0  0  0  0  0  0  0
    8.7521   -0.9971   23.6584 O   0  0  0  0  0  0  0  0  0  0  0  0
    8.9697    0.2648   24.1459 C   0  0  0  0  0  0  0  0  0  0  0  0
    8.2413    0.5759   25.3057 C   0  0  0  0  0  0  0  0  0  0  0  0
    7.5611   -0.1765   25.6909 H   0  0  0  0  0  0  0  0  0  0  0  0
    8.4136    1.8154   25.9165 C   0  0  0  0  0  0  0  0  0  0  0  0
    7.8621    2.0471   26.8269 H   0  0  0  0  0  0  0  0  0  0  0  0
    9.2997    2.7502   25.3698 C   0  0  0  0  0  0  0  0  0  0  0  0
    9.4238    3.7154   25.8457 H   0  0  0  0  0  0  0  0  0  0  0  0
   10.0135    2.4412   24.2089 C   0  0  0  0  0  0  0  0  0  0  0  0
   10.7051    3.1593   23.7770 H   0  0  0  0  0  0  0  0  0  0  0  0
    9.8471    1.1988   23.5870 C   0  0  0  0  0  0  0  0  0  0  0  0
   10.3755    0.9582   22.6704 H   0  0  0  0  0  0  0  0  0  0  0  0
    6.6376   -0.0012   19.8776 C   0  0  0  0  0  0  0  0  0  0  0  0
    7.1561    0.0722   18.5707 C   0  0  0  0  0  0  0  0  0  0  0  0
    8.1082   -0.3986   18.3354 H   0  0  0  0  0  0  0  0  0  0  0  0
    6.5436    0.6920   17.5547 N   0  0  0  0  0  0  0  0  0  0  0  0
    5.3793    1.3070   17.8127 C   0  0  0  0  0  0  0  0  0  0  0  0
    4.9142    1.8169   16.9694 H   0  0  0  0  0  0  0  0  0  0  0  0
    4.7773    1.3134   19.0769 C   0  0  0  0  0  0  0  0  0  0  0  0
    3.8504    1.8600   19.2234 H   0  0  0  0  0  0  0  0  0  0  0  0
    5.4124    0.6407   20.1213 C   0  0  0  0  0  0  0  0  0  0  0  0
    4.9887    0.6295   21.1252 H   0  0  0  0  0  0  0  0  0  0  0  0
  1  2  1  0
  2  3  2  3
  3  4  1  0
  3  5  1  0
  5  6  1  0
  5  7  1  0
  5  8  1  0
  8  9  1  0
  9 10  2  0
 10 11  1  0
 10 12  1  0
 12 13  1  0
 12 14  2  0
 14 15  1  0
 14 16  1  0
 16 17  1  0
 16 18  2  0
 18 19  1  0
  2 20  1  0
 20 21  2  0
 21 22  1  0
 21 23  1  0
 23 24  2  0
 24 25  1  0
 24 26  1  0
 26 27  1  0
 26 28  2  0
 28 29  1  0
 18  9  1  0
 28 20  1  0
M  END
>  <cnnaffinity>  (1) 
-4.62386

>  <filename>  (1) 
FC(=Cc1cccnc1)COc1ccccc1

$$$$
