
     RDKit          3D

 25 26  0  0  0  0  0  0  0  0999 V2000
    7.4611    1.0492   22.2799 H   0  0  0  0  0  0  0  0  0  0  0  0
    7.6583   -0.0026   22.1478 C   0  0  0  0  0  0  0  0  0  0  0  0
    7.2909   -0.6253   21.0143 C   0  0  0  0  0  0  0  0  0  0  0  0
    6.6031    0.0341   19.8923 C   0  0  0  0  0  0  0  0  0  0  0  0
    7.1644    0.0171   18.6012 C   0  0  0  0  0  0  0  0  0  0  0  0
    8.1208   -0.4742   18.4253 H   0  0  0  0  0  0  0  0  0  0  0  0
    6.6131    0.6149   17.5374 N   0  0  0  0  0  0  0  0  0  0  0  0
    5.4574    1.2682   17.7376 C   0  0  0  0  0  0  0  0  0  0  0  0
    5.0148    1.7422   16.8648 H   0  0  0  0  0  0  0  0  0  0  0  0
    4.8158    1.3589   18.9809 C   0  0  0  0  0  0  0  0  0  0  0  0
    3.8798    1.8988   19.0789 H   0  0  0  0  0  0  0  0  0  0  0  0
    5.4109    0.7488   20.0866 C   0  0  0  0  0  0  0  0  0  0  0  0
    4.9753    0.8091   21.0892 H   0  0  0  0  0  0  0  0  0  0  0  0
    7.6146   -1.9641   20.8451 N   0  0  0  0  0  0  0  0  0  0  0  0
    7.2495   -2.4983   20.0779 H   0  0  0  0  0  0  0  0  0  0  0  0
    8.0591   -2.7589   21.8545 C   0  0  0  0  0  0  0  0  0  0  0  0
    8.0303   -4.4099   21.7110 S   0  0  0  0  0  0  0  0  0  0  0  0
    8.4957   -2.1270   22.9658 N   0  0  0  0  0  0  0  0  0  0  0  0
    8.6393   -2.7820   23.7190 H   0  0  0  0  0  0  0  0  0  0  0  0
    8.4284   -0.6808   23.2319 C   0  0  1  0  0  0  0  0  0  0  0  0
    7.9243   -0.5299   24.2069 H   0  0  0  0  0  0  0  0  0  0  0  0
    9.8317   -0.0148   23.5187 C   0  0  0  0  0  0  0  0  0  0  0  0
   10.4622   -0.6406   24.5265 F   0  0  0  0  0  0  0  0  0  0  0  0
    9.6383    1.2644   23.8951 F   0  0  0  0  0  0  0  0  0  0  0  0
   10.6439   -0.0103   22.4546 F   0  0  0  0  0  0  0  0  0  0  0  0
  1  2  1  0
  2  3  2  0
  3  4  1  0
  4  5  2  0
  5  6  1  0
  5  7  1  0
  7  8  2  0
  8  9  1  0
  8 10  1  0
 10 11  1  0
 10 12  2  0
 12 13  1  0
  3 14  1  0
 14 15  1  0
 14 16  1  0
 16 17  2  0
 16 18  1  0
 18 19  1  0
 18 20  1  0
 20 21  1  1
 20 22  1  0
 22 23  1  0
 22 24  1  0
 22 25  1  0
 20  2  1  0
 12  4  1  0
M  END
>  <cnnaffinity>  (1) 
-4.75094

>  <filename>  (1) 
FC(F)(F)[C@H]1C=C(c2cccnc2)NC(=S)N1

$$$$
