
     RDKit          3D

 21 22  0  0  0  0  0  0  0  0999 V2000
    4.9464    1.7783   16.9940 H   0  0  0  0  0  0  0  0  0  0  0  0
    5.4139    1.2831   17.8424 C   0  0  0  0  0  0  0  0  0  0  0  0
    6.5758    0.6603   17.5922 N   0  0  0  0  0  0  0  0  0  0  0  0
    7.1801    0.0469   18.6171 C   0  0  0  0  0  0  0  0  0  0  0  0
    8.1275   -0.4289   18.3715 H   0  0  0  0  0  0  0  0  0  0  0  0
    6.6474    0.0092   19.9127 C   0  0  0  0  0  0  0  0  0  0  0  0
    7.3420   -0.6841   20.9883 C   0  0  0  0  0  0  0  0  0  0  0  0
    6.9458   -0.7847   22.2155 N   0  0  0  0  0  0  0  0  0  0  0  0
    7.9469   -1.4946   22.8488 C   0  0  0  0  0  0  0  0  0  0  0  0
    7.8394   -1.9408   24.5363 S   0  0  0  0  0  0  0  0  0  0  0  0
    6.9097   -3.5207   24.2989 C   0  0  0  0  0  0  0  0  0  0  0  0
    6.7616   -4.0736   25.5016 F   0  0  0  0  0  0  0  0  0  0  0  0
    7.5973   -4.3587   23.5209 F   0  0  0  0  0  0  0  0  0  0  0  0
    5.7156   -3.3275   23.7583 F   0  0  0  0  0  0  0  0  0  0  0  0
    8.9023   -1.8080   21.9483 C   0  0  0  0  0  0  0  0  0  0  0  0
    9.7934   -2.4125   22.0139 H   0  0  0  0  0  0  0  0  0  0  0  0
    8.5252   -1.2979   20.7377 O   0  0  0  0  0  0  0  0  0  0  0  0
    5.4286    0.6553   20.1645 C   0  0  0  0  0  0  0  0  0  0  0  0
    5.0008    0.6379   21.1746 H   0  0  0  0  0  0  0  0  0  0  0  0
    4.8063    1.3078   19.1045 C   0  0  0  0  0  0  0  0  0  0  0  0
    3.8757    1.8424   19.2448 H   0  0  0  0  0  0  0  0  0  0  0  0
  1  2  1  0
  2  3  2  0
  3  4  1  0
  4  5  1  0
  4  6  2  0
  6  7  1  0
  7  8  2  0
  8  9  1  0
  9 10  1  0
 10 11  1  0
 11 12  1  0
 11 13  1  0
 11 14  1  0
  9 15  2  0
 15 16  1  0
 15 17  1  0
  6 18  1  0
 18 19  1  0
 18 20  2  0
 20 21  1  0
 20  2  1  0
 17  7  1  0
M  END
>  <cnnaffinity>  (1) 
-4.56494

>  <filename>  (1) 
FC(F)(F)Sc1coc(-c2cccnc2)n1

$$$$
