
     RDKit          3D

 26 27  0  0  0  0  0  0  0  0999 V2000
    6.8538   -0.6602   22.0129 H   0  0  0  0  0  0  0  0  0  0  0  0
    7.3239   -0.7229   21.0208 C   0  0  0  0  0  0  0  0  0  0  0  0
    8.4112   -1.3514   20.8035 N   0  0  0  0  0  0  0  0  0  0  0  0
    9.0721   -1.8650   21.9287 C   0  0  0  0  0  0  0  0  0  0  0  0
    8.4348   -2.0249   23.0973 N   0  0  0  0  0  0  0  0  0  0  0  0
    9.1215   -2.5805   24.1155 C   0  0  0  0  0  0  0  0  0  0  0  0
    8.4605   -2.7634   25.5072 C   0  0  0  0  0  0  0  0  0  0  0  0
    8.4402   -4.0652   25.8618 F   0  0  0  0  0  0  0  0  0  0  0  0
    9.1850   -2.1509   26.4688 F   0  0  0  0  0  0  0  0  0  0  0  0
    7.2144   -2.2955   25.5903 F   0  0  0  0  0  0  0  0  0  0  0  0
   10.4547   -2.9860   23.9913 C   0  0  0  0  0  0  0  0  0  0  0  0
   10.9503   -3.4878   24.8059 H   0  0  0  0  0  0  0  0  0  0  0  0
   11.1389   -2.7195   22.7913 C   0  0  0  0  0  0  0  0  0  0  0  0
   12.1945   -2.9475   22.6529 H   0  0  0  0  0  0  0  0  0  0  0  0
   10.4362   -2.1489   21.7532 C   0  0  0  0  0  0  0  0  0  0  0  0
   10.9093   -1.9053   20.8177 H   0  0  0  0  0  0  0  0  0  0  0  0
    6.6353   -0.0274   19.9465 C   0  0  0  0  0  0  0  0  0  0  0  0
    7.1871    0.0058   18.6527 C   0  0  0  0  0  0  0  0  0  0  0  0
    8.1327   -0.4910   18.4520 H   0  0  0  0  0  0  0  0  0  0  0  0
    6.6097    0.6349   17.6309 N   0  0  0  0  0  0  0  0  0  0  0  0
    5.4501    1.2664   17.8681 C   0  0  0  0  0  0  0  0  0  0  0  0
    4.9957    1.7733   17.0219 H   0  0  0  0  0  0  0  0  0  0  0  0
    4.8236    1.2934   19.1202 C   0  0  0  0  0  0  0  0  0  0  0  0
    3.8916    1.8278   19.2478 H   0  0  0  0  0  0  0  0  0  0  0  0
    5.4290    0.6393   20.1848 C   0  0  0  0  0  0  0  0  0  0  0  0
    4.9966    0.6466   21.1893 H   0  0  0  0  0  0  0  0  0  0  0  0
  1  2  1  0
  2  3  2  3
  3  4  1  0
  4  5  2  0
  5  6  1  0
  6  7  1  0
  7  8  1  0
  7  9  1  0
  7 10  1  0
  6 11  2  0
 11 12  1  0
 11 13  1  0
 13 14  1  0
 13 15  2  0
 15 16  1  0
  2 17  1  0
 17 18  2  0
 18 19  1  0
 18 20  1  0
 20 21  2  0
 21 22  1  0
 21 23  1  0
 23 24  1  0
 23 25  2  0
 25 26  1  0
 15  4  1  0
 25 17  1  0
M  END
>  <cnnaffinity>  (1) 
-5.02466

>  <filename>  (1) 
FC(F)(F)c1cccc(N=Cc2cccnc2)n1

$$$$
