
     RDKit          3D

 30 32  0  0  0  0  0  0  0  0999 V2000
    4.9849    1.7880   16.9742 H   0  0  0  0  0  0  0  0  0  0  0  0
    5.4138    1.2574   17.8217 C   0  0  0  0  0  0  0  0  0  0  0  0
    6.5609    0.5972   17.5939 N   0  0  0  0  0  0  0  0  0  0  0  0
    7.1348   -0.0258   18.6260 C   0  0  0  0  0  0  0  0  0  0  0  0
    8.0710   -0.5474   18.4221 H   0  0  0  0  0  0  0  0  0  0  0  0
    6.6187    0.0022   19.9312 C   0  0  0  0  0  0  0  0  0  0  0  0
    7.4039   -0.6206   20.9925 C   0  0  0  0  0  0  0  0  0  0  0  0
    8.1773   -1.7155   20.7184 N   0  0  0  0  0  0  0  0  0  0  0  0
    8.6007   -2.1708   21.8636 C   0  0  0  0  0  0  0  0  0  0  0  0
    9.1832   -3.0767   22.0189 H   0  0  0  0  0  0  0  0  0  0  0  0
    8.1606   -1.3989   22.8893 N   0  0  0  0  0  0  0  0  0  0  0  0
    8.4107   -1.5309   23.8585 H   0  0  0  0  0  0  0  0  0  0  0  0
    7.4468   -0.3509   22.3407 C   0  0  0  0  0  0  0  0  0  0  0  0
    6.9200    0.8177   23.0576 C   0  0  0  0  0  0  0  0  0  0  0  0
    5.9783    0.5447   23.9719 N   0  0  0  0  0  0  0  0  0  0  0  0
    5.3733    1.5622   24.5773 C   0  0  0  0  0  0  0  0  0  0  0  0
    4.5834    1.2979   25.2749 H   0  0  0  0  0  0  0  0  0  0  0  0
    5.6926    2.9041   24.3414 C   0  0  0  0  0  0  0  0  0  0  0  0
    5.1466    3.6863   24.8531 H   0  0  0  0  0  0  0  0  0  0  0  0
    6.7191    3.2010   23.4501 C   0  0  0  0  0  0  0  0  0  0  0  0
    7.0172    4.2328   23.2527 H   0  0  0  0  0  0  0  0  0  0  0  0
    7.3652    2.1333   22.8191 C   0  0  0  0  0  0  0  0  0  0  0  0
    8.5594    2.3126   21.9168 C   0  0  0  0  0  0  0  0  0  0  0  0
    9.5220    1.4127   22.2027 F   0  0  0  0  0  0  0  0  0  0  0  0
    9.1083    3.5307   22.0127 F   0  0  0  0  0  0  0  0  0  0  0  0
    8.2485    2.1273   20.6213 F   0  0  0  0  0  0  0  0  0  0  0  0
    5.3892    0.6460   20.1460 C   0  0  0  0  0  0  0  0  0  0  0  0
    4.9289    0.6513   21.1358 H   0  0  0  0  0  0  0  0  0  0  0  0
    4.7809    1.2851   19.0689 C   0  0  0  0  0  0  0  0  0  0  0  0
    3.8523    1.8307   19.1897 H   0  0  0  0  0  0  0  0  0  0  0  0
  1  2  1  0
  2  3  2  0
  3  4  1  0
  4  5  1  0
  4  6  2  0
  6  7  1  0
  7  8  1  0
  8  9  2  0
  9 10  1  0
  9 11  1  0
 11 12  1  0
 11 13  1  0
 13 14  1  0
 14 15  2  0
 15 16  1  0
 16 17  1  0
 16 18  2  0
 18 19  1  0
 18 20  1  0
 20 21  1  0
 20 22  2  0
 22 23  1  0
 23 24  1  0
 23 25  1  0
 23 26  1  0
  6 27  1  0
 27 28  1  0
 27 29  2  0
 29 30  1  0
 29  2  1  0
 13  7  2  0
 22 14  1  0
M  END
>  <cnnaffinity>  (1) 
-4.98553

>  <filename>  (1) 
FC(F)(F)c1cccnc1-c1[nH]cnc1-c1cccnc1

$$$$
