
     RDKit          3D

 41 43  0  0  0  0  0  0  0  0999 V2000
   13.0877    4.6814   21.8122 F   0  0  0  0  0  0  0  0  0  0  0  0
   12.2426    3.6681   22.1027 C   0  0  0  0  0  0  0  0  0  0  0  0
   12.1717    2.8969   21.0075 F   0  0  0  0  0  0  0  0  0  0  0  0
   12.8582    2.9386   23.0630 F   0  0  0  0  0  0  0  0  0  0  0  0
   10.8947    4.1656   22.5197 C   0  0  0  0  0  0  0  0  0  0  0  0
   10.5937    5.5091   22.7629 C   0  0  0  0  0  0  0  0  0  0  0  0
    9.2559    5.9041   22.7536 C   0  0  0  0  0  0  0  0  0  0  0  0
    8.2857    4.9400   22.4864 C   0  0  0  0  0  0  0  0  0  0  0  0
    8.5607    3.6514   22.2600 N   0  0  0  0  0  0  0  0  0  0  0  0
    9.8203    3.2530   22.3480 C   0  0  0  0  0  0  0  0  0  0  0  0
   10.0756    1.8952   22.2270 N   0  0  0  0  0  0  0  0  0  0  0  0
   10.6010    1.1393   23.3651 C   0  0  0  0  0  0  0  0  0  0  0  0
    9.4836    0.4512   24.1640 C   0  0  0  0  0  0  0  0  0  0  0  0
    8.6680   -0.4805   23.2545 C   0  0  0  0  0  0  0  0  0  0  0  0
    8.1240    0.2913   22.0338 C   0  0  0  0  0  0  0  0  0  0  0  0
    7.4018   -0.6552   21.0472 C   0  0  0  0  0  0  0  0  0  0  0  0
    6.6818    0.0363   19.9084 C   0  0  0  0  0  0  0  0  0  0  0  0
    5.4635    0.7018   20.1161 C   0  0  0  0  0  0  0  0  0  0  0  0
    4.8430    1.3410   19.0383 C   0  0  0  0  0  0  0  0  0  0  0  0
    5.4622    1.3038   17.7852 C   0  0  0  0  0  0  0  0  0  0  0  0
    6.6251    0.6758   17.5585 N   0  0  0  0  0  0  0  0  0  0  0  0
    7.2051    0.0652   18.6021 C   0  0  0  0  0  0  0  0  0  0  0  0
    8.1429   -0.4450   18.3791 H   0  0  0  0  0  0  0  0  0  0  0  0
    4.9992    1.7820   16.9226 H   0  0  0  0  0  0  0  0  0  0  0  0
    3.9044    1.8689   19.1567 H   0  0  0  0  0  0  0  0  0  0  0  0
    5.0153    0.7158   21.1120 H   0  0  0  0  0  0  0  0  0  0  0  0
    6.6816   -1.2671   21.6079 H   0  0  0  0  0  0  0  0  0  0  0  0
    8.1414   -1.3566   20.6352 H   0  0  0  0  0  0  0  0  0  0  0  0
    9.2583    1.0768   21.3324 C   0  0  0  0  0  0  0  0  0  0  0  0
    8.8298    1.6918   20.5347 H   0  0  0  0  0  0  0  0  0  0  0  0
    9.9412    0.3599   20.8482 H   0  0  0  0  0  0  0  0  0  0  0  0
    7.4157    1.0505   22.4006 H   0  0  0  0  0  0  0  0  0  0  0  0
    9.3131   -1.3096   22.9129 H   0  0  0  0  0  0  0  0  0  0  0  0
    7.8336   -0.9386   23.8073 H   0  0  0  0  0  0  0  0  0  0  0  0
    8.8284    1.2187   24.6000 H   0  0  0  0  0  0  0  0  0  0  0  0
    9.9305   -0.1050   24.9953 H   0  0  0  0  0  0  0  0  0  0  0  0
   11.2722    0.3599   22.9652 H   0  0  0  0  0  0  0  0  0  0  0  0
   11.1985    1.7851   24.0119 H   0  0  0  0  0  0  0  0  0  0  0  0
    7.2310    5.2103   22.4595 H   0  0  0  0  0  0  0  0  0  0  0  0
    8.9618    6.9316   22.9159 H   0  0  0  0  0  0  0  0  0  0  0  0
   11.3922    6.2402   22.9076 H   0  0  0  0  0  0  0  0  0  0  0  0
  1  2  1  0
  2  3  1  0
  2  4  1  0
  2  5  1  0
  5  6  2  0
  6  7  1  0
  7  8  2  0
  8  9  1  0
  9 10  2  0
 10 11  1  0
 11 12  1  0
 12 13  1  0
 13 14  1  0
 14 15  1  0
 15 16  1  0
 16 17  1  0
 17 18  2  0
 18 19  1  0
 19 20  2  0
 20 21  1  0
 21 22  2  0
 22 23  1  0
 20 24  1  0
 19 25  1  0
 18 26  1  0
 16 27  1  0
 16 28  1  0
 15 29  1  0
 29 30  1  0
 29 31  1  0
 15 32  1  0
 14 33  1  0
 14 34  1  0
 13 35  1  0
 13 36  1  0
 12 37  1  0
 12 38  1  0
  8 39  1  0
  7 40  1  0
  6 41  1  0
 10  5  1  0
 29 11  1  0
 22 17  1  0
M  END
>  <cnnaffinity>  (1) 
-5.78193

>  <filename>  (1) 
FC(F)(F)c1cccnc1N1CCCC(Cc2cccnc2)C1

$$$$
