
     RDKit          3D

 40 43  0  0  0  0  0  0  0  0999 V2000
   11.9559   -0.5863   21.1716 F   0  0  0  0  0  0  0  0  0  0  0  0
   11.4420   -0.4990   22.4099 C   0  0  0  0  0  0  0  0  0  0  0  0
   10.4158    0.3721   22.3648 F   0  0  0  0  0  0  0  0  0  0  0  0
   12.3954    0.0143   23.2051 F   0  0  0  0  0  0  0  0  0  0  0  0
   11.0026   -1.8597   22.9121 C   0  0  0  0  0  0  0  0  0  0  0  0
    9.9012   -2.5560   22.0908 C   0  0  0  0  0  0  0  0  0  0  0  0
    8.6100   -1.8403   21.8652 C   0  0  0  0  0  0  0  0  0  0  0  0
    8.2325   -1.4099   20.6848 N   0  0  0  0  0  0  0  0  0  0  0  0
    7.1011   -0.7055   20.9460 C   0  0  0  0  0  0  0  0  0  0  0  0
    6.4183    0.0325   19.8882 C   0  0  0  0  0  0  0  0  0  0  0  0
    5.2201    0.7460   20.0626 C   0  0  0  0  0  0  0  0  0  0  0  0
    4.6999    1.4113   18.9538 C   0  0  0  0  0  0  0  0  0  0  0  0
    5.3887    1.3516   17.7373 C   0  0  0  0  0  0  0  0  0  0  0  0
    6.5376    0.6817   17.5713 N   0  0  0  0  0  0  0  0  0  0  0  0
    7.0370    0.0456   18.6322 C   0  0  0  0  0  0  0  0  0  0  0  0
    7.9794   -0.4792   18.4817 H   0  0  0  0  0  0  0  0  0  0  0  0
    5.0108    1.8666   16.8572 H   0  0  0  0  0  0  0  0  0  0  0  0
    3.7893    1.9954   19.0137 H   0  0  0  0  0  0  0  0  0  0  0  0
    4.7283    0.7880   21.0374 H   0  0  0  0  0  0  0  0  0  0  0  0
    6.7348   -0.7111   22.2089 N   0  0  0  0  0  0  0  0  0  0  0  0
    7.7156   -1.4384   22.8133 N   0  0  0  0  0  0  0  0  0  0  0  0
    7.7061   -1.6878   24.2245 C   0  0  0  0  0  0  0  0  0  0  0  0
    7.7829   -2.9830   24.7133 C   0  0  0  0  0  0  0  0  0  0  0  0
    7.6940   -3.2130   26.1091 C   0  0  0  0  0  0  0  0  0  0  0  0
    7.5375   -2.2629   27.0130 N   0  0  0  0  0  0  0  0  0  0  0  0
    7.4921   -0.9735   26.5585 C   0  0  0  0  0  0  0  0  0  0  0  0
    7.3502    0.0943   27.5034 C   0  0  0  0  0  0  0  0  0  0  0  0
    7.3881    1.3962   27.0624 C   0  0  0  0  0  0  0  0  0  0  0  0
    7.5540    1.6604   25.6771 C   0  0  0  0  0  0  0  0  0  0  0  0
    7.6523    0.7185   24.7636 N   0  0  0  0  0  0  0  0  0  0  0  0
    7.5964   -0.5937   25.1619 C   0  0  0  0  0  0  0  0  0  0  0  0
    7.6045    2.6871   25.3206 H   0  0  0  0  0  0  0  0  0  0  0  0
    7.3151    2.2300   27.7533 H   0  0  0  0  0  0  0  0  0  0  0  0
    7.2261   -0.1663   28.5492 H   0  0  0  0  0  0  0  0  0  0  0  0
    7.7445   -4.2364   26.4782 H   0  0  0  0  0  0  0  0  0  0  0  0
    7.8331   -3.8315   24.0417 H   0  0  0  0  0  0  0  0  0  0  0  0
    9.7046   -3.5163   22.5706 H   0  0  0  0  0  0  0  0  0  0  0  0
   10.2649   -2.7621   21.0814 H   0  0  0  0  0  0  0  0  0  0  0  0
   11.8904   -2.5004   22.8656 H   0  0  0  0  0  0  0  0  0  0  0  0
   10.6990   -1.7462   23.9594 H   0  0  0  0  0  0  0  0  0  0  0  0
  1  2  1  0
  2  3  1  0
  2  4  1  0
  2  5  1  0
  5  6  1  0
  6  7  1  0
  7  8  2  0
  8  9  1  0
  9 10  1  0
 10 11  2  0
 11 12  1  0
 12 13  2  0
 13 14  1  0
 14 15  2  0
 15 16  1  0
 13 17  1  0
 12 18  1  0
 11 19  1  0
  9 20  2  0
 20 21  1  0
 21 22  1  0
 22 23  2  0
 23 24  1  0
 24 25  2  0
 25 26  1  0
 26 27  2  0
 27 28  1  0
 28 29  2  0
 29 30  1  0
 30 31  2  0
 29 32  1  0
 28 33  1  0
 27 34  1  0
 24 35  1  0
 23 36  1  0
  6 37  1  0
  6 38  1  0
  5 39  1  0
  5 40  1  0
 21  7  1  0
 31 22  1  0
 15 10  1  0
 31 26  1  0
M  END
>  <cnnaffinity>  (1) 
-6.57831

>  <filename>  (1) 
FC(F)(F)CCc1nc(-c2cccnc2)nn1-c1ccnc2cccnc12

$$$$
