
     RDKit          3D

 31 33  0  0  0  0  0  0  0  0999 V2000
    9.2787   -3.3387   21.3054 H   0  0  0  0  0  0  0  0  0  0  0  0
    8.7251   -2.4506   21.5821 C   0  0  0  0  0  0  0  0  0  0  0  0
    8.7598   -2.1084   22.8675 N   0  0  0  0  0  0  0  0  0  0  0  0
    8.0842   -0.9995   23.2275 C   0  0  0  0  0  0  0  0  0  0  0  0
    8.1059   -0.5675   24.6937 C   0  0  0  0  0  0  0  0  0  0  0  0
    7.4119    0.5364   25.0282 N   0  0  0  0  0  0  0  0  0  0  0  0
    7.4092    0.9470   26.3055 C   0  0  0  0  0  0  0  0  0  0  0  0
    6.6075    2.2132   26.6727 C   0  0  0  0  0  0  0  0  0  0  0  0
    5.9813    2.7785   25.6394 F   0  0  0  0  0  0  0  0  0  0  0  0
    5.6732    1.9414   27.6088 F   0  0  0  0  0  0  0  0  0  0  0  0
    7.4073    3.1523   27.2223 F   0  0  0  0  0  0  0  0  0  0  0  0
    8.1030    0.2743   27.3229 C   0  0  0  0  0  0  0  0  0  0  0  0
    8.0892    0.6300   28.3485 H   0  0  0  0  0  0  0  0  0  0  0  0
    8.8244   -0.8681   26.9771 C   0  0  0  0  0  0  0  0  0  0  0  0
    9.3807   -1.4183   27.7315 H   0  0  0  0  0  0  0  0  0  0  0  0
    8.8296   -1.2974   25.6552 C   0  0  0  0  0  0  0  0  0  0  0  0
    9.3760   -2.1790   25.3455 H   0  0  0  0  0  0  0  0  0  0  0  0
    7.3811   -0.2720   22.2736 C   0  0  0  0  0  0  0  0  0  0  0  0
    6.8561    0.6314   22.5493 H   0  0  0  0  0  0  0  0  0  0  0  0
    7.4030   -0.7277   20.9583 C   0  0  0  0  0  0  0  0  0  0  0  0
    6.6610   -0.0084   19.9052 C   0  0  0  0  0  0  0  0  0  0  0  0
    7.1782    0.0494   18.6045 C   0  0  0  0  0  0  0  0  0  0  0  0
    8.1247   -0.4325   18.3737 H   0  0  0  0  0  0  0  0  0  0  0  0
    6.5735    0.6776   17.5922 N   0  0  0  0  0  0  0  0  0  0  0  0
    5.4059    1.2879   17.8485 C   0  0  0  0  0  0  0  0  0  0  0  0
    4.9179    1.7737   17.0053 H   0  0  0  0  0  0  0  0  0  0  0  0
    4.8078    1.3047   19.1130 C   0  0  0  0  0  0  0  0  0  0  0  0
    3.8766    1.8416   19.2646 H   0  0  0  0  0  0  0  0  0  0  0  0
    5.4464    0.6480   20.1613 C   0  0  0  0  0  0  0  0  0  0  0  0
    5.0015    0.6303   21.1597 H   0  0  0  0  0  0  0  0  0  0  0  0
    8.0957   -1.8096   20.5995 N   0  0  0  0  0  0  0  0  0  0  0  0
  1  2  1  0
  2  3  2  0
  3  4  1  0
  4  5  1  0
  5  6  2  0
  6  7  1  0
  7  8  1  0
  8  9  1  0
  8 10  1  0
  8 11  1  0
  7 12  2  0
 12 13  1  0
 12 14  1  0
 14 15  1  0
 14 16  2  0
 16 17  1  0
  4 18  2  0
 18 19  1  0
 18 20  1  0
 20 21  1  0
 21 22  2  0
 22 23  1  0
 22 24  1  0
 24 25  2  0
 25 26  1  0
 25 27  1  0
 27 28  1  0
 27 29  2  0
 29 30  1  0
 20 31  2  0
 31  2  1  0
 16  5  1  0
 29 21  1  0
M  END
>  <cnnaffinity>  (1) 
-5.17541

>  <filename>  (1) 
FC(F)(F)c1cccc(-c2cc(-c3cccnc3)ncn2)n1

$$$$
