
     RDKit          3D

 42 45  0  0  0  0  0  0  0  0999 V2000
   11.9619   -0.8361   20.9302 F   0  0  0  0  0  0  0  0  0  0  0  0
   11.5738   -0.5305   22.1833 C   0  0  0  0  0  0  0  0  0  0  0  0
   10.6563    0.4434   22.1045 F   0  0  0  0  0  0  0  0  0  0  0  0
   12.6409   -0.0086   22.8197 F   0  0  0  0  0  0  0  0  0  0  0  0
   11.1011   -1.7782   22.8888 C   0  0  0  0  0  0  0  0  0  0  0  0
   10.0001   -2.5653   22.1796 C   0  0  0  0  0  0  0  0  0  0  0  0
    8.7476   -1.8729   21.9674 N   0  0  0  0  0  0  0  0  0  0  0  0
    8.4557   -1.3888   20.7404 N   0  0  0  0  0  0  0  0  0  0  0  0
    7.3474   -0.7113   20.9439 C   0  0  0  0  0  0  0  0  0  0  0  0
    6.6484    0.0105   19.8985 C   0  0  0  0  0  0  0  0  0  0  0  0
    5.4344    0.6595   20.1586 C   0  0  0  0  0  0  0  0  0  0  0  0
    4.8084    1.3069   19.1012 C   0  0  0  0  0  0  0  0  0  0  0  0
    5.4166    1.2817   17.8404 C   0  0  0  0  0  0  0  0  0  0  0  0
    6.5796    0.6614   17.5871 N   0  0  0  0  0  0  0  0  0  0  0  0
    7.1846    0.0475   18.6052 C   0  0  0  0  0  0  0  0  0  0  0  0
    8.1379   -0.4348   18.3813 H   0  0  0  0  0  0  0  0  0  0  0  0
    4.9536    1.7847   16.9970 H   0  0  0  0  0  0  0  0  0  0  0  0
    3.8739    1.8387   19.2406 H   0  0  0  0  0  0  0  0  0  0  0  0
    5.0068    0.6462   21.1642 H   0  0  0  0  0  0  0  0  0  0  0  0
    6.9019   -0.7423   22.2266 N   0  0  0  0  0  0  0  0  0  0  0  0
    7.8045   -1.4743   22.8482 C   0  0  0  0  0  0  0  0  0  0  0  0
    7.8408   -1.8015   24.3171 C   0  0  0  0  0  0  0  0  0  0  0  0
    8.1710   -0.5485   25.1941 C   0  0  0  0  0  0  0  0  0  0  0  0
    6.9365    0.3635   25.3854 C   0  0  0  0  0  0  0  0  0  0  0  0
    5.7456   -0.3596   26.0606 C   0  0  0  0  0  0  0  0  0  0  0  0
    5.5646   -1.7106   25.4357 C   0  0  0  0  0  0  0  0  0  0  0  0
    6.5153   -2.3719   24.7089 C   0  0  0  0  0  0  0  0  0  0  0  0
    6.0381   -3.5968   24.3599 N   0  0  0  0  0  0  0  0  0  0  0  0
    4.8370   -3.7281   24.8290 N   0  0  0  0  0  0  0  0  0  0  0  0
    4.5401   -2.5905   25.4791 N   0  0  0  0  0  0  0  0  0  0  0  0
    3.6414   -2.5058   25.9267 H   0  0  0  0  0  0  0  0  0  0  0  0
    5.9342   -0.4761   27.1391 H   0  0  0  0  0  0  0  0  0  0  0  0
    4.8327    0.2429   25.9829 H   0  0  0  0  0  0  0  0  0  0  0  0
    7.2103    1.2508   25.9676 H   0  0  0  0  0  0  0  0  0  0  0  0
    6.6245    0.7139   24.3920 H   0  0  0  0  0  0  0  0  0  0  0  0
    8.5379   -0.8941   26.1695 H   0  0  0  0  0  0  0  0  0  0  0  0
    8.9906    0.0204   24.7312 H   0  0  0  0  0  0  0  0  0  0  0  0
    8.5918   -2.5889   24.4694 H   0  0  0  0  0  0  0  0  0  0  0  0
   10.3319   -2.8078   21.1726 H   0  0  0  0  0  0  0  0  0  0  0  0
    9.8173   -3.4929   22.7354 H   0  0  0  0  0  0  0  0  0  0  0  0
   10.8492   -1.5121   23.9210 H   0  0  0  0  0  0  0  0  0  0  0  0
   11.9727   -2.4361   22.8970 H   0  0  0  0  0  0  0  0  0  0  0  0
  1  2  1  0
  2  3  1  0
  2  4  1  0
  2  5  1  0
  5  6  1  0
  6  7  1  0
  7  8  1  0
  8  9  2  0
  9 10  1  0
 10 11  2  0
 11 12  1  0
 12 13  2  0
 13 14  1  0
 14 15  2  0
 15 16  1  0
 13 17  1  0
 12 18  1  0
 11 19  1  0
  9 20  1  0
 20 21  2  0
 21 22  1  0
 22 23  1  0
 23 24  1  0
 24 25  1  0
 25 26  1  0
 26 27  2  0
 27 28  1  0
 28 29  2  0
 29 30  1  0
 30 31  1  0
 25 32  1  0
 25 33  1  0
 24 34  1  0
 24 35  1  0
 23 36  1  0
 23 37  1  0
 22 38  1  0
  6 39  1  0
  6 40  1  0
  5 41  1  0
  5 42  1  0
 21  7  1  0
 27 22  1  0
 15 10  1  0
 30 26  1  0
M  END
>  <cnnaffinity>  (1) 
-6.61957

>  <filename>  (1) 
FC(F)(F)CCn1nc(-c2cccnc2)nc1C1CCCc2[nH]nnc21

$$$$
