
     RDKit          3D

 40 43  0  0  0  0  0  0  0  0999 V2000
   12.3477   -0.1967   22.4786 F   0  0  0  0  0  0  0  0  0  0  0  0
   12.2607    1.0684   22.9042 C   0  0  0  0  0  0  0  0  0  0  0  0
   11.8525    1.0505   24.1858 F   0  0  0  0  0  0  0  0  0  0  0  0
   13.4974    1.6003   22.8723 F   0  0  0  0  0  0  0  0  0  0  0  0
   11.3568    1.9507   22.0505 C   0  0  0  0  0  0  0  0  0  0  0  0
    9.9630    1.5457   22.0590 N   0  0  0  0  0  0  0  0  0  0  0  0
    9.5696    0.5758   21.1998 N   0  0  0  0  0  0  0  0  0  0  0  0
    8.3661    0.2593   21.6342 C   0  0  0  0  0  0  0  0  0  0  0  0
    7.4533   -0.7164   20.9428 C   0  0  0  0  0  0  0  0  0  0  0  0
    6.6524   -0.0579   19.8189 C   0  0  0  0  0  0  0  0  0  0  0  0
    5.4542    0.6165   20.0953 C   0  0  0  0  0  0  0  0  0  0  0  0
    4.8049    1.2990   19.0651 C   0  0  0  0  0  0  0  0  0  0  0  0
    5.3865    1.3018   17.7956 C   0  0  0  0  0  0  0  0  0  0  0  0
    6.5331    0.6695   17.5050 N   0  0  0  0  0  0  0  0  0  0  0  0
    7.1424    0.0153   18.5013 C   0  0  0  0  0  0  0  0  0  0  0  0
    8.0927   -0.4571   18.2446 H   0  0  0  0  0  0  0  0  0  0  0  0
    4.9192    1.8479   16.9797 H   0  0  0  0  0  0  0  0  0  0  0  0
    3.8835    1.8451   19.2335 H   0  0  0  0  0  0  0  0  0  0  0  0
    5.0509    0.6346   21.1098 H   0  0  0  0  0  0  0  0  0  0  0  0
    8.0442   -1.5617   20.5724 H   0  0  0  0  0  0  0  0  0  0  0  0
    6.7917   -1.1093   21.7234 H   0  0  0  0  0  0  0  0  0  0  0  0
    7.9729    0.9308   22.7444 N   0  0  0  0  0  0  0  0  0  0  0  0
    8.9805    1.7532   22.9795 C   0  0  0  0  0  0  0  0  0  0  0  0
    9.0473    2.7900   24.0528 C   0  0  0  0  0  0  0  0  0  0  0  0
    8.9228    2.4080   25.3719 C   0  0  0  0  0  0  0  0  0  0  0  0
    8.8927    3.3968   26.3923 C   0  0  0  0  0  0  0  0  0  0  0  0
    9.0864    4.6829   26.1927 N   0  0  0  0  0  0  0  0  0  0  0  0
    9.2416    5.0933   24.9031 C   0  0  0  0  0  0  0  0  0  0  0  0
    9.4476    6.4691   24.6744 C   0  0  0  0  0  0  0  0  0  0  0  0
    9.4317    6.9254   23.3871 C   0  0  0  0  0  0  0  0  0  0  0  0
    9.2216    6.1383   22.3118 N   0  0  0  0  0  0  0  0  0  0  0  0
    9.0647    4.8430   22.5171 C   0  0  0  0  0  0  0  0  0  0  0  0
    9.1424    4.2102   23.7881 C   0  0  0  0  0  0  0  0  0  0  0  0
    8.8322    4.2301   21.6477 H   0  0  0  0  0  0  0  0  0  0  0  0
    9.5623    7.9810   23.1726 H   0  0  0  0  0  0  0  0  0  0  0  0
    9.5326    7.1200   25.5298 H   0  0  0  0  0  0  0  0  0  0  0  0
    8.6934    3.0880   27.4143 H   0  0  0  0  0  0  0  0  0  0  0  0
    8.8714    1.3524   25.6313 H   0  0  0  0  0  0  0  0  0  0  0  0
   11.4369    2.9680   22.4398 H   0  0  0  0  0  0  0  0  0  0  0  0
   11.7134    1.9193   21.0182 H   0  0  0  0  0  0  0  0  0  0  0  0
  1  2  1  0
  2  3  1  0
  2  4  1  0
  2  5  1  0
  5  6  1  0
  6  7  1  0
  7  8  2  0
  8  9  1  0
  9 10  1  0
 10 11  2  0
 11 12  1  0
 12 13  2  0
 13 14  1  0
 14 15  2  0
 15 16  1  0
 13 17  1  0
 12 18  1  0
 11 19  1  0
  9 20  1  0
  9 21  1  0
  8 22  1  0
 22 23  2  0
 23 24  1  0
 24 25  2  0
 25 26  1  0
 26 27  2  0
 27 28  1  0
 28 29  2  0
 29 30  1  0
 30 31  2  0
 31 32  1  0
 32 33  2  0
 32 34  1  0
 30 35  1  0
 29 36  1  0
 26 37  1  0
 25 38  1  0
  5 39  1  0
  5 40  1  0
 23  6  1  0
 33 24  1  0
 15 10  1  0
 33 28  1  0
M  END
>  <cnnaffinity>  (1) 
-6.49474

>  <filename>  (1) 
FC(F)(F)Cn1nc(Cc2cccnc2)nc1-c1ccnc2ccncc12

$$$$
