
     RDKit          3D

 21 22  0  0  0  0  0  0  0  0999 V2000
    4.9419    1.8225   16.9800 H   0  0  0  0  0  0  0  0  0  0  0  0
    5.4065    1.3117   17.8196 C   0  0  0  0  0  0  0  0  0  0  0  0
    6.5688    0.6880   17.5751 N   0  0  0  0  0  0  0  0  0  0  0  0
    7.1588    0.0477   18.5933 C   0  0  0  0  0  0  0  0  0  0  0  0
    8.1110   -0.4256   18.3413 H   0  0  0  0  0  0  0  0  0  0  0  0
    6.6128   -0.0396   19.8944 C   0  0  0  0  0  0  0  0  0  0  0  0
    7.2680   -0.7968   21.0060 C   0  0  0  0  0  0  0  0  0  0  0  0
    6.6249   -1.7049   21.9219 C   0  0  0  0  0  0  0  0  0  0  0  0
    5.5613   -1.9378   21.9254 H   0  0  0  0  0  0  0  0  0  0  0  0
    7.3771   -2.3174   22.7850 N   0  0  0  0  0  0  0  0  0  0  0  0
    8.9591   -1.8286   22.6054 S   0  0  0  0  0  0  0  0  0  0  0  0
    8.5956   -0.7062   21.3550 C   0  0  0  0  0  0  0  0  0  0  0  0
    9.8152    0.3945   20.7466 S   0  0  0  0  0  0  0  0  0  0  0  0
    9.6102    1.9546   21.7080 C   0  0  0  0  0  0  0  0  0  0  0  0
    9.6885    1.7013   23.0072 F   0  0  0  0  0  0  0  0  0  0  0  0
   10.6314    2.7223   21.3468 F   0  0  0  0  0  0  0  0  0  0  0  0
    8.4632    2.5687   21.4376 F   0  0  0  0  0  0  0  0  0  0  0  0
    5.4059    0.6399   20.1211 C   0  0  0  0  0  0  0  0  0  0  0  0
    4.9741    0.6647   21.1205 H   0  0  0  0  0  0  0  0  0  0  0  0
    4.7915    1.3216   19.0721 C   0  0  0  0  0  0  0  0  0  0  0  0
    3.8595    1.8596   19.2117 H   0  0  0  0  0  0  0  0  0  0  0  0
  1  2  1  0
  2  3  2  0
  3  4  1  0
  4  5  1  0
  4  6  2  0
  6  7  1  0
  7  8  1  0
  8  9  1  0
  8 10  2  0
 10 11  1  0
 11 12  1  0
 12 13  1  0
 13 14  1  0
 14 15  1  0
 14 16  1  0
 14 17  1  0
  6 18  1  0
 18 19  1  0
 18 20  2  0
 20 21  1  0
 20  2  1  0
 12  7  2  0
M  END
>  <cnnaffinity>  (1) 
-4.76494

>  <filename>  (1) 
FC(F)(F)Sc1sncc1-c1cccnc1

$$$$
