
     RDKit          3D

 49 52  0  0  0  0  0  0  0  0999 V2000
   12.0606   -0.9344   20.8828 F   0  0  0  0  0  0  0  0  0  0  0  0
   11.6247   -0.5628   22.1022 C   0  0  0  0  0  0  0  0  0  0  0  0
   12.6744   -0.0384   22.7663 F   0  0  0  0  0  0  0  0  0  0  0  0
   10.7419    0.4269   21.9265 F   0  0  0  0  0  0  0  0  0  0  0  0
   11.1074   -1.7736   22.8411 C   0  0  0  0  0  0  0  0  0  0  0  0
    9.9861   -2.5536   22.1523 C   0  0  0  0  0  0  0  0  0  0  0  0
    8.7383   -1.8570   21.9430 N   0  0  0  0  0  0  0  0  0  0  0  0
    8.4142   -1.4056   20.7131 N   0  0  0  0  0  0  0  0  0  0  0  0
    7.3240   -0.7043   20.9269 C   0  0  0  0  0  0  0  0  0  0  0  0
    6.6296    0.0108   19.8720 C   0  0  0  0  0  0  0  0  0  0  0  0
    5.4202    0.6680   20.1285 C   0  0  0  0  0  0  0  0  0  0  0  0
    4.7996    1.3197   19.0716 C   0  0  0  0  0  0  0  0  0  0  0  0
    5.4162    1.2967   17.8142 C   0  0  0  0  0  0  0  0  0  0  0  0
    6.5789    0.6710   17.5644 N   0  0  0  0  0  0  0  0  0  0  0  0
    7.1774    0.0498   18.5824 C   0  0  0  0  0  0  0  0  0  0  0  0
    8.1320   -0.4331   18.3648 H   0  0  0  0  0  0  0  0  0  0  0  0
    4.9500    1.8054   16.9755 H   0  0  0  0  0  0  0  0  0  0  0  0
    3.8658    1.8517   19.2210 H   0  0  0  0  0  0  0  0  0  0  0  0
    5.0027    0.6583   21.1368 H   0  0  0  0  0  0  0  0  0  0  0  0
    6.9077   -0.7003   22.2194 N   0  0  0  0  0  0  0  0  0  0  0  0
    7.8165   -1.4374   22.8326 C   0  0  0  0  0  0  0  0  0  0  0  0
    7.8273   -1.8252   24.2951 C   0  0  0  0  0  0  0  0  0  0  0  0
    7.8426   -0.5866   25.2036 C   0  0  0  0  0  0  0  0  0  0  0  0
    7.6903   -0.9159   26.6946 C   0  0  0  0  0  0  0  0  0  0  0  0
    6.4713   -1.8191   26.9419 C   0  0  0  0  0  0  0  0  0  0  0  0
    6.5847   -3.0880   26.1091 C   0  0  0  0  0  0  0  0  0  0  0  0
    5.4226   -4.0719   26.1173 C   0  0  0  0  0  0  0  0  0  0  0  0
    5.4668   -4.7720   24.7381 C   0  0  0  0  0  0  0  0  0  0  0  0
    6.3991   -3.9213   23.8524 C   0  0  0  0  0  0  0  0  0  0  0  0
    6.6372   -2.6827   24.6561 N   0  0  0  0  0  4  0  0  0  0  0  0
    5.7932   -2.0602   24.5083 H   0  0  0  0  0  0  0  0  0  0  0  0
    5.9803   -3.6680   22.8717 H   0  0  0  0  0  0  0  0  0  0  0  0
    7.3497   -4.4406   23.6695 H   0  0  0  0  0  0  0  0  0  0  0  0
    4.4676   -4.8494   24.2992 H   0  0  0  0  0  0  0  0  0  0  0  0
    5.8619   -5.7893   24.8141 H   0  0  0  0  0  0  0  0  0  0  0  0
    4.4837   -3.5211   26.2395 H   0  0  0  0  0  0  0  0  0  0  0  0
    5.5017   -4.7683   26.9543 H   0  0  0  0  0  0  0  0  0  0  0  0
    7.5236   -3.6084   26.3580 H   0  0  0  0  0  0  0  0  0  0  0  0
    5.5535   -1.2925   26.6437 H   0  0  0  0  0  0  0  0  0  0  0  0
    6.3557   -2.0614   27.9991 H   0  0  0  0  0  0  0  0  0  0  0  0
    8.5963   -1.4215   27.0561 H   0  0  0  0  0  0  0  0  0  0  0  0
    7.6130    0.0129   27.2729 H   0  0  0  0  0  0  0  0  0  0  0  0
    7.0260    0.0652   24.8753 H   0  0  0  0  0  0  0  0  0  0  0  0
    8.7758   -0.0415   25.0252 H   0  0  0  0  0  0  0  0  0  0  0  0
    8.7231   -2.4243   24.4861 H   0  0  0  0  0  0  0  0  0  0  0  0
   10.3037   -2.8215   21.1490 H   0  0  0  0  0  0  0  0  0  0  0  0
    9.7974   -3.4783   22.7020 H   0  0  0  0  0  0  0  0  0  0  0  0
   10.8707   -1.4706   23.8642 H   0  0  0  0  0  0  0  0  0  0  0  0
   11.9797   -2.4318   22.8840 H   0  0  0  0  0  0  0  0  0  0  0  0
  1  2  1  0
  2  3  1  0
  2  4  1  0
  2  5  1  0
  5  6  1  0
  6  7  1  0
  7  8  1  0
  8  9  2  0
  9 10  1  0
 10 11  2  0
 11 12  1  0
 12 13  2  0
 13 14  1  0
 14 15  2  0
 15 16  1  0
 13 17  1  0
 12 18  1  0
 11 19  1  0
  9 20  1  0
 20 21  2  0
 21 22  1  0
 22 23  1  0
 23 24  1  0
 24 25  1  0
 25 26  1  0
 26 27  1  0
 27 28  1  0
 28 29  1  0
 29 30  1  0
 30 31  1  0
 29 32  1  0
 29 33  1  0
 28 34  1  0
 28 35  1  0
 27 36  1  0
 27 37  1  0
 26 38  1  0
 25 39  1  0
 25 40  1  0
 24 41  1  0
 24 42  1  0
 23 43  1  0
 23 44  1  0
 22 45  1  0
  6 46  1  0
  6 47  1  0
  5 48  1  0
  5 49  1  0
 21  7  1  0
 30 22  1  0
 15 10  1  0
 30 26  1  0
M  CHG  1  30   1
M  END
>  <cnnaffinity>  (1) 
-6.39621

>  <filename>  (1) 
FC(F)(F)CCn1nc(-c2cccnc2)nc1C1CCCC2CCC[NH+]21

$$$$
