
     RDKit          3D

 27 29  0  0  0  0  0  0  0  0999 V2000
    4.9195    1.7744   16.9998 H   0  0  0  0  0  0  0  0  0  0  0  0
    5.4041    1.2871   17.8416 C   0  0  0  0  0  0  0  0  0  0  0  0
    6.5670    0.6710   17.5828 N   0  0  0  0  0  0  0  0  0  0  0  0
    7.1826    0.0701   18.6067 C   0  0  0  0  0  0  0  0  0  0  0  0
    8.1248   -0.4266   18.3779 H   0  0  0  0  0  0  0  0  0  0  0  0
    6.6686    0.0567   19.9042 C   0  0  0  0  0  0  0  0  0  0  0  0
    7.3544   -0.7581   20.9595 C   0  0  0  0  0  0  0  0  0  0  0  0
    8.7190   -0.6982   20.7811 F   0  0  0  0  0  0  0  0  0  0  0  0
    7.1529   -0.1718   22.1899 F   0  0  0  0  0  0  0  0  0  0  0  0
    6.9071   -2.2035   21.0073 C   0  0  0  0  0  0  0  0  0  0  0  0
    5.9855   -2.7923   20.1992 C   0  0  0  0  0  0  0  0  0  0  0  0
    5.4314   -2.3200   19.3959 H   0  0  0  0  0  0  0  0  0  0  0  0
    5.7384   -4.4713   20.5273 S   0  0  0  0  0  0  0  0  0  0  0  0
    6.8938   -4.4204   21.8296 C   0  0  0  0  0  0  0  0  0  0  0  0
    7.2804   -5.4777   22.6696 C   0  0  0  0  0  0  0  0  0  0  0  0
    6.8370   -6.4623   22.5516 H   0  0  0  0  0  0  0  0  0  0  0  0
    8.2369   -5.2286   23.6500 C   0  0  0  0  0  0  0  0  0  0  0  0
    8.5486   -6.0339   24.3116 H   0  0  0  0  0  0  0  0  0  0  0  0
    8.8064   -3.9425   23.8012 C   0  0  0  0  0  0  0  0  0  0  0  0
    9.5500   -3.7729   24.5758 H   0  0  0  0  0  0  0  0  0  0  0  0
    8.4226   -2.8953   22.9728 C   0  0  0  0  0  0  0  0  0  0  0  0
    8.8564   -1.9040   23.0884 H   0  0  0  0  0  0  0  0  0  0  0  0
    7.4532   -3.1334   21.9728 C   0  0  0  0  0  0  0  0  0  0  0  0
    5.4355    0.6643   20.1622 C   0  0  0  0  0  0  0  0  0  0  0  0
    5.0001    0.6410   21.1647 H   0  0  0  0  0  0  0  0  0  0  0  0
    4.8012    1.3099   19.1045 C   0  0  0  0  0  0  0  0  0  0  0  0
    3.8713    1.8447   19.2593 H   0  0  0  0  0  0  0  0  0  0  0  0
  1  2  1  0
  2  3  2  0
  3  4  1  0
  4  5  1  0
  4  6  2  0
  6  7  1  0
  7  8  1  0
  7  9  1  0
  7 10  1  0
 10 11  2  0
 11 12  1  0
 11 13  1  0
 13 14  1  0
 14 15  2  0
 15 16  1  0
 15 17  1  0
 17 18  1  0
 17 19  2  0
 19 20  1  0
 19 21  1  0
 21 22  1  0
 21 23  2  0
  6 24  1  0
 24 25  1  0
 24 26  2  0
 26 27  1  0
 26  2  1  0
 23 10  1  0
 23 14  1  0
M  END
>  <cnnaffinity>  (1) 
-4.5927

>  <filename>  (1) 
FC(F)(c1cccnc1)c1csc2ccccc12

$$$$
