
     RDKit          3D

 43 46  0  0  0  0  0  0  0  0999 V2000
   12.8640   -2.0104   20.7655 F   0  0  0  0  0  0  0  0  0  0  0  0
   12.2140   -1.1759   21.5993 C   0  0  0  0  0  0  0  0  0  0  0  0
   13.1643   -0.4697   22.2464 F   0  0  0  0  0  0  0  0  0  0  0  0
   11.5159   -0.3097   20.8641 F   0  0  0  0  0  0  0  0  0  0  0  0
   11.3538   -1.9132   22.6015 C   0  0  0  0  0  0  0  0  0  0  0  0
   10.0232   -2.5138   22.1468 C   0  0  0  0  0  0  0  0  0  0  0  0
    8.8629   -1.6363   22.0448 N   0  0  0  0  0  0  0  0  0  0  0  0
    8.5656   -1.1266   20.8238 N   0  0  0  0  0  0  0  0  0  0  0  0
    7.3749   -0.5833   21.0019 C   0  0  0  0  0  0  0  0  0  0  0  0
    6.6247    0.0629   19.9267 C   0  0  0  0  0  0  0  0  0  0  0  0
    5.3867    0.6947   20.1257 C   0  0  0  0  0  0  0  0  0  0  0  0
    4.7933    1.3237   19.0331 C   0  0  0  0  0  0  0  0  0  0  0  0
    5.4429    1.2830   17.7918 C   0  0  0  0  0  0  0  0  0  0  0  0
    6.6024    0.6428   17.5856 N   0  0  0  0  0  0  0  0  0  0  0  0
    7.1740    0.0482   18.6365 C   0  0  0  0  0  0  0  0  0  0  0  0
    8.1132   -0.4693   18.4486 H   0  0  0  0  0  0  0  0  0  0  0  0
    5.0135    1.7845   16.9274 H   0  0  0  0  0  0  0  0  0  0  0  0
    3.8603    1.8667   19.1303 H   0  0  0  0  0  0  0  0  0  0  0  0
    4.9133    0.6959   21.1114 H   0  0  0  0  0  0  0  0  0  0  0  0
    6.8851   -0.7260   22.2551 N   0  0  0  0  0  0  0  0  0  0  0  0
    7.8258   -1.3975   22.8873 C   0  0  0  0  0  0  0  0  0  0  0  0
    7.7578   -1.8603   24.3269 C   0  0  0  0  0  0  0  0  0  0  0  0
    8.8843   -1.2388   25.2162 C   0  0  0  0  0  0  0  0  0  0  0  0
    8.9391   -1.8545   26.6265 C   0  0  0  0  0  0  0  0  0  0  0  0
    9.2028   -3.3692   26.5826 C   0  0  0  0  0  0  0  0  0  0  0  0
    8.3542   -4.0071   25.5344 C   0  0  0  0  0  0  0  0  0  0  0  0
    7.7301   -3.3775   24.4875 C   0  0  0  0  0  0  0  0  0  0  0  0
    7.1109   -4.4271   23.7671 C   0  0  0  0  0  0  0  0  0  0  0  0
    7.3576   -5.6163   24.3140 N   0  0  0  0  0  0  0  0  0  0  0  0
    8.1210   -5.3290   25.3842 N   0  0  0  0  0  0  0  0  0  0  0  0
    8.4475   -6.0640   25.9964 H   0  0  0  0  0  0  0  0  0  0  0  0
    6.4991   -4.3530   22.8749 H   0  0  0  0  0  0  0  0  0  0  0  0
   10.2476   -3.5737   26.3149 H   0  0  0  0  0  0  0  0  0  0  0  0
    9.0305   -3.8304   27.5612 H   0  0  0  0  0  0  0  0  0  0  0  0
    9.7268   -1.3632   27.2071 H   0  0  0  0  0  0  0  0  0  0  0  0
    7.9980   -1.6611   27.1574 H   0  0  0  0  0  0  0  0  0  0  0  0
    9.8616   -1.4014   24.7477 H   0  0  0  0  0  0  0  0  0  0  0  0
    8.7350   -0.1561   25.2828 H   0  0  0  0  0  0  0  0  0  0  0  0
    6.7959   -1.4569   24.6814 H   0  0  0  0  0  0  0  0  0  0  0  0
    9.7803   -3.3157   22.8504 H   0  0  0  0  0  0  0  0  0  0  0  0
   10.1235   -2.9112   21.1423 H   0  0  0  0  0  0  0  0  0  0  0  0
   11.1969   -1.2296   23.4325 H   0  0  0  0  0  0  0  0  0  0  0  0
   11.9912   -2.7322   22.9360 H   0  0  0  0  0  0  0  0  0  0  0  0
  1  2  1  0
  2  3  1  0
  2  4  1  0
  2  5  1  0
  5  6  1  0
  6  7  1  0
  7  8  1  0
  8  9  2  0
  9 10  1  0
 10 11  2  0
 11 12  1  0
 12 13  2  0
 13 14  1  0
 14 15  2  0
 15 16  1  0
 13 17  1  0
 12 18  1  0
 11 19  1  0
  9 20  1  0
 20 21  2  0
 21 22  1  0
 22 23  1  0
 23 24  1  0
 24 25  1  0
 25 26  1  0
 26 27  2  0
 27 28  1  0
 28 29  2  0
 29 30  1  0
 30 31  1  0
 28 32  1  0
 25 33  1  0
 25 34  1  0
 24 35  1  0
 24 36  1  0
 23 37  1  0
 23 38  1  0
 22 39  1  0
  6 40  1  0
  6 41  1  0
  5 42  1  0
  5 43  1  0
 21  7  1  0
 27 22  1  0
 15 10  1  0
 30 26  1  0
M  END
>  <cnnaffinity>  (1) 
-6.64361

>  <filename>  (1) 
FC(F)(F)CCn1nc(-c2cccnc2)nc1C1CCCc2[nH]ncc21

$$$$
