
     RDKit          3D

 46 49  0  0  0  0  0  0  0  0999 V2000
   10.6675    0.4502   22.0066 F   0  0  0  0  0  0  0  0  0  0  0  0
   11.5837   -0.5182   22.1314 C   0  0  0  0  0  0  0  0  0  0  0  0
   12.6419    0.0263   22.7630 F   0  0  0  0  0  0  0  0  0  0  0  0
   11.9872   -0.8690   20.8950 F   0  0  0  0  0  0  0  0  0  0  0  0
   11.1097   -1.7422   22.8723 C   0  0  0  0  0  0  0  0  0  0  0  0
   10.0157   -2.5498   22.1747 C   0  0  0  0  0  0  0  0  0  0  0  0
    8.7629   -1.8694   21.9429 N   0  0  0  0  0  0  0  0  0  0  0  0
    8.4638   -1.3920   20.7153 N   0  0  0  0  0  0  0  0  0  0  0  0
    7.3612   -0.7067   20.9275 C   0  0  0  0  0  0  0  0  0  0  0  0
    6.6482    0.0124   19.8887 C   0  0  0  0  0  0  0  0  0  0  0  0
    5.4332    0.6593   20.1533 C   0  0  0  0  0  0  0  0  0  0  0  0
    4.8067    1.3082   19.0977 C   0  0  0  0  0  0  0  0  0  0  0  0
    5.4139    1.2844   17.8360 C   0  0  0  0  0  0  0  0  0  0  0  0
    6.5765    0.6655   17.5788 N   0  0  0  0  0  0  0  0  0  0  0  0
    7.1826    0.0508   18.5960 C   0  0  0  0  0  0  0  0  0  0  0  0
    8.1357   -0.4331   18.3772 H   0  0  0  0  0  0  0  0  0  0  0  0
    4.9496    1.7869   16.9931 H   0  0  0  0  0  0  0  0  0  0  0  0
    3.8729    1.8411   19.2392 H   0  0  0  0  0  0  0  0  0  0  0  0
    5.0012    0.6483   21.1577 H   0  0  0  0  0  0  0  0  0  0  0  0
    6.9283   -0.7217   22.2106 N   0  0  0  0  0  0  0  0  0  0  0  0
    7.8281   -1.4613   22.8275 C   0  0  0  0  0  0  0  0  0  0  0  0
    7.8308   -1.8170   24.2879 C   0  0  0  0  0  0  0  0  0  0  0  0
    6.5566   -2.6288   24.6132 C   0  0  0  0  0  0  0  0  0  0  0  0
    6.5479   -3.2479   26.0245 C   0  0  0  0  0  0  0  0  0  0  0  0
    6.2912   -2.2632   27.1265 C   0  0  0  0  0  0  0  0  0  0  0  0
    5.2703   -2.3128   27.9499 N   0  0  0  0  0  0  0  0  0  0  0  0
    5.3684   -1.1928   28.7378 C   0  0  0  0  0  0  0  0  0  0  0  0
    6.4663   -0.4649   28.3815 C   0  0  0  0  0  0  0  0  0  0  0  0
    7.0700   -1.1683   27.3603 N   0  0  0  0  0  0  0  0  0  0  0  0
    8.2699   -0.7765   26.6264 C   0  0  0  0  0  0  0  0  0  0  0  0
    8.0127   -0.5308   25.1345 C   0  0  0  0  0  0  0  0  0  0  0  0
    8.8621    0.0430   24.7319 H   0  0  0  0  0  0  0  0  0  0  0  0
    7.1308    0.1111   25.0088 H   0  0  0  0  0  0  0  0  0  0  0  0
    9.0513   -1.5401   26.7620 H   0  0  0  0  0  0  0  0  0  0  0  0
    8.6341    0.1375   27.1073 H   0  0  0  0  0  0  0  0  0  0  0  0
    6.9012    0.4501   28.7654 H   0  0  0  0  0  0  0  0  0  0  0  0
    4.6312   -0.9945   29.5079 H   0  0  0  0  0  0  0  0  0  0  0  0
    5.7562   -3.9961   26.1060 H   0  0  0  0  0  0  0  0  0  0  0  0
    7.4965   -3.7685   26.2169 H   0  0  0  0  0  0  0  0  0  0  0  0
    6.4514   -3.4298   23.8680 H   0  0  0  0  0  0  0  0  0  0  0  0
    5.6833   -1.9765   24.4745 H   0  0  0  0  0  0  0  0  0  0  0  0
    8.6926   -2.4767   24.4839 H   0  0  0  0  0  0  0  0  0  0  0  0
    9.8286   -3.4652   22.7488 H   0  0  0  0  0  0  0  0  0  0  0  0
   10.3515   -2.8105   21.1740 H   0  0  0  0  0  0  0  0  0  0  0  0
   10.8607   -1.4464   23.8963 H   0  0  0  0  0  0  0  0  0  0  0  0
   11.9824   -2.3969   22.8987 H   0  0  0  0  0  0  0  0  0  0  0  0
  1  2  1  0
  2  3  1  0
  2  4  1  0
  2  5  1  0
  5  6  1  0
  6  7  1  0
  7  8  1  0
  8  9  2  0
  9 10  1  0
 10 11  2  0
 11 12  1  0
 12 13  2  0
 13 14  1  0
 14 15  2  0
 15 16  1  0
 13 17  1  0
 12 18  1  0
 11 19  1  0
  9 20  1  0
 20 21  2  0
 21 22  1  0
 22 23  1  0
 23 24  1  0
 24 25  1  0
 25 26  2  0
 26 27  1  0
 27 28  2  0
 28 29  1  0
 29 30  1  0
 30 31  1  0
 31 32  1  0
 31 33  1  0
 30 34  1  0
 30 35  1  0
 28 36  1  0
 27 37  1  0
 24 38  1  0
 24 39  1  0
 23 40  1  0
 23 41  1  0
 22 42  1  0
  6 43  1  0
  6 44  1  0
  5 45  1  0
  5 46  1  0
 21  7  1  0
 31 22  1  0
 15 10  1  0
 29 25  1  0
M  END
>  <cnnaffinity>  (1) 
-6.55983

>  <filename>  (1) 
FC(F)(F)CCn1nc(-c2cccnc2)nc1C1CCc2nccn2CC1

$$$$
