
     RDKit          3D

 30 32  0  0  0  0  0  0  0  0999 V2000
    5.0043    1.7642   16.9902 H   0  0  0  0  0  0  0  0  0  0  0  0
    5.4642    1.2802   17.8499 C   0  0  0  0  0  0  0  0  0  0  0  0
    6.6410    0.6722   17.6205 N   0  0  0  0  0  0  0  0  0  0  0  0
    7.2405    0.0712   18.6528 C   0  0  0  0  0  0  0  0  0  0  0  0
    8.1817   -0.4244   18.4137 H   0  0  0  0  0  0  0  0  0  0  0  0
    6.7230    0.0424   19.9726 C   0  0  0  0  0  0  0  0  0  0  0  0
    7.4210   -0.6213   21.0922 C   0  0  0  0  0  0  0  0  0  0  0  0
    8.6913   -1.7657   20.8089 S   0  0  0  0  0  0  0  0  0  0  0  0
    8.9191   -2.0333   22.4832 C   0  0  0  0  0  0  0  0  0  0  0  0
    9.6890   -2.7176   22.8200 H   0  0  0  0  0  0  0  0  0  0  0  0
    8.0990   -1.2604   23.2638 C   0  0  0  0  0  0  0  0  0  0  0  0
    8.2863   -1.1863   24.7563 C   0  0  0  0  0  0  0  0  0  0  0  0
    9.5425   -0.9001   25.1319 N   0  0  0  0  0  0  0  0  0  0  0  0
    9.8192   -0.6901   26.4166 C   0  0  0  0  0  0  0  0  0  0  0  0
   10.8561   -0.4388   26.6370 H   0  0  0  0  0  0  0  0  0  0  0  0
    8.8690   -0.8097   27.4346 C   0  0  0  0  0  0  0  0  0  0  0  0
    9.1558   -0.5740   28.4541 H   0  0  0  0  0  0  0  0  0  0  0  0
    7.5839   -1.2082   27.0893 C   0  0  0  0  0  0  0  0  0  0  0  0
    6.8065   -1.3910   27.8371 H   0  0  0  0  0  0  0  0  0  0  0  0
    7.2917   -1.4051   25.7341 C   0  0  0  0  0  0  0  0  0  0  0  0
    5.8896   -1.7092   25.3217 C   0  0  0  0  0  0  0  0  0  0  0  0
    5.8050   -2.6162   24.3362 F   0  0  0  0  0  0  0  0  0  0  0  0
    5.3097   -0.5707   24.8827 F   0  0  0  0  0  0  0  0  0  0  0  0
    5.1331   -2.1575   26.3447 F   0  0  0  0  0  0  0  0  0  0  0  0
    7.2241   -0.4670   22.4419 C   0  0  0  0  0  0  0  0  0  0  0  0
    6.4950    0.2161   22.8575 H   0  0  0  0  0  0  0  0  0  0  0  0
    5.4803    0.6687   20.1758 C   0  0  0  0  0  0  0  0  0  0  0  0
    5.0213    0.6505   21.1645 H   0  0  0  0  0  0  0  0  0  0  0  0
    4.8446    1.2919   19.1011 C   0  0  0  0  0  0  0  0  0  0  0  0
    3.8893    1.7928   19.2158 H   0  0  0  0  0  0  0  0  0  0  0  0
  1  2  1  0
  2  3  2  0
  3  4  1  0
  4  5  1  0
  4  6  2  0
  6  7  1  0
  7  8  1  0
  8  9  1  0
  9 10  1  0
  9 11  2  0
 11 12  1  0
 12 13  2  0
 13 14  1  0
 14 15  1  0
 14 16  2  0
 16 17  1  0
 16 18  1  0
 18 19  1  0
 18 20  2  0
 20 21  1  0
 21 22  1  0
 21 23  1  0
 21 24  1  0
 11 25  1  0
 25 26  1  0
  6 27  1  0
 27 28  1  0
 27 29  2  0
 29 30  1  0
 29  2  1  0
 25  7  2  0
 20 12  1  0
M  END
>  <cnnaffinity>  (1) 
-5.65785

>  <filename>  (1) 
FC(F)(F)c1cccnc1-c1csc(-c2cccnc2)c1

$$$$
