
     RDKit          3D

 43 46  0  0  0  0  0  0  0  0999 V2000
   12.9824   -0.1183   22.0628 F   0  0  0  0  0  0  0  0  0  0  0  0
   12.4714    0.4429   23.1760 C   0  0  0  0  0  0  0  0  0  0  0  0
   13.4097    0.3340   24.1359 F   0  0  0  0  0  0  0  0  0  0  0  0
   11.4298   -0.3058   23.5641 F   0  0  0  0  0  0  0  0  0  0  0  0
   12.1323    1.9081   22.9674 C   0  0  0  0  0  0  0  0  0  0  0  0
   11.1783    2.2216   21.8080 C   0  0  0  0  0  0  0  0  0  0  0  0
    9.8265    1.6773   21.9467 N   0  0  0  0  0  0  0  0  0  0  0  0
    9.4129    0.7547   21.0445 N   0  0  0  0  0  0  0  0  0  0  0  0
    8.2968    0.2912   21.5644 C   0  0  0  0  0  0  0  0  0  0  0  0
    7.4569   -0.7202   20.8409 C   0  0  0  0  0  0  0  0  0  0  0  0
    6.6419   -0.0998   19.7068 C   0  0  0  0  0  0  0  0  0  0  0  0
    5.4535    0.5881   19.9953 C   0  0  0  0  0  0  0  0  0  0  0  0
    4.8225    1.3012   18.9769 C   0  0  0  0  0  0  0  0  0  0  0  0
    5.3878    1.2980   17.6983 C   0  0  0  0  0  0  0  0  0  0  0  0
    6.4995    0.6124   17.3862 N   0  0  0  0  0  0  0  0  0  0  0  0
    7.0930   -0.0673   18.3739 C   0  0  0  0  0  0  0  0  0  0  0  0
    7.9874   -0.6240   18.0888 H   0  0  0  0  0  0  0  0  0  0  0  0
    4.9326    1.8646   16.8891 H   0  0  0  0  0  0  0  0  0  0  0  0
    3.9173    1.8721   19.1586 H   0  0  0  0  0  0  0  0  0  0  0  0
    5.0334    0.5589   21.0053 H   0  0  0  0  0  0  0  0  0  0  0  0
    6.8050   -1.1796   21.5880 H   0  0  0  0  0  0  0  0  0  0  0  0
    8.1314   -1.4981   20.4683 H   0  0  0  0  0  0  0  0  0  0  0  0
    7.9579    0.8438   22.7545 N   0  0  0  0  0  0  0  0  0  0  0  0
    8.9071    1.7514   22.9448 C   0  0  0  0  0  0  0  0  0  0  0  0
    8.8766    2.7740   24.0317 C   0  0  0  0  0  0  0  0  0  0  0  0
    8.7151    2.4131   25.3547 C   0  0  0  0  0  0  0  0  0  0  0  0
    8.7722    3.4068   26.3714 C   0  0  0  0  0  0  0  0  0  0  0  0
    9.0137    4.6796   26.1605 N   0  0  0  0  0  0  0  0  0  0  0  0
    9.1272    5.0802   24.8644 C   0  0  0  0  0  0  0  0  0  0  0  0
    9.4043    6.4062   24.7023 N   0  0  0  0  0  0  0  0  0  0  0  0
    9.3536    6.8870   23.4838 C   0  0  0  0  0  0  0  0  0  0  0  0
    9.0085    6.1307   22.3324 C   0  0  0  0  0  0  0  0  0  0  0  0
    8.8007    4.7747   22.4616 C   0  0  0  0  0  0  0  0  0  0  0  0
    8.9523    4.1857   23.7487 C   0  0  0  0  0  0  0  0  0  0  0  0
    8.5405    4.1389   21.6138 H   0  0  0  0  0  0  0  0  0  0  0  0
    8.9161    6.6188   21.3712 H   0  0  0  0  0  0  0  0  0  0  0  0
    9.5704    7.9482   23.3603 H   0  0  0  0  0  0  0  0  0  0  0  0
    8.6156    3.1085   27.4070 H   0  0  0  0  0  0  0  0  0  0  0  0
    8.5297    1.3762   25.6177 H   0  0  0  0  0  0  0  0  0  0  0  0
   11.1135    3.3058   21.6738 H   0  0  0  0  0  0  0  0  0  0  0  0
   11.5615    1.8075   20.8726 H   0  0  0  0  0  0  0  0  0  0  0  0
   11.7499    2.2886   23.9202 H   0  0  0  0  0  0  0  0  0  0  0  0
   13.0874    2.4064   22.7659 H   0  0  0  0  0  0  0  0  0  0  0  0
  1  2  1  0
  2  3  1  0
  2  4  1  0
  2  5  1  0
  5  6  1  0
  6  7  1  0
  7  8  1  0
  8  9  2  0
  9 10  1  0
 10 11  1  0
 11 12  2  0
 12 13  1  0
 13 14  2  0
 14 15  1  0
 15 16  2  0
 16 17  1  0
 14 18  1  0
 13 19  1  0
 12 20  1  0
 10 21  1  0
 10 22  1  0
  9 23  1  0
 23 24  2  0
 24 25  1  0
 25 26  2  0
 26 27  1  0
 27 28  2  0
 28 29  1  0
 29 30  2  0
 30 31  1  0
 31 32  2  0
 32 33  1  0
 33 34  2  0
 33 35  1  0
 32 36  1  0
 31 37  1  0
 27 38  1  0
 26 39  1  0
  6 40  1  0
  6 41  1  0
  5 42  1  0
  5 43  1  0
 24  7  1  0
 34 25  1  0
 16 11  1  0
 34 29  1  0
M  END
>  <cnnaffinity>  (1) 
-6.13494

>  <filename>  (1) 
FC(F)(F)CCn1nc(Cc2cccnc2)nc1-c1ccnc2ncccc12

$$$$
