
     RDKit          3D

 32 34  0  0  0  0  0  0  0  0999 V2000
    5.0022    1.9295   16.9835 H   0  0  0  0  0  0  0  0  0  0  0  0
    5.4452    1.3330   17.7781 C   0  0  0  0  0  0  0  0  0  0  0  0
    6.5802    0.6819   17.4773 N   0  0  0  0  0  0  0  0  0  0  0  0
    7.1684   -0.0347   18.4492 C   0  0  0  0  0  0  0  0  0  0  0  0
    8.0662   -0.5855   18.1684 H   0  0  0  0  0  0  0  0  0  0  0  0
    6.6696   -0.1458   19.7693 C   0  0  0  0  0  0  0  0  0  0  0  0
    7.2829   -0.9004   20.7991 N   0  0  0  0  0  0  0  0  0  0  0  0
    6.8342   -1.7766   21.0503 H   0  0  0  0  0  0  0  0  0  0  0  0
    8.6404   -0.9349   21.1201 C   0  0  0  0  0  0  0  0  0  0  0  0
    9.7330   -0.0913   20.8090 C   0  0  0  0  0  0  0  0  0  0  0  0
    9.7467    0.8256   20.2397 H   0  0  0  0  0  0  0  0  0  0  0  0
   10.8624   -0.5634   21.3273 N   0  0  0  0  0  0  0  0  0  0  0  0
   10.5130   -1.6669   21.9962 N   0  0  0  0  0  0  0  0  0  0  0  0
   11.2539   -2.2065   22.4304 H   0  0  0  0  0  0  0  0  0  0  0  0
    9.1708   -1.9244   21.9339 C   0  0  0  0  0  0  0  0  0  0  0  0
    8.3978   -3.0308   22.5271 C   0  0  0  0  0  0  0  0  0  0  0  0
    7.5572   -3.6423   21.6714 N   0  0  0  0  0  0  0  0  0  0  0  0
    7.0104   -4.8027   22.0293 C   0  0  0  0  0  0  0  0  0  0  0  0
    6.4176   -5.3276   21.2881 H   0  0  0  0  0  0  0  0  0  0  0  0
    7.1325   -5.3419   23.3133 C   0  0  0  0  0  0  0  0  0  0  0  0
    6.6759   -6.2979   23.5366 H   0  0  0  0  0  0  0  0  0  0  0  0
    7.8579   -4.6461   24.2655 C   0  0  0  0  0  0  0  0  0  0  0  0
    7.9425   -5.0223   25.2887 H   0  0  0  0  0  0  0  0  0  0  0  0
    8.4991   -3.4715   23.8670 C   0  0  0  0  0  0  0  0  0  0  0  0
    9.3357   -2.6763   24.8091 C   0  0  0  0  0  0  0  0  0  0  0  0
    9.0428   -1.3665   24.7739 F   0  0  0  0  0  0  0  0  0  0  0  0
    9.2453   -3.0836   26.0874 F   0  0  0  0  0  0  0  0  0  0  0  0
   10.6381   -2.7951   24.4520 F   0  0  0  0  0  0  0  0  0  0  0  0
    5.4517    0.4964   20.0407 C   0  0  0  0  0  0  0  0  0  0  0  0
    5.0079    0.4103   21.0326 H   0  0  0  0  0  0  0  0  0  0  0  0
    4.8424    1.2588   19.0389 C   0  0  0  0  0  0  0  0  0  0  0  0
    3.9239    1.8072   19.2195 H   0  0  0  0  0  0  0  0  0  0  0  0
  1  2  1  0
  2  3  2  0
  3  4  1  0
  4  5  1  0
  4  6  2  0
  6  7  1  0
  7  8  1  0
  7  9  1  0
  9 10  1  0
 10 11  1  0
 10 12  2  0
 12 13  1  0
 13 14  1  0
 13 15  1  0
 15 16  1  0
 16 17  2  0
 17 18  1  0
 18 19  1  0
 18 20  2  0
 20 21  1  0
 20 22  1  0
 22 23  1  0
 22 24  2  0
 24 25  1  0
 25 26  1  0
 25 27  1  0
 25 28  1  0
  6 29  1  0
 29 30  1  0
 29 31  2  0
 31 32  1  0
 31  2  1  0
 15  9  2  0
 24 16  1  0
M  END
>  <cnnaffinity>  (1) 
-6.0549

>  <filename>  (1) 
FC(F)(F)c1cccnc1-c1[nH]ncc1Nc1cccnc1

$$$$
