
     RDKit          3D

 23 24  0  0  0  0  0  0  0  0999 V2000
    4.9225    1.7819   16.9997 H   0  0  0  0  0  0  0  0  0  0  0  0
    5.4053    1.2890   17.8402 C   0  0  0  0  0  0  0  0  0  0  0  0
    6.5650    0.6673   17.5821 N   0  0  0  0  0  0  0  0  0  0  0  0
    7.1900    0.0529   18.5965 C   0  0  0  0  0  0  0  0  0  0  0  0
    8.1295   -0.4401   18.3603 H   0  0  0  0  0  0  0  0  0  0  0  0
    6.6822    0.0257   19.9100 C   0  0  0  0  0  0  0  0  0  0  0  0
    7.2526   -0.6481   20.9495 O   0  0  0  0  0  0  0  0  0  0  0  0
    8.6097   -0.7679   21.0884 C   0  0  0  0  0  0  0  0  0  0  0  0
    9.6525    0.0691   20.6329 C   0  0  0  0  0  0  0  0  0  0  0  0
    9.5786    0.9380   20.0008 H   0  0  0  0  0  0  0  0  0  0  0  0
   10.8300   -0.3302   21.0794 N   0  0  0  0  0  0  0  0  0  0  0  0
   10.5563   -1.4216   21.8227 N   0  0  0  0  0  0  0  0  0  0  0  0
   11.3113   -1.9141   22.2743 H   0  0  0  0  0  0  0  0  0  0  0  0
    9.2415   -1.7094   21.8659 C   0  0  0  0  0  0  0  0  0  0  0  0
    8.8446   -2.7829   22.6289 O   0  0  0  0  0  0  0  0  0  0  0  0
    7.4915   -3.0608   22.6830 C   0  0  0  0  0  0  0  0  0  0  0  0
    6.7927   -2.0583   23.2101 F   0  0  0  0  0  0  0  0  0  0  0  0
    6.9947   -3.3353   21.4768 F   0  0  0  0  0  0  0  0  0  0  0  0
    7.3699   -4.1335   23.4573 F   0  0  0  0  0  0  0  0  0  0  0  0
    5.4551    0.6479   20.1702 C   0  0  0  0  0  0  0  0  0  0  0  0
    5.0389    0.6054   21.1765 H   0  0  0  0  0  0  0  0  0  0  0  0
    4.8201    1.3019   19.1133 C   0  0  0  0  0  0  0  0  0  0  0  0
    3.8882    1.8293   19.2643 H   0  0  0  0  0  0  0  0  0  0  0  0
  1  2  1  0
  2  3  2  0
  3  4  1  0
  4  5  1  0
  4  6  2  0
  6  7  1  0
  7  8  1  0
  8  9  1  0
  9 10  1  0
  9 11  2  0
 11 12  1  0
 12 13  1  0
 12 14  1  0
 14 15  1  0
 15 16  1  0
 16 17  1  0
 16 18  1  0
 16 19  1  0
  6 20  1  0
 20 21  1  0
 20 22  2  0
 22 23  1  0
 22  2  1  0
 14  8  2  0
M  END
>  <cnnaffinity>  (1) 
-4.80065

>  <filename>  (1) 
FC(F)(F)Oc1[nH]ncc1Oc1cccnc1

$$$$
