
     RDKit          3D

 31 33  0  0  0  0  0  0  0  0999 V2000
    4.9510    1.9470   16.6654 H   0  0  0  0  0  0  0  0  0  0  0  0
    5.4017    1.4180   17.5043 C   0  0  0  0  0  0  0  0  0  0  0  0
    6.5482    0.7653   17.2586 N   0  0  0  0  0  0  0  0  0  0  0  0
    7.1315    0.1279   18.2800 C   0  0  0  0  0  0  0  0  0  0  0  0
    8.0604   -0.3875   18.0502 H   0  0  0  0  0  0  0  0  0  0  0  0
    6.6075    0.1007   19.5804 C   0  0  0  0  0  0  0  0  0  0  0  0
    7.3247   -0.6061   20.6537 C   0  0  0  0  0  0  0  0  0  0  0  0
    6.7974   -0.7285   21.8993 N   0  0  0  0  0  0  0  0  0  0  0  0
    7.7032   -1.4077   22.5758 C   0  0  0  0  0  0  0  0  0  0  0  0
    7.6575   -1.8312   24.0023 C   0  0  0  0  0  0  0  0  0  0  0  0
    6.7020   -1.2368   24.8455 C   0  0  0  0  0  0  0  0  0  0  0  0
    6.0300   -0.4878   24.4367 H   0  0  0  0  0  0  0  0  0  0  0  0
    6.6246   -1.5881   26.1952 C   0  0  0  0  0  0  0  0  0  0  0  0
    5.8792   -1.1215   26.8354 H   0  0  0  0  0  0  0  0  0  0  0  0
    7.5260   -2.5183   26.7136 C   0  0  0  0  0  0  0  0  0  0  0  0
    7.5232   -2.8255   27.7472 H   0  0  0  0  0  0  0  0  0  0  0  0
    8.5007   -3.0772   25.8946 C   0  0  0  0  0  0  0  0  0  0  0  0
    9.4535   -3.8340   26.5855 O   0  0  0  0  0  0  0  0  0  0  0  0
    9.9487   -4.9826   26.0907 C   0  0  0  0  0  0  0  0  0  0  0  0
   10.7126   -5.5041   27.0401 F   0  0  0  0  0  0  0  0  0  0  0  0
   10.7029   -4.7941   24.9911 F   0  0  0  0  0  0  0  0  0  0  0  0
    8.9994   -5.8671   25.7618 F   0  0  0  0  0  0  0  0  0  0  0  0
    8.5574   -2.7921   24.5314 C   0  0  0  0  0  0  0  0  0  0  0  0
    9.2738   -3.3232   23.9104 H   0  0  0  0  0  0  0  0  0  0  0  0
    8.7344   -1.6763   21.7521 N   0  0  0  0  0  0  0  0  0  0  0  0
    9.6174   -2.0874   22.0013 H   0  0  0  0  0  0  0  0  0  0  0  0
    8.5164   -1.1654   20.5153 N   0  0  0  0  0  0  0  0  0  0  0  0
    5.3958    0.7661   19.8209 C   0  0  0  0  0  0  0  0  0  0  0  0
    4.9575    0.7489   20.8211 H   0  0  0  0  0  0  0  0  0  0  0  0
    4.7893    1.4363   18.7628 C   0  0  0  0  0  0  0  0  0  0  0  0
    3.8639    1.9807   18.9041 H   0  0  0  0  0  0  0  0  0  0  0  0
  1  2  1  0
  2  3  2  0
  3  4  1  0
  4  5  1  0
  4  6  2  0
  6  7  1  0
  7  8  1  0
  8  9  2  0
  9 10  1  0
 10 11  2  0
 11 12  1  0
 11 13  1  0
 13 14  1  0
 13 15  2  0
 15 16  1  0
 15 17  1  0
 17 18  1  0
 18 19  1  0
 19 20  1  0
 19 21  1  0
 19 22  1  0
 17 23  2  0
 23 24  1  0
  9 25  1  0
 25 26  1  0
 25 27  1  0
  6 28  1  0
 28 29  1  0
 28 30  2  0
 30 31  1  0
 30  2  1  0
 27  7  2  0
 23 10  1  0
M  END
>  <cnnaffinity>  (1) 
-5.04723

>  <filename>  (1) 
FC(F)(F)Oc1cccc(-c2nc(-c3cccnc3)n[nH]2)c1

$$$$
