
     RDKit          3D

 30 32  0  0  0  0  0  0  0  0999 V2000
    5.0609    1.7816   16.8186 H   0  0  0  0  0  0  0  0  0  0  0  0
    5.4109    1.3513   17.7535 C   0  0  0  0  0  0  0  0  0  0  0  0
    6.5612    0.6678   17.6700 N   0  0  0  0  0  0  0  0  0  0  0  0
    7.0141    0.1268   18.7993 C   0  0  0  0  0  0  0  0  0  0  0  0
    7.9437   -0.4376   18.7159 H   0  0  0  0  0  0  0  0  0  0  0  0
    6.4006    0.2418   20.0630 C   0  0  0  0  0  0  0  0  0  0  0  0
    7.0642   -0.4090   21.2076 C   0  0  0  0  0  0  0  0  0  0  0  0
    7.3273    0.0642   22.4495 C   0  0  0  0  0  0  0  0  0  0  0  0
    7.2494    1.7669   22.9085 S   0  0  0  0  0  0  0  0  0  0  0  0
    8.8336    2.3511   22.1781 C   0  0  0  0  0  0  0  0  0  0  0  0
    8.8848    2.0961   20.8700 F   0  0  0  0  0  0  0  0  0  0  0  0
    9.8805    1.7552   22.7565 F   0  0  0  0  0  0  0  0  0  0  0  0
    8.9153    3.6628   22.3727 F   0  0  0  0  0  0  0  0  0  0  0  0
    7.9387   -0.9785   23.3595 C   0  0  0  0  0  0  0  0  0  0  0  0
    8.8492   -0.5963   23.8454 H   0  0  0  0  0  0  0  0  0  0  0  0
    7.2528   -1.2371   24.1790 H   0  0  0  0  0  0  0  0  0  0  0  0
    8.2509   -2.1453   22.4080 C   0  0  0  0  0  0  0  0  0  0  0  0
    7.6902   -1.7685   21.0363 C   0  0  0  0  0  0  0  0  0  0  0  0
    6.9508   -2.4948   20.6789 H   0  0  0  0  0  0  0  0  0  0  0  0
    8.4893   -1.7316   20.2814 H   0  0  0  0  0  0  0  0  0  0  0  0
    8.3025   -3.6087   22.7508 C   0  0  0  0  0  0  0  0  0  0  0  0
    7.9289   -4.3068   22.0045 H   0  0  0  0  0  0  0  0  0  0  0  0
    8.1171   -3.9137   23.7759 H   0  0  0  0  0  0  0  0  0  0  0  0
    9.5721   -2.8622   22.4552 C   0  0  0  0  0  0  0  0  0  0  0  0
   10.0939   -2.9720   21.5097 H   0  0  0  0  0  0  0  0  0  0  0  0
   10.2401   -2.6790   23.2895 H   0  0  0  0  0  0  0  0  0  0  0  0
    5.1906    0.9602   20.1301 C   0  0  0  0  0  0  0  0  0  0  0  0
    4.6532    1.0843   21.0756 H   0  0  0  0  0  0  0  0  0  0  0  0
    4.6915    1.5095   18.9451 C   0  0  0  0  0  0  0  0  0  0  0  0
    3.7614    2.0657   18.9220 H   0  0  0  0  0  0  0  0  0  0  0  0
  1  2  1  0
  2  3  2  0
  3  4  1  0
  4  5  1  0
  4  6  2  0
  6  7  1  0
  7  8  2  0
  8  9  1  0
  9 10  1  0
 10 11  1  0
 10 12  1  0
 10 13  1  0
  8 14  1  0
 14 15  1  0
 14 16  1  0
 14 17  1  0
 17 18  1  0
 18 19  1  0
 18 20  1  0
 17 21  1  0
 21 22  1  0
 21 23  1  0
 21 24  1  0
 24 25  1  0
 24 26  1  0
  6 27  1  0
 27 28  1  0
 27 29  2  0
 29 30  1  0
 29  2  1  0
 18  7  1  0
 24 17  1  0
M  END
>  <cnnaffinity>  (1) 
-5.09105

>  <filename>  (1) 
FC(F)(F)SC1=C(c2cccnc2)CC2(CC2)C1

$$$$
