
     RDKit          3D

 32 34  0  0  0  0  0  0  0  0999 V2000
    4.9605    1.8021   16.9878 H   0  0  0  0  0  0  0  0  0  0  0  0
    5.4132    1.2942   17.8360 C   0  0  0  0  0  0  0  0  0  0  0  0
    6.5854    0.6825   17.6038 N   0  0  0  0  0  0  0  0  0  0  0  0
    7.1889    0.0817   18.6363 C   0  0  0  0  0  0  0  0  0  0  0  0
    8.1459   -0.3950   18.4205 H   0  0  0  0  0  0  0  0  0  0  0  0
    6.6510    0.0372   19.9402 C   0  0  0  0  0  0  0  0  0  0  0  0
    7.3232   -0.6710   20.9898 N   0  0  0  0  0  0  0  0  0  0  0  0
    7.6756   -1.9988   20.9653 C   0  0  0  0  0  0  0  0  0  0  0  0
    7.3864   -2.6103   20.1301 H   0  0  0  0  0  0  0  0  0  0  0  0
    8.2326   -2.4115   22.0710 N   0  0  0  0  0  0  0  0  0  0  0  0
    8.2002   -1.3199   22.8949 C   0  0  0  0  0  0  0  0  0  0  0  0
    8.5578   -1.3756   23.9139 H   0  0  0  0  0  0  0  0  0  0  0  0
    7.6375   -0.2319   22.2803 C   0  0  0  0  0  0  0  0  0  0  0  0
    7.3229    1.0878   22.8495 C   0  0  0  0  0  0  0  0  0  0  0  0
    7.5490    2.2716   22.1258 C   0  0  0  0  0  0  0  0  0  0  0  0
    7.9201    2.1835   21.1097 H   0  0  0  0  0  0  0  0  0  0  0  0
    7.2664    3.5145   22.6993 C   0  0  0  0  0  0  0  0  0  0  0  0
    7.4499    4.4235   22.1332 H   0  0  0  0  0  0  0  0  0  0  0  0
    6.7527    3.5842   23.9971 C   0  0  0  0  0  0  0  0  0  0  0  0
    6.5169    4.5149   24.5020 H   0  0  0  0  0  0  0  0  0  0  0  0
    6.5263    2.4046   24.7035 C   0  0  0  0  0  0  0  0  0  0  0  0
    6.0131    2.6016   25.9850 O   0  0  0  0  0  0  0  0  0  0  0  0
    5.7516    1.5482   26.7836 C   0  0  0  0  0  0  0  0  0  0  0  0
    5.3123    2.0255   27.9394 F   0  0  0  0  0  0  0  0  0  0  0  0
    6.8393    0.7923   27.0167 F   0  0  0  0  0  0  0  0  0  0  0  0
    4.8102    0.7374   26.2695 F   0  0  0  0  0  0  0  0  0  0  0  0
    6.7985    1.1560   24.1530 C   0  0  0  0  0  0  0  0  0  0  0  0
    6.5783    0.2513   24.7129 H   0  0  0  0  0  0  0  0  0  0  0  0
    5.4135    0.6637   20.1617 C   0  0  0  0  0  0  0  0  0  0  0  0
    4.9719    0.6608   21.1610 H   0  0  0  0  0  0  0  0  0  0  0  0
    4.7899    1.3063   19.0890 C   0  0  0  0  0  0  0  0  0  0  0  0
    3.8436    1.8238   19.2161 H   0  0  0  0  0  0  0  0  0  0  0  0
  1  2  1  0
  2  3  2  0
  3  4  1  0
  4  5  1  0
  4  6  2  0
  6  7  1  0
  7  8  1  0
  8  9  1  0
  8 10  2  0
 10 11  1  0
 11 12  1  0
 11 13  2  0
 13 14  1  0
 14 15  2  0
 15 16  1  0
 15 17  1  0
 17 18  1  0
 17 19  2  0
 19 20  1  0
 19 21  1  0
 21 22  1  0
 22 23  1  0
 23 24  1  0
 23 25  1  0
 23 26  1  0
 21 27  2  0
 27 28  1  0
  6 29  1  0
 29 30  1  0
 29 31  2  0
 31 32  1  0
 31  2  1  0
 13  7  1  0
 27 14  1  0
M  END
>  <cnnaffinity>  (1) 
-5.30287

>  <filename>  (1) 
FC(F)(F)Oc1cccc(-c2cncn2-c2cccnc2)c1

$$$$
