
     RDKit          3D

 38 41  0  0  0  0  0  0  0  0999 V2000
   13.3352    3.0862   22.3665 F   0  0  0  0  0  0  0  0  0  0  0  0
   12.0624    2.9624   21.9276 C   0  0  0  0  0  0  0  0  0  0  0  0
   12.1042    2.8466   20.5954 F   0  0  0  0  0  0  0  0  0  0  0  0
   11.4337    4.1014   22.2107 F   0  0  0  0  0  0  0  0  0  0  0  0
   11.4746    1.7284   22.6169 C   0  0  0  0  0  0  0  0  0  0  0  0
   10.0616    1.4475   22.4141 N   0  0  0  0  0  0  0  0  0  0  0  0
    9.7216    0.4095   21.6242 N   0  0  0  0  0  0  0  0  0  0  0  0
    8.4071    0.3516   21.7141 C   0  0  0  0  0  0  0  0  0  0  0  0
    7.5635   -0.6341   20.9439 C   0  0  0  0  0  0  0  0  0  0  0  0
    6.7510   -0.0109   19.8080 C   0  0  0  0  0  0  0  0  0  0  0  0
    5.5285    0.6206   20.0761 C   0  0  0  0  0  0  0  0  0  0  0  0
    4.8562    1.2727   19.0386 C   0  0  0  0  0  0  0  0  0  0  0  0
    5.4311    1.2696   17.7649 C   0  0  0  0  0  0  0  0  0  0  0  0
    6.5913    0.6582   17.4786 N   0  0  0  0  0  0  0  0  0  0  0  0
    7.2194    0.0352   18.4827 C   0  0  0  0  0  0  0  0  0  0  0  0
    8.1571   -0.4610   18.2290 H   0  0  0  0  0  0  0  0  0  0  0  0
    4.9497    1.7850   16.9353 H   0  0  0  0  0  0  0  0  0  0  0  0
    3.9161    1.7899   19.2008 H   0  0  0  0  0  0  0  0  0  0  0  0
    5.1194    0.5951   21.0879 H   0  0  0  0  0  0  0  0  0  0  0  0
    8.2221   -1.4290   20.5756 H   0  0  0  0  0  0  0  0  0  0  0  0
    6.8765   -1.0948   21.6637 H   0  0  0  0  0  0  0  0  0  0  0  0
    7.8786    1.2721   22.5467 N   0  0  0  0  0  0  0  0  0  0  0  0
    8.9307    1.9603   22.9831 C   0  0  0  0  0  0  0  0  0  0  0  0
    8.9103    3.1350   23.9070 C   0  0  0  0  0  0  0  0  0  0  0  0
   10.0515    3.5949   24.4657 N   0  0  0  0  0  0  0  0  0  0  0  0
    9.9904    4.7350   25.1829 C   0  0  0  0  0  0  0  0  0  0  0  0
    8.9087    5.4404   25.5035 N   0  0  0  0  0  0  0  0  0  0  0  0
    7.7955    4.9185   24.9933 C   0  0  0  0  0  0  0  0  0  0  0  0
    7.6833    3.7709   24.1779 C   0  0  0  0  0  0  0  0  0  0  0  0
    6.2812    3.6183   23.8571 C   0  0  0  0  0  0  0  0  0  0  0  0
    5.6299    4.6364   24.4909 C   0  0  0  0  0  0  0  0  0  0  0  0
    6.5489    5.4175   25.1710 N   0  0  0  0  0  0  0  0  0  0  0  0
    6.4003    6.1929   25.7895 H   0  0  0  0  0  0  0  0  0  0  0  0
    4.5700    4.8548   24.5184 H   0  0  0  0  0  0  0  0  0  0  0  0
    5.8658    2.8567   23.2107 H   0  0  0  0  0  0  0  0  0  0  0  0
   10.9342    5.1133   25.5641 H   0  0  0  0  0  0  0  0  0  0  0  0
   11.6845    1.8389   23.6799 H   0  0  0  0  0  0  0  0  0  0  0  0
   12.0257    0.8725   22.2257 H   0  0  0  0  0  0  0  0  0  0  0  0
  1  2  1  0
  2  3  1  0
  2  4  1  0
  2  5  1  0
  5  6  1  0
  6  7  1  0
  7  8  2  0
  8  9  1  0
  9 10  1  0
 10 11  2  0
 11 12  1  0
 12 13  2  0
 13 14  1  0
 14 15  2  0
 15 16  1  0
 13 17  1  0
 12 18  1  0
 11 19  1  0
  9 20  1  0
  9 21  1  0
  8 22  1  0
 22 23  2  0
 23 24  1  0
 24 25  2  0
 25 26  1  0
 26 27  2  0
 27 28  1  0
 28 29  2  0
 29 30  1  0
 30 31  2  0
 31 32  1  0
 32 33  1  0
 31 34  1  0
 30 35  1  0
 26 36  1  0
  5 37  1  0
  5 38  1  0
 23  6  1  0
 29 24  1  0
 15 10  1  0
 32 28  1  0
M  END
>  <cnnaffinity>  (1) 
-5.24072

>  <filename>  (1) 
FC(F)(F)Cn1nc(Cc2cccnc2)nc1-c1ncnc2[nH]ccc12

$$$$
