
     RDKit          3D

 29 30  0  0  0  0  0  0  0  0999 V2000
   10.6468   -3.8354   23.4673 H   0  0  0  0  0  0  0  0  0  0  0  0
    9.5690   -3.7737   23.3349 C   0  0  0  0  0  0  0  0  0  0  0  0
    9.1497   -3.0893   22.2726 N   0  0  0  0  0  0  0  0  0  0  0  0
    7.8381   -2.9684   22.0355 C   0  0  0  0  0  0  0  0  0  0  0  0
    7.5514   -2.1080   20.8297 C   0  0  0  0  0  0  0  0  0  0  0  0
    6.7140   -2.5110   20.2536 H   0  0  0  0  0  0  0  0  0  0  0  0
    8.4696   -2.1275   20.2430 H   0  0  0  0  0  0  0  0  0  0  0  0
    7.3247   -0.6125   21.1218 C   0  0  1  0  0  0  0  0  0  0  0  0
    6.7667   -0.4595   22.0522 H   0  0  0  0  0  0  0  0  0  0  0  0
    8.9305    0.1614   21.4007 Cl  0  0  0  0  0  0  0  0  0  0  0  0
    6.6209    0.0790   19.9815 C   0  0  0  0  0  0  0  0  0  0  0  0
    7.1644    0.0727   18.6872 C   0  0  0  0  0  0  0  0  0  0  0  0
    8.1125   -0.4320   18.5044 H   0  0  0  0  0  0  0  0  0  0  0  0
    6.5948    0.6557   17.6252 N   0  0  0  0  0  0  0  0  0  0  0  0
    5.4242    1.2805   17.8246 C   0  0  0  0  0  0  0  0  0  0  0  0
    4.9832    1.7684   16.9567 H   0  0  0  0  0  0  0  0  0  0  0  0
    4.7782    1.3232   19.0643 C   0  0  0  0  0  0  0  0  0  0  0  0
    3.8352    1.8459   19.1623 H   0  0  0  0  0  0  0  0  0  0  0  0
    5.3825    0.7076   20.1609 C   0  0  0  0  0  0  0  0  0  0  0  0
    4.9077    0.7047   21.1451 H   0  0  0  0  0  0  0  0  0  0  0  0
    6.8887   -3.6217   22.8446 C   0  0  0  0  0  0  0  0  0  0  0  0
    5.4508   -3.7313   22.4257 C   0  0  0  0  0  0  0  0  0  0  0  0
    4.6132   -3.8359   23.4759 F   0  0  0  0  0  0  0  0  0  0  0  0
    5.2608   -4.8234   21.6549 F   0  0  0  0  0  0  0  0  0  0  0  0
    5.0211   -2.6858   21.6978 F   0  0  0  0  0  0  0  0  0  0  0  0
    7.3301   -4.3317   23.9752 C   0  0  0  0  0  0  0  0  0  0  0  0
    6.6324   -4.8358   24.6468 H   0  0  0  0  0  0  0  0  0  0  0  0
    8.6967   -4.4006   24.2192 C   0  0  0  0  0  0  0  0  0  0  0  0
    9.0923   -4.9568   25.0571 H   0  0  0  0  0  0  0  0  0  0  0  0
  1  2  1  0
  2  3  2  0
  3  4  1  0
  4  5  1  0
  5  6  1  0
  5  7  1  0
  5  8  1  0
  8  9  1  1
  8 10  1  0
  8 11  1  0
 11 12  2  0
 12 13  1  0
 12 14  1  0
 14 15  2  0
 15 16  1  0
 15 17  1  0
 17 18  1  0
 17 19  2  0
 19 20  1  0
  4 21  2  0
 21 22  1  0
 22 23  1  0
 22 24  1  0
 22 25  1  0
 21 26  1  0
 26 27  1  0
 26 28  2  0
 28 29  1  0
 28  2  1  0
 19 11  1  0
M  END
>  <cnnaffinity>  (1) 
-5.21978

>  <filename>  (1) 
FC(F)(F)c1cccnc1C[C@@H](Cl)c1cccnc1

$$$$
