
     RDKit          3D

 40 43  0  0  0  0  0  0  0  0999 V2000
   12.0735   -1.9654   22.3840 F   0  0  0  0  0  0  0  0  0  0  0  0
   10.9346   -1.2096   22.2843 C   0  0  0  0  0  0  0  0  0  0  0  0
   11.0898   -0.3727   21.2326 F   0  0  0  0  0  0  0  0  0  0  0  0
    9.7980   -2.1996   22.0629 C   0  0  0  0  0  0  0  0  0  0  0  0
    8.4939   -1.6090   21.8244 N   0  0  0  0  0  0  0  0  0  0  0  0
    8.3202   -1.0219   20.6164 N   0  0  0  0  0  0  0  0  0  0  0  0
    7.0524   -0.6592   20.6305 C   0  0  0  0  0  0  0  0  0  0  0  0
    6.4145    0.0799   19.5452 C   0  0  0  0  0  0  0  0  0  0  0  0
    5.2015    0.7696   19.7041 C   0  0  0  0  0  0  0  0  0  0  0  0
    4.7126    1.4949   18.6205 C   0  0  0  0  0  0  0  0  0  0  0  0
    5.4274    1.4755   17.4169 C   0  0  0  0  0  0  0  0  0  0  0  0
    6.5719    0.7935   17.2506 N   0  0  0  0  0  0  0  0  0  0  0  0
    7.0593    0.1305   18.3024 C   0  0  0  0  0  0  0  0  0  0  0  0
    8.0102   -0.3841   18.1546 H   0  0  0  0  0  0  0  0  0  0  0  0
    5.0698    2.0368   16.5545 H   0  0  0  0  0  0  0  0  0  0  0  0
    3.8079    2.0892   18.6989 H   0  0  0  0  0  0  0  0  0  0  0  0
    4.6705    0.7384   20.6580 H   0  0  0  0  0  0  0  0  0  0  0  0
    6.3924   -0.9967   21.7623 N   0  0  0  0  0  0  0  0  0  0  0  0
    7.3149   -1.5791   22.4994 C   0  0  0  0  0  0  0  0  0  0  0  0
    7.1164   -1.9400   23.9505 C   0  0  0  0  0  0  0  0  0  0  0  0
    7.9863   -1.1906   24.8421 N   0  0  0  0  0  0  0  0  0  0  0  0
    9.1913   -1.6200   25.3769 C   0  0  0  0  0  0  0  0  0  0  0  0
    9.9669   -0.5466   25.7212 C   0  0  0  0  0  0  0  0  0  0  0  0
    9.2167    0.6243   25.3769 C   0  0  0  0  0  0  0  0  0  0  0  0
    9.4949    1.9990   25.4065 C   0  0  0  0  0  0  0  0  0  0  0  0
    8.5559    2.9122   24.9500 C   0  0  0  0  0  0  0  0  0  0  0  0
    7.2953    2.4710   24.4789 C   0  0  0  0  0  0  0  0  0  0  0  0
    6.9916    1.1113   24.4331 C   0  0  0  0  0  0  0  0  0  0  0  0
    7.9794    0.1968   24.8588 C   0  0  0  0  0  0  0  0  0  0  0  0
    6.0407    0.7595   24.0435 H   0  0  0  0  0  0  0  0  0  0  0  0
    6.5596    3.1866   24.1176 H   0  0  0  0  0  0  0  0  0  0  0  0
    8.8146    3.9678   24.9287 H   0  0  0  0  0  0  0  0  0  0  0  0
   10.4549    2.2961   25.7891 H   0  0  0  0  0  0  0  0  0  0  0  0
   10.9721   -0.5366   26.1259 H   0  0  0  0  0  0  0  0  0  0  0  0
    9.3571   -2.6782   25.5530 H   0  0  0  0  0  0  0  0  0  0  0  0
    7.2382   -3.0113   24.1303 H   0  0  0  0  0  0  0  0  0  0  0  0
    6.0813   -1.6851   24.1866 H   0  0  0  0  0  0  0  0  0  0  0  0
    9.7604   -2.8714   22.9196 H   0  0  0  0  0  0  0  0  0  0  0  0
   10.0632   -2.7641   21.1666 H   0  0  0  0  0  0  0  0  0  0  0  0
   10.8418   -0.6078   23.1950 H   0  0  0  0  0  0  0  0  0  0  0  0
  1  2  1  0
  2  3  1  0
  2  4  1  0
  4  5  1  0
  5  6  1  0
  6  7  2  0
  7  8  1  0
  8  9  2  0
  9 10  1  0
 10 11  2  0
 11 12  1  0
 12 13  2  0
 13 14  1  0
 11 15  1  0
 10 16  1  0
  9 17  1  0
  7 18  1  0
 18 19  2  0
 19 20  1  0
 20 21  1  0
 21 22  1  0
 22 23  2  0
 23 24  1  0
 24 25  2  0
 25 26  1  0
 26 27  2  0
 27 28  1  0
 28 29  2  0
 28 30  1  0
 27 31  1  0
 26 32  1  0
 25 33  1  0
 23 34  1  0
 22 35  1  0
 20 36  1  0
 20 37  1  0
  4 38  1  0
  4 39  1  0
  2 40  1  0
 19  5  1  0
 29 21  1  0
 13  8  1  0
 29 24  1  0
M  END
>  <cnnaffinity>  (1) 
-5.78421

>  <filename>  (1) 
FC(F)Cn1nc(-c2cccnc2)nc1Cn1ccc2ccccc21

$$$$
