
     RDKit          3D

 25 26  0  0  0  0  0  0  0  0999 V2000
    5.0749   -2.1661   21.3026 H   0  0  0  0  0  0  0  0  0  0  0  0
    5.9061   -2.3665   21.9631 C   0  0  0  0  0  0  0  0  0  0  0  0
    7.0828   -1.7313   21.9018 C   0  0  0  0  0  0  0  0  0  0  0  0
    7.5626   -0.6936   20.9446 C   0  0  0  0  0  0  0  0  0  0  0  0
    6.7231   -0.0133   19.9237 C   0  0  0  0  0  0  0  0  0  0  0  0
    7.2495    0.0633   18.6257 C   0  0  0  0  0  0  0  0  0  0  0  0
    8.2095   -0.3944   18.4104 H   0  0  0  0  0  0  0  0  0  0  0  0
    6.6370    0.6581   17.5979 N   0  0  0  0  0  0  0  0  0  0  0  0
    5.4645    1.2583   17.8492 C   0  0  0  0  0  0  0  0  0  0  0  0
    4.9865    1.7422   16.9980 H   0  0  0  0  0  0  0  0  0  0  0  0
    4.8574    1.2666   19.1099 C   0  0  0  0  0  0  0  0  0  0  0  0
    3.9219    1.8001   19.2376 H   0  0  0  0  0  0  0  0  0  0  0  0
    5.4942    0.6197   20.1761 C   0  0  0  0  0  0  0  0  0  0  0  0
    5.0565    0.6417   21.1767 H   0  0  0  0  0  0  0  0  0  0  0  0
    8.8105   -0.4224   21.0656 N   0  0  0  0  0  0  0  0  0  0  0  0
    9.3756   -1.1728   22.1943 C   0  0  0  0  0  0  0  0  0  0  0  0
    9.8285   -0.4832   22.9145 H   0  0  0  0  0  0  0  0  0  0  0  0
   10.1499   -1.8483   21.8117 H   0  0  0  0  0  0  0  0  0  0  0  0
    8.2317   -1.9572   22.8641 C   0  0  0  0  0  0  0  0  0  0  0  0
    7.9696   -1.5305   23.8372 H   0  0  0  0  0  0  0  0  0  0  0  0
    8.4605   -3.0072   23.0424 H   0  0  0  0  0  0  0  0  0  0  0  0
    5.6021   -3.4046   23.0106 C   0  0  0  0  0  0  0  0  0  0  0  0
    5.5753   -3.0016   24.0265 H   0  0  0  0  0  0  0  0  0  0  0  0
    6.5411   -4.4024   23.0067 F   0  0  0  0  0  0  0  0  0  0  0  0
    4.3939   -3.9795   22.7704 F   0  0  0  0  0  0  0  0  0  0  0  0
  1  2  1  0
  2  3  2  3
  3  4  1  0
  4  5  1  0
  5  6  2  0
  6  7  1  0
  6  8  1  0
  8  9  2  0
  9 10  1  0
  9 11  1  0
 11 12  1  0
 11 13  2  0
 13 14  1  0
  4 15  2  0
 15 16  1  0
 16 17  1  0
 16 18  1  0
 16 19  1  0
 19 20  1  0
 19 21  1  0
  2 22  1  0
 22 23  1  0
 22 24  1  0
 22 25  1  0
 19  3  1  0
 13  5  1  0
M  END
>  <cnnaffinity>  (1) 
-4.505

>  <filename>  (1) 
FC(F)C=C1CCN=C1c1cccnc1

$$$$
