
     RDKit          3D

 30 31  0  0  0  0  0  0  0  0999 V2000
    4.9149    1.7937   16.9853 H   0  0  0  0  0  0  0  0  0  0  0  0
    5.3936    1.3000   17.8268 C   0  0  0  0  0  0  0  0  0  0  0  0
    6.5511    0.6807   17.5583 N   0  0  0  0  0  0  0  0  0  0  0  0
    7.1517    0.0567   18.5792 C   0  0  0  0  0  0  0  0  0  0  0  0
    8.1066   -0.4194   18.3562 H   0  0  0  0  0  0  0  0  0  0  0  0
    6.6458   -0.0144   19.8944 C   0  0  0  0  0  0  0  0  0  0  0  0
    7.3837   -0.7612   20.9818 C   0  0  0  0  0  0  0  0  0  0  0  0
    6.6652   -1.1295   21.7279 H   0  0  0  0  0  0  0  0  0  0  0  0
    7.8745   -1.6499   20.5688 H   0  0  0  0  0  0  0  0  0  0  0  0
    8.4296    0.0653   21.7647 C   0  0  1  0  0  0  0  0  0  0  0  0
    8.9492   -0.8296   22.8126 O   0  0  0  0  0  0  0  0  0  0  0  0
    9.9852   -1.6400   22.5562 C   0  0  0  0  0  0  0  0  0  0  0  0
    9.9746   -2.6316   23.4405 F   0  0  0  0  0  0  0  0  0  0  0  0
   11.1730   -1.0044   22.6432 F   0  0  0  0  0  0  0  0  0  0  0  0
    9.9666   -2.1925   21.3197 F   0  0  0  0  0  0  0  0  0  0  0  0
    9.5352    0.7566   20.9340 C   0  0  0  0  0  0  0  0  0  0  0  0
    9.0576    1.1498   20.0344 H   0  0  0  0  0  0  0  0  0  0  0  0
   10.3140    0.0545   20.6382 H   0  0  0  0  0  0  0  0  0  0  0  0
   10.0637    1.8781   21.7279 N   0  0  0  0  0  0  0  0  0  0  0  0
   10.8890    1.5598   22.2201 H   0  0  0  0  0  0  0  0  0  0  0  0
    9.0400    2.2236   22.7394 C   0  0  0  0  0  0  0  0  0  0  0  0
    8.7474    3.2781   22.6395 H   0  0  0  0  0  0  0  0  0  0  0  0
    9.4280    2.0917   23.7579 H   0  0  0  0  0  0  0  0  0  0  0  0
    7.8489    1.2831   22.4875 C   0  0  0  0  0  0  0  0  0  0  0  0
    7.1404    1.7816   21.8216 H   0  0  0  0  0  0  0  0  0  0  0  0
    7.3095    0.9973   23.3908 H   0  0  0  0  0  0  0  0  0  0  0  0
    5.4355    0.6455   20.1465 C   0  0  0  0  0  0  0  0  0  0  0  0
    5.0081    0.6329   21.1546 H   0  0  0  0  0  0  0  0  0  0  0  0
    4.8007    1.3137   19.0943 C   0  0  0  0  0  0  0  0  0  0  0  0
    3.8726    1.8473   19.2494 H   0  0  0  0  0  0  0  0  0  0  0  0
  1  2  1  0
  2  3  2  0
  3  4  1  0
  4  5  1  0
  4  6  2  0
  6  7  1  0
  7  8  1  0
  7  9  1  0
  7 10  1  0
 10 11  1  1
 11 12  1  0
 12 13  1  0
 12 14  1  0
 12 15  1  0
 10 16  1  0
 16 17  1  0
 16 18  1  0
 16 19  1  0
 19 20  1  0
 19 21  1  0
 21 22  1  0
 21 23  1  0
 21 24  1  0
 24 25  1  0
 24 26  1  0
  6 27  1  0
 27 28  1  0
 27 29  2  0
 29 30  1  0
 29  2  1  0
 24 10  1  0
M  END
>  <cnnaffinity>  (1) 
-4.58059

>  <filename>  (1) 
FC(F)(F)O[C@@]1(Cc2cccnc2)CCNC1

$$$$
