
     RDKit          3D

 27 29  0  0  0  0  0  0  0  0999 V2000
    7.6939    5.5642   24.3073 F   0  0  0  0  0  0  0  0  0  0  0  0
    7.3551    4.9830   23.1490 C   0  0  0  0  0  0  0  0  0  0  0  0
    8.1583    5.4780   22.1967 F   0  0  0  0  0  0  0  0  0  0  0  0
    6.1030    5.3715   22.8485 F   0  0  0  0  0  0  0  0  0  0  0  0
    7.4460    3.4638   23.2160 C   0  0  0  0  0  0  0  0  0  0  0  0
    7.3616    2.7557   24.3065 N   0  0  0  0  0  0  0  0  0  0  0  0
    7.4123    1.4263   24.0211 C   0  0  0  0  0  0  0  0  0  0  0  0
    7.5165    1.0938   22.6951 C   0  0  0  0  0  0  0  0  0  0  0  0
    7.6514   -0.2554   22.1997 C   0  0  0  0  0  0  0  0  0  0  0  0
    8.2003   -1.3385   22.8637 C   0  0  0  0  0  0  0  0  0  0  0  0
    8.2142   -2.3687   21.9135 C   0  0  0  0  0  0  0  0  0  0  0  0
    7.7107   -1.9833   20.7506 N   0  0  0  0  0  0  0  0  0  0  0  0
    7.3416   -0.7014   20.9294 N   0  0  0  0  0  0  0  0  0  0  0  0
    6.6418   -0.0114   19.9087 C   0  0  0  0  0  0  0  0  0  0  0  0
    5.4193    0.6197   20.1624 C   0  0  0  0  0  0  0  0  0  0  0  0
    4.8023    1.2892   19.1013 C   0  0  0  0  0  0  0  0  0  0  0  0
    5.4056    1.2848   17.8398 C   0  0  0  0  0  0  0  0  0  0  0  0
    6.5734    0.6637   17.5944 N   0  0  0  0  0  0  0  0  0  0  0  0
    7.1732    0.0334   18.6083 C   0  0  0  0  0  0  0  0  0  0  0  0
    8.1226   -0.4420   18.3785 H   0  0  0  0  0  0  0  0  0  0  0  0
    4.9373    1.7835   16.9944 H   0  0  0  0  0  0  0  0  0  0  0  0
    3.8817    1.8371   19.2555 H   0  0  0  0  0  0  0  0  0  0  0  0
    4.9980    0.6268   21.1705 H   0  0  0  0  0  0  0  0  0  0  0  0
    8.5724   -3.3841   22.0133 H   0  0  0  0  0  0  0  0  0  0  0  0
    8.5804   -1.3557   23.8764 H   0  0  0  0  0  0  0  0  0  0  0  0
    7.6076    2.5521   21.7555 S   0  0  0  0  0  0  0  0  0  0  0  0
    7.3580    0.7214   24.8406 H   0  0  0  0  0  0  0  0  0  0  0  0
  1  2  1  0
  2  3  1  0
  2  4  1  0
  2  5  1  0
  5  6  2  0
  6  7  1  0
  7  8  2  0
  8  9  1  0
  9 10  2  0
 10 11  1  0
 11 12  2  0
 12 13  1  0
 13 14  1  0
 14 15  2  0
 15 16  1  0
 16 17  2  0
 17 18  1  0
 18 19  2  0
 19 20  1  0
 17 21  1  0
 16 22  1  0
 15 23  1  0
 11 24  1  0
 10 25  1  0
  8 26  1  0
  7 27  1  0
 26  5  1  0
 13  9  1  0
 19 14  1  0
M  END
>  <cnnaffinity>  (1) 
-5.27547

>  <filename>  (1) 
FC(F)(F)c1ncc(-c2ccnn2-c2cccnc2)s1

$$$$
