
     RDKit          3D

 37 38  0  0  0  0  0  0  0  0999 V2000
   13.7510    2.1415   23.9255 F   0  0  0  0  0  0  0  0  0  0  0  0
   13.0614    1.0009   23.7781 C   0  0  0  0  0  0  0  0  0  0  0  0
   13.9277    0.0457   23.4026 F   0  0  0  0  0  0  0  0  0  0  0  0
   12.6449    0.6535   25.0273 F   0  0  0  0  0  0  0  0  0  0  0  0
   11.9655    1.2067   22.8139 C   0  0  0  0  0  0  0  0  0  0  0  0
   12.0099    2.2320   21.8764 C   0  0  0  0  0  0  0  0  0  0  0  0
   11.0610    2.2429   20.8659 C   0  0  0  0  0  0  0  0  0  0  0  0
   10.0867    1.2545   20.8639 C   0  0  0  0  0  0  0  0  0  0  0  0
   10.0016    0.3016   21.7930 N   0  0  0  0  0  0  0  0  0  0  0  0
   10.9283    0.2635   22.7464 C   0  0  0  0  0  0  0  0  0  0  0  0
   10.8410   -0.7458   23.6383 N   0  0  0  0  0  0  0  0  0  0  0  0
    9.7875   -1.7495   23.5728 C   0  0  0  0  0  0  0  0  0  0  0  0
    8.3517   -1.1888   23.8284 C   0  0  0  0  0  0  0  0  0  0  0  0
    7.3032   -1.8611   23.0613 N   0  0  0  0  0  0  0  0  0  0  0  0
    6.7979   -1.6555   21.8164 C   0  0  0  0  0  0  0  0  0  0  0  0
    5.5962   -2.6822   21.2723 S   0  0  0  0  0  0  0  0  0  0  0  0
    7.3547   -0.6466   21.0994 N   0  0  0  0  0  0  0  0  0  0  0  0
    6.7551   -0.0141   19.9589 C   0  0  0  0  0  0  0  0  0  0  0  0
    5.5021    0.6062   20.0740 C   0  0  0  0  0  0  0  0  0  0  0  0
    4.9386    1.2108   18.9421 C   0  0  0  0  0  0  0  0  0  0  0  0
    5.6313    1.1645   17.7281 C   0  0  0  0  0  0  0  0  0  0  0  0
    6.8218    0.5613   17.5908 N   0  0  0  0  0  0  0  0  0  0  0  0
    7.3649    0.0026   18.6843 C   0  0  0  0  0  0  0  0  0  0  0  0
    8.3410   -0.4645   18.5489 H   0  0  0  0  0  0  0  0  0  0  0  0
    5.2223    1.6333   16.8342 H   0  0  0  0  0  0  0  0  0  0  0  0
    3.9823    1.7214   18.9944 H   0  0  0  0  0  0  0  0  0  0  0  0
    4.9936    0.6053   21.0389 H   0  0  0  0  0  0  0  0  0  0  0  0
    8.2933   -0.3778   21.4151 H   0  0  0  0  0  0  0  0  0  0  0  0
    6.7908   -2.6198   23.4815 H   0  0  0  0  0  0  0  0  0  0  0  0
    8.1004   -1.3075   24.8910 H   0  0  0  0  0  0  0  0  0  0  0  0
    8.3425   -0.1117   23.6281 H   0  0  0  0  0  0  0  0  0  0  0  0
    9.8193   -2.2429   22.5896 H   0  0  0  0  0  0  0  0  0  0  0  0
    9.9993   -2.5310   24.3131 H   0  0  0  0  0  0  0  0  0  0  0  0
   11.2665   -0.5442   24.5216 H   0  0  0  0  0  0  0  0  0  0  0  0
    9.3560    1.1777   20.0615 H   0  0  0  0  0  0  0  0  0  0  0  0
   11.1156    3.0000   20.1023 H   0  0  0  0  0  0  0  0  0  0  0  0
   12.7772    3.0062   21.9195 H   0  0  0  0  0  0  0  0  0  0  0  0
  1  2  1  0
  2  3  1  0
  2  4  1  0
  2  5  1  0
  5  6  2  0
  6  7  1  0
  7  8  2  0
  8  9  1  0
  9 10  2  0
 10 11  1  0
 11 12  1  0
 12 13  1  0
 13 14  1  0
 14 15  1  0
 15 16  2  0
 15 17  1  0
 17 18  1  0
 18 19  2  0
 19 20  1  0
 20 21  2  0
 21 22  1  0
 22 23  2  0
 23 24  1  0
 21 25  1  0
 20 26  1  0
 19 27  1  0
 17 28  1  0
 14 29  1  0
 13 30  1  0
 13 31  1  0
 12 32  1  0
 12 33  1  0
 11 34  1  0
  8 35  1  0
  7 36  1  0
  6 37  1  0
 10  5  1  0
 23 18  1  0
M  END
>  <cnnaffinity>  (1) 
-5.684

>  <filename>  (1) 
FC(F)(F)c1cccnc1NCCNC(=S)Nc1cccnc1

$$$$
