
     RDKit          3D

 37 39  0  0  0  0  0  0  0  0999 V2000
   13.8465    3.1532   23.3008 F   0  0  0  0  0  0  0  0  0  0  0  0
   13.2317    1.9499   23.3010 C   0  0  0  0  0  0  0  0  0  0  0  0
   14.0334    1.0905   22.6407 F   0  0  0  0  0  0  0  0  0  0  0  0
   13.1622    1.5223   24.5652 F   0  0  0  0  0  0  0  0  0  0  0  0
   11.8837    2.1008   22.6411 C   0  0  0  0  0  0  0  0  0  0  0  0
   11.6065    2.9184   21.5792 C   0  0  0  0  0  0  0  0  0  0  0  0
   10.2820    2.6807   21.2883 N   0  0  0  0  0  0  0  0  0  0  0  0
    9.8102    1.7898   22.1950 C   0  0  0  0  0  0  0  0  0  0  0  0
    8.4243    1.2147   22.1402 C   0  0  0  0  0  0  0  0  0  0  0  0
    8.3754   -0.0979   21.4057 N   0  0  0  0  0  4  0  0  0  0  0  0
    9.2692   -1.1664   21.9741 C   0  0  0  0  0  0  0  0  0  0  0  0
    8.8196   -2.3848   21.1937 C   0  0  0  0  0  0  0  0  0  0  0  0
    7.2935   -2.2174   21.0480 C   0  0  0  0  0  0  0  0  0  0  0  0
    6.9991   -0.7115   21.2035 C   0  0  0  0  0  0  0  0  0  0  0  0
    6.3795   -0.0043   20.0261 C   0  0  0  0  0  0  0  0  0  0  0  0
    5.1889    0.7273   20.1330 C   0  0  0  0  0  0  0  0  0  0  0  0
    4.7253    1.4231   19.0108 C   0  0  0  0  0  0  0  0  0  0  0  0
    5.4615    1.3471   17.8242 C   0  0  0  0  0  0  0  0  0  0  0  0
    6.5935    0.6360   17.6980 N   0  0  0  0  0  0  0  0  0  0  0  0
    7.0437    0.0055   18.7852 C   0  0  0  0  0  0  0  0  0  0  0  0
    7.9909   -0.5257   18.6596 H   0  0  0  0  0  0  0  0  0  0  0  0
    5.1327    1.8786   16.9329 H   0  0  0  0  0  0  0  0  0  0  0  0
    3.8264    2.0317   19.0439 H   0  0  0  0  0  0  0  0  0  0  0  0
    4.6500    0.7659   21.0828 H   0  0  0  0  0  0  0  0  0  0  0  0
    6.4012   -0.5304   22.1045 H   0  0  0  0  0  0  0  0  0  0  0  0
    6.9015   -2.6089   20.1055 H   0  0  0  0  0  0  0  0  0  0  0  0
    6.7712   -2.7643   21.8393 H   0  0  0  0  0  0  0  0  0  0  0  0
    9.3411   -2.3535   20.2301 H   0  0  0  0  0  0  0  0  0  0  0  0
    9.0984   -3.3144   21.6925 H   0  0  0  0  0  0  0  0  0  0  0  0
   10.3255   -0.9082   21.8332 H   0  0  0  0  0  0  0  0  0  0  0  0
    9.0763   -1.2670   23.0506 H   0  0  0  0  0  0  0  0  0  0  0  0
    8.6485    0.0723   20.4097 H   0  0  0  0  0  0  0  0  0  0  0  0
    7.7416    1.9383   21.6819 H   0  0  0  0  0  0  0  0  0  0  0  0
    8.1128    1.0642   23.1805 H   0  0  0  0  0  0  0  0  0  0  0  0
   10.7461    1.4200   23.0269 N   0  0  0  0  0  0  0  0  0  0  0  0
    9.6931    3.2622   20.7097 H   0  0  0  0  0  0  0  0  0  0  0  0
   12.2148    3.6382   21.0467 H   0  0  0  0  0  0  0  0  0  0  0  0
  1  2  1  0
  2  3  1  0
  2  4  1  0
  2  5  1  0
  5  6  2  0
  6  7  1  0
  7  8  1  0
  8  9  1  0
  9 10  1  0
 10 11  1  0
 11 12  1  0
 12 13  1  0
 13 14  1  0
 14 15  1  0
 15 16  2  0
 16 17  1  0
 17 18  2  0
 18 19  1  0
 19 20  2  0
 20 21  1  0
 18 22  1  0
 17 23  1  0
 16 24  1  0
 14 25  1  0
 13 26  1  0
 13 27  1  0
 12 28  1  0
 12 29  1  0
 11 30  1  0
 11 31  1  0
 10 32  1  0
  9 33  1  0
  9 34  1  0
  8 35  2  0
  7 36  1  0
  6 37  1  0
 35  5  1  0
 14 10  1  0
 20 15  1  0
M  CHG  1  10   1
M  END
>  <cnnaffinity>  (1) 
-4.46179

>  <filename>  (1) 
FC(F)(F)c1c[nH]c(C[NH+]2CCCC2c2cccnc2)n1

$$$$
