
     RDKit          3D

 26 27  0  0  0  0  0  0  0  0999 V2000
    5.0259    1.9001   16.9981 H   0  0  0  0  0  0  0  0  0  0  0  0
    5.4604    1.3276   17.8145 C   0  0  0  0  0  0  0  0  0  0  0  0
    6.6023    0.6640   17.5622 N   0  0  0  0  0  0  0  0  0  0  0  0
    7.1520   -0.0473   18.5615 C   0  0  0  0  0  0  0  0  0  0  0  0
    8.0737   -0.5720   18.3085 H   0  0  0  0  0  0  0  0  0  0  0  0
    6.5884   -0.1502   19.8640 C   0  0  0  0  0  0  0  0  0  0  0  0
    7.0433   -0.9285   20.9435 N   0  0  0  0  0  0  0  0  0  0  0  0
    6.4367   -0.8859   21.7588 H   0  0  0  0  0  0  0  0  0  0  0  0
    8.6410   -1.4436   21.2366 S   0  0  0  0  0  0  0  0  0  0  0  0
    9.5125    0.0626   21.7847 C   0  0  0  0  0  0  0  0  0  0  0  0
    9.7655    0.2680   23.0696 N   0  0  0  0  0  0  0  0  0  0  0  0
   10.3745    1.4145   23.4264 C   0  0  0  0  0  0  0  0  0  0  0  0
   10.5422    1.7389   24.9166 C   0  0  0  0  0  0  0  0  0  0  0  0
   11.8239    2.0734   25.1722 F   0  0  0  0  0  0  0  0  0  0  0  0
   10.2162    0.7649   25.7649 F   0  0  0  0  0  0  0  0  0  0  0  0
    9.7821    2.8122   25.2287 F   0  0  0  0  0  0  0  0  0  0  0  0
   10.8316    2.3573   22.4943 C   0  0  0  0  0  0  0  0  0  0  0  0
   11.3474    3.2524   22.8244 H   0  0  0  0  0  0  0  0  0  0  0  0
   10.6083    2.1143   21.1401 C   0  0  0  0  0  0  0  0  0  0  0  0
   10.9570    2.8229   20.3895 H   0  0  0  0  0  0  0  0  0  0  0  0
    9.9079    0.9670   20.7837 C   0  0  0  0  0  0  0  0  0  0  0  0
    9.6468    0.7368   19.7615 H   0  0  0  0  0  0  0  0  0  0  0  0
    5.4074    0.5641   20.0976 C   0  0  0  0  0  0  0  0  0  0  0  0
    4.9796    0.5287   21.1012 H   0  0  0  0  0  0  0  0  0  0  0  0
    4.8353    1.3048   19.0691 C   0  0  0  0  0  0  0  0  0  0  0  0
    3.9272    1.8688   19.2419 H   0  0  0  0  0  0  0  0  0  0  0  0
  1  2  1  0
  2  3  2  0
  3  4  1  0
  4  5  1  0
  4  6  2  0
  6  7  1  0
  7  8  1  0
  7  9  1  0
  9 10  1  0
 10 11  2  0
 11 12  1  0
 12 13  1  0
 13 14  1  0
 13 15  1  0
 13 16  1  0
 12 17  2  0
 17 18  1  0
 17 19  1  0
 19 20  1  0
 19 21  2  0
 21 22  1  0
  6 23  1  0
 23 24  1  0
 23 25  2  0
 25 26  1  0
 25  2  1  0
 21 10  1  0
M  END
>  <cnnaffinity>  (1) 
-4.73539

>  <filename>  (1) 
FC(F)(F)c1cccc(SNc2cccnc2)n1

$$$$
