
     RDKit          3D

 28 29  0  0  0  0  0  0  0  0999 V2000
    5.7222   -1.1614   22.1007 H   0  0  0  0  0  0  0  0  0  0  0  0
    6.7856   -1.3001   22.0723 C   0  0  0  0  0  0  0  0  0  0  0  0
    7.4308   -0.7248   21.0040 C   0  0  0  0  0  0  0  0  0  0  0  0
    9.3399   -0.8623   20.8631 Br  0  0  0  0  0  0  0  0  0  0  0  0
    6.6780   -0.0242   19.9500 C   0  0  0  0  0  0  0  0  0  0  0  0
    7.2366    0.0493   18.6641 C   0  0  0  0  0  0  0  0  0  0  0  0
    8.1962   -0.4345   18.5016 H   0  0  0  0  0  0  0  0  0  0  0  0
    6.6470    0.6721   17.6282 N   0  0  0  0  0  0  0  0  0  0  0  0
    5.4636    1.2725   17.8497 C   0  0  0  0  0  0  0  0  0  0  0  0
    4.9865    1.8039   17.0326 H   0  0  0  0  0  0  0  0  0  0  0  0
    4.8292    1.2388   19.0973 C   0  0  0  0  0  0  0  0  0  0  0  0
    3.8815    1.7510   19.2190 H   0  0  0  0  0  0  0  0  0  0  0  0
    5.4270    0.5700   20.1679 C   0  0  0  0  0  0  0  0  0  0  0  0
    4.9484    0.5391   21.1478 H   0  0  0  0  0  0  0  0  0  0  0  0
    7.4541   -2.1101   23.0982 C   0  0  0  0  0  0  0  0  0  0  0  0
    8.3963   -3.0474   22.6788 C   0  0  0  0  0  0  0  0  0  0  0  0
    8.5998   -3.1271   21.6173 H   0  0  0  0  0  0  0  0  0  0  0  0
    9.0451   -3.8693   23.6019 C   0  0  0  0  0  0  0  0  0  0  0  0
    9.7764   -4.5916   23.2694 H   0  0  0  0  0  0  0  0  0  0  0  0
    8.7395   -3.7711   24.9584 C   0  0  0  0  0  0  0  0  0  0  0  0
    9.2334   -4.4041   25.6895 H   0  0  0  0  0  0  0  0  0  0  0  0
    7.8049   -2.8355   25.3893 C   0  0  0  0  0  0  0  0  0  0  0  0
    7.5882   -2.7625   26.4491 H   0  0  0  0  0  0  0  0  0  0  0  0
    7.1737   -1.9736   24.4717 C   0  0  0  0  0  0  0  0  0  0  0  0
    6.2478   -0.8935   24.9829 C   0  0  0  0  0  0  0  0  0  0  0  0
    5.0115   -1.3955   25.2130 F   0  0  0  0  0  0  0  0  0  0  0  0
    6.1627    0.1302   24.0925 F   0  0  0  0  0  0  0  0  0  0  0  0
    6.6983   -0.3981   26.1654 F   0  0  0  0  0  0  0  0  0  0  0  0
  1  2  1  0
  2  3  2  3
  3  4  1  0
  3  5  1  0
  5  6  2  0
  6  7  1  0
  6  8  1  0
  8  9  2  0
  9 10  1  0
  9 11  1  0
 11 12  1  0
 11 13  2  0
 13 14  1  0
  2 15  1  0
 15 16  2  0
 16 17  1  0
 16 18  1  0
 18 19  1  0
 18 20  2  0
 20 21  1  0
 20 22  1  0
 22 23  1  0
 22 24  2  0
 24 25  1  0
 25 26  1  0
 25 27  1  0
 25 28  1  0
 13  5  1  0
 24 15  1  0
M  END
>  <cnnaffinity>  (1) 
-4.49918

>  <filename>  (1) 
FC(F)(F)c1ccccc1C=C(Br)c1cccnc1

$$$$
