
     RDKit          3D

 37 40  0  0  0  0  0  0  0  0999 V2000
   11.3383   -0.7019   23.2555 F   0  0  0  0  0  0  0  0  0  0  0  0
   11.3024   -1.6437   22.2948 C   0  0  0  0  0  0  0  0  0  0  0  0
   12.2387   -2.5660   22.5802 F   0  0  0  0  0  0  0  0  0  0  0  0
   11.6472   -1.0549   21.1468 F   0  0  0  0  0  0  0  0  0  0  0  0
    9.9776   -2.3805   22.2265 C   0  0  0  0  0  0  0  0  0  0  0  0
    8.8072   -1.5591   22.0597 N   0  0  0  0  0  0  0  0  0  0  0  0
    8.5557   -1.0919   20.8165 N   0  0  0  0  0  0  0  0  0  0  0  0
    7.3645   -0.5450   20.9468 C   0  0  0  0  0  0  0  0  0  0  0  0
    6.6328    0.0722   19.8465 C   0  0  0  0  0  0  0  0  0  0  0  0
    5.3979    0.6969   20.0700 C   0  0  0  0  0  0  0  0  0  0  0  0
    4.7830    1.3345   18.9967 C   0  0  0  0  0  0  0  0  0  0  0  0
    5.4108    1.3096   17.7449 C   0  0  0  0  0  0  0  0  0  0  0  0
    6.5698    0.6724   17.5124 N   0  0  0  0  0  0  0  0  0  0  0  0
    7.1620    0.0681   18.5471 C   0  0  0  0  0  0  0  0  0  0  0  0
    8.0993   -0.4443   18.3320 H   0  0  0  0  0  0  0  0  0  0  0  0
    4.9723    1.8229   16.8913 H   0  0  0  0  0  0  0  0  0  0  0  0
    3.8512    1.8771   19.1196 H   0  0  0  0  0  0  0  0  0  0  0  0
    4.9524    0.6871   21.0677 H   0  0  0  0  0  0  0  0  0  0  0  0
    6.8346   -0.6401   22.1933 N   0  0  0  0  0  0  0  0  0  0  0  0
    7.7526   -1.2948   22.8765 C   0  0  0  0  0  0  0  0  0  0  0  0
    7.7572   -1.7423   24.3099 C   0  0  0  0  0  0  0  0  0  0  0  0
    8.8000   -1.4352   25.1736 C   0  0  0  0  0  0  0  0  0  0  0  0
    8.7486   -1.8267   26.5395 C   0  0  0  0  0  0  0  0  0  0  0  0
    7.7650   -2.5079   27.0794 N   0  0  0  0  0  0  0  0  0  0  0  0
    6.7468   -2.8867   26.2593 C   0  0  0  0  0  0  0  0  0  0  0  0
    5.7716   -3.6119   26.8791 N   0  0  0  0  0  0  0  0  0  0  0  0
    4.7764   -4.0545   26.1497 C   0  0  0  0  0  0  0  0  0  0  0  0
    4.6544   -3.8392   24.7522 C   0  0  0  0  0  0  0  0  0  0  0  0
    5.6099   -3.0964   24.1061 C   0  0  0  0  0  0  0  0  0  0  0  0
    6.6963   -2.5546   24.8564 C   0  0  0  0  0  0  0  0  0  0  0  0
    5.5498   -2.9087   23.0348 H   0  0  0  0  0  0  0  0  0  0  0  0
    3.8226   -4.2764   24.2145 H   0  0  0  0  0  0  0  0  0  0  0  0
    3.9996   -4.6303   26.6577 H   0  0  0  0  0  0  0  0  0  0  0  0
    9.5651   -1.5418   27.2042 H   0  0  0  0  0  0  0  0  0  0  0  0
    9.6718   -0.8783   24.8578 H   0  0  0  0  0  0  0  0  0  0  0  0
    9.8891   -3.0031   23.1176 H   0  0  0  0  0  0  0  0  0  0  0  0
   10.0461   -2.9871   21.3273 H   0  0  0  0  0  0  0  0  0  0  0  0
  1  2  1  0
  2  3  1  0
  2  4  1  0
  2  5  1  0
  5  6  1  0
  6  7  1  0
  7  8  2  0
  8  9  1  0
  9 10  2  0
 10 11  1  0
 11 12  2  0
 12 13  1  0
 13 14  2  0
 14 15  1  0
 12 16  1  0
 11 17  1  0
 10 18  1  0
  8 19  1  0
 19 20  2  0
 20 21  1  0
 21 22  2  0
 22 23  1  0
 23 24  2  0
 24 25  1  0
 25 26  2  0
 26 27  1  0
 27 28  2  0
 28 29  1  0
 29 30  2  0
 29 31  1  0
 28 32  1  0
 27 33  1  0
 23 34  1  0
 22 35  1  0
  5 36  1  0
  5 37  1  0
 20  6  1  0
 30 21  1  0
 14  9  1  0
 30 25  1  0
M  END
>  <cnnaffinity>  (1) 
-6.00135

>  <filename>  (1) 
FC(F)(F)Cn1nc(-c2cccnc2)nc1-c1ccnc2ncccc12

$$$$
