
     RDKit          3D

 30 32  0  0  0  0  0  0  0  0999 V2000
    4.9682    1.7844   17.0078 H   0  0  0  0  0  0  0  0  0  0  0  0
    5.4263    1.2758   17.8509 C   0  0  0  0  0  0  0  0  0  0  0  0
    6.5894    0.6494   17.6039 N   0  0  0  0  0  0  0  0  0  0  0  0
    7.1939    0.0269   18.6170 C   0  0  0  0  0  0  0  0  0  0  0  0
    8.1416   -0.4547   18.3818 H   0  0  0  0  0  0  0  0  0  0  0  0
    6.6621   -0.0074   19.9156 C   0  0  0  0  0  0  0  0  0  0  0  0
    7.3481   -0.6715   20.9526 N   0  0  0  0  0  0  0  0  0  0  0  0
    8.2793   -1.6129   20.6955 N   0  0  0  0  0  0  0  0  0  0  0  0
    8.6742   -2.0345   21.8785 C   0  0  0  0  0  0  0  0  0  0  0  0
    9.4120   -2.8277   21.9500 H   0  0  0  0  0  0  0  0  0  0  0  0
    8.0348   -1.3345   22.9257 C   0  0  0  0  0  0  0  0  0  0  0  0
    8.2948   -1.5822   24.3415 C   0  0  0  0  0  0  0  0  0  0  0  0
    8.3986   -2.8793   24.6634 N   0  0  0  0  0  0  0  0  0  0  0  0
    8.4090   -3.2204   25.9456 C   0  0  0  0  0  0  0  0  0  0  0  0
    8.4123   -4.2879   26.1562 H   0  0  0  0  0  0  0  0  0  0  0  0
    8.3910   -2.2849   26.9836 C   0  0  0  0  0  0  0  0  0  0  0  0
    8.3351   -2.6478   27.9918 H   0  0  0  0  0  0  0  0  0  0  0  0
    8.4457   -0.9362   26.6695 C   0  0  0  0  0  0  0  0  0  0  0  0
    8.5155   -0.1676   27.4403 H   0  0  0  0  0  0  0  0  0  0  0  0
    8.4317   -0.5843   25.3190 C   0  0  0  0  0  0  0  0  0  0  0  0
    8.4634    0.8450   24.9021 C   0  0  0  0  0  0  0  0  0  0  0  0
    9.1662    1.0530   23.7780 F   0  0  0  0  0  0  0  0  0  0  0  0
    8.9974    1.6392   25.8431 F   0  0  0  0  0  0  0  0  0  0  0  0
    7.2038    1.2909   24.6771 F   0  0  0  0  0  0  0  0  0  0  0  0
    7.1724   -0.4739   22.2855 C   0  0  0  0  0  0  0  0  0  0  0  0
    6.5203    0.3090   22.6527 H   0  0  0  0  0  0  0  0  0  0  0  0
    5.4419    0.6359   20.1661 C   0  0  0  0  0  0  0  0  0  0  0  0
    4.9867    0.6221   21.1568 H   0  0  0  0  0  0  0  0  0  0  0  0
    4.8179    1.2930   19.1079 C   0  0  0  0  0  0  0  0  0  0  0  0
    3.8853    1.8273   19.2577 H   0  0  0  0  0  0  0  0  0  0  0  0
  1  2  1  0
  2  3  2  0
  3  4  1  0
  4  5  1  0
  4  6  2  0
  6  7  1  0
  7  8  1  0
  8  9  2  0
  9 10  1  0
  9 11  1  0
 11 12  1  0
 12 13  2  0
 13 14  1  0
 14 15  1  0
 14 16  2  0
 16 17  1  0
 16 18  1  0
 18 19  1  0
 18 20  2  0
 20 21  1  0
 21 22  1  0
 21 23  1  0
 21 24  1  0
 11 25  2  0
 25 26  1  0
  6 27  1  0
 27 28  1  0
 27 29  2  0
 29 30  1  0
 29  2  1  0
 25  7  1  0
 20 12  1  0
M  END
>  <cnnaffinity>  (1) 
-5.42128

>  <filename>  (1) 
FC(F)(F)c1cccnc1-c1cnn(-c2cccnc2)c1

$$$$
