
     RDKit          3D

 22 23  0  0  0  0  0  0  0  0999 V2000
    5.0285    1.8102   16.9838 H   0  0  0  0  0  0  0  0  0  0  0  0
    5.4572    1.2877   17.8402 C   0  0  0  0  0  0  0  0  0  0  0  0
    6.6182    0.6493   17.6413 N   0  0  0  0  0  0  0  0  0  0  0  0
    7.1584    0.0243   18.6995 C   0  0  0  0  0  0  0  0  0  0  0  0
    8.0976   -0.4915   18.5167 H   0  0  0  0  0  0  0  0  0  0  0  0
    6.5790   -0.0321   19.9868 C   0  0  0  0  0  0  0  0  0  0  0  0
    7.2335   -0.7741   21.0930 C   0  0  0  0  0  0  0  0  0  0  0  0
    6.6330   -1.6831   22.0092 C   0  0  0  0  0  0  0  0  0  0  0  0
    5.5889   -1.9643   22.0628 H   0  0  0  0  0  0  0  0  0  0  0  0
    7.5111   -2.2170   22.8388 N   0  0  0  0  0  0  0  0  0  0  0  0
    8.6819   -1.6595   22.4930 N   0  0  0  0  0  0  0  0  0  0  0  0
    9.5276   -1.8810   23.0074 H   0  0  0  0  0  0  0  0  0  0  0  0
    8.5822   -0.7858   21.4573 C   0  0  0  0  0  0  0  0  0  0  0  0
   10.0274    0.0189   20.8413 S   0  0  0  0  0  0  0  0  0  0  0  0
    9.8939    1.7168   21.5619 C   0  0  0  0  0  0  0  0  0  0  0  0
    9.9919    1.6642   22.8840 F   0  0  0  0  0  0  0  0  0  0  0  0
    8.7276    2.2583   21.2250 F   0  0  0  0  0  0  0  0  0  0  0  0
   10.8804    2.4651   21.0812 F   0  0  0  0  0  0  0  0  0  0  0  0
    5.3550    0.6301   20.1632 C   0  0  0  0  0  0  0  0  0  0  0  0
    4.8704    0.6594   21.1434 H   0  0  0  0  0  0  0  0  0  0  0  0
    4.7979    1.3056   19.0759 C   0  0  0  0  0  0  0  0  0  0  0  0
    3.8775    1.8616   19.1784 H   0  0  0  0  0  0  0  0  0  0  0  0
  1  2  1  0
  2  3  2  0
  3  4  1  0
  4  5  1  0
  4  6  2  0
  6  7  1  0
  7  8  1  0
  8  9  1  0
  8 10  2  0
 10 11  1  0
 11 12  1  0
 11 13  1  0
 13 14  1  0
 14 15  1  0
 15 16  1  0
 15 17  1  0
 15 18  1  0
  6 19  1  0
 19 20  1  0
 19 21  2  0
 21 22  1  0
 21  2  1  0
 13  7  2  0
M  END
>  <cnnaffinity>  (1) 
-4.31204

>  <filename>  (1) 
FC(F)(F)Sc1[nH]ncc1-c1cccnc1

$$$$
