
     RDKit          3D

 24 25  0  0  0  0  0  0  0  0999 V2000
    4.9159    1.7994   16.9792 H   0  0  0  0  0  0  0  0  0  0  0  0
    5.3917    1.3045   17.8195 C   0  0  0  0  0  0  0  0  0  0  0  0
    6.5517    0.6846   17.5443 N   0  0  0  0  0  0  0  0  0  0  0  0
    7.1508    0.0592   18.5623 C   0  0  0  0  0  0  0  0  0  0  0  0
    8.1102   -0.4082   18.3432 H   0  0  0  0  0  0  0  0  0  0  0  0
    6.6473    0.0148   19.8770 C   0  0  0  0  0  0  0  0  0  0  0  0
    7.3734   -0.6590   20.9477 C   0  0  0  0  0  0  0  0  0  0  0  0
    7.7596   -0.2368   22.1960 C   0  0  0  0  0  0  0  0  0  0  0  0
    7.6384    1.1283   22.7433 C   0  0  0  0  0  0  0  0  0  0  0  0
    6.7262    1.6223   22.3983 H   0  0  0  0  0  0  0  0  0  0  0  0
    7.6658    1.1081   23.8317 H   0  0  0  0  0  0  0  0  0  0  0  0
    8.7722    1.9986   22.2583 C   0  0  0  0  0  0  0  0  0  0  0  0
    8.7667    2.0897   20.9142 F   0  0  0  0  0  0  0  0  0  0  0  0
    9.9707    1.5353   22.6365 F   0  0  0  0  0  0  0  0  0  0  0  0
    8.6412    3.2423   22.7593 F   0  0  0  0  0  0  0  0  0  0  0  0
    8.4505   -1.2185   22.8447 N   0  0  0  0  0  0  0  0  0  0  0  0
    8.4795   -2.2372   22.0223 C   0  0  0  0  0  0  0  0  0  0  0  0
    8.9311   -3.2038   22.2055 H   0  0  0  0  0  0  0  0  0  0  0  0
    7.8554   -1.9409   20.8476 N   0  0  0  0  0  0  0  0  0  0  0  0
    7.6984   -2.5487   20.0679 H   0  0  0  0  0  0  0  0  0  0  0  0
    5.4323    0.6657   20.1394 C   0  0  0  0  0  0  0  0  0  0  0  0
    5.0100    0.6298   21.1489 H   0  0  0  0  0  0  0  0  0  0  0  0
    4.7950    1.3199   19.0865 C   0  0  0  0  0  0  0  0  0  0  0  0
    3.8651    1.8490   19.2471 H   0  0  0  0  0  0  0  0  0  0  0  0
  1  2  1  0
  2  3  2  0
  3  4  1  0
  4  5  1  0
  4  6  2  0
  6  7  1  0
  7  8  2  0
  8  9  1  0
  9 10  1  0
  9 11  1  0
  9 12  1  0
 12 13  1  0
 12 14  1  0
 12 15  1  0
  8 16  1  0
 16 17  2  0
 17 18  1  0
 17 19  1  0
 19 20  1  0
  6 21  1  0
 21 22  1  0
 21 23  2  0
 23 24  1  0
 23  2  1  0
 19  7  1  0
M  END
>  <cnnaffinity>  (1) 
-4.94267

>  <filename>  (1) 
FC(F)(F)Cc1nc[nH]c1-c1cccnc1

$$$$
