
     RDKit          3D

 34 36  0  0  0  0  0  0  0  0999 V2000
    4.9348    1.8241   16.9795 H   0  0  0  0  0  0  0  0  0  0  0  0
    5.3910    1.2942   17.8148 C   0  0  0  0  0  0  0  0  0  0  0  0
    6.5520    0.6728   17.5638 N   0  0  0  0  0  0  0  0  0  0  0  0
    7.1536    0.0466   18.5834 C   0  0  0  0  0  0  0  0  0  0  0  0
    8.1080   -0.4234   18.3472 H   0  0  0  0  0  0  0  0  0  0  0  0
    6.6355   -0.0215   19.8899 C   0  0  0  0  0  0  0  0  0  0  0  0
    7.4321   -0.6981   21.0006 C   0  0  0  0  0  0  0  0  0  0  0  0
    7.7022   -1.7233   20.7310 H   0  0  0  0  0  0  0  0  0  0  0  0
    6.8564   -0.7303   21.9321 H   0  0  0  0  0  0  0  0  0  0  0  0
    8.7112   -0.0540   21.2960 N   0  0  0  0  0  0  0  0  0  0  0  0
    9.8497   -0.6091   20.8547 N   0  0  0  0  0  0  0  0  0  0  0  0
   10.8125    0.2182   21.2308 C   0  0  0  0  0  0  0  0  0  0  0  0
   11.8301   -0.0228   20.9654 H   0  0  0  0  0  0  0  0  0  0  0  0
   10.2940    1.3374   21.9078 C   0  0  0  0  0  0  0  0  0  0  0  0
   10.8024    2.2017   22.3163 H   0  0  0  0  0  0  0  0  0  0  0  0
    8.9392    1.1045   21.9717 C   0  0  0  0  0  0  0  0  0  0  0  0
    7.8491    1.9281   22.5545 C   0  0  0  0  0  0  0  0  0  0  0  0
    7.1966    2.7951   21.6755 C   0  0  0  0  0  0  0  0  0  0  0  0
    7.3941    2.6500   20.6269 H   0  0  0  0  0  0  0  0  0  0  0  0
    6.2449    3.7088   22.1196 C   0  0  0  0  0  0  0  0  0  0  0  0
    5.8182    4.4302   21.4216 H   0  0  0  0  0  0  0  0  0  0  0  0
    5.8604    3.6792   23.4600 C   0  0  0  0  0  0  0  0  0  0  0  0
    5.0914    4.3651   23.8013 H   0  0  0  0  0  0  0  0  0  0  0  0
    6.4351    2.7605   24.3390 C   0  0  0  0  0  0  0  0  0  0  0  0
    6.0815    2.7236   25.3649 H   0  0  0  0  0  0  0  0  0  0  0  0
    7.4448    1.8865   23.9035 C   0  0  0  0  0  0  0  0  0  0  0  0
    8.1154    0.8843   24.8213 C   0  0  0  0  0  0  0  0  0  0  0  0
    8.0136   -0.3717   24.3322 F   0  0  0  0  0  0  0  0  0  0  0  0
    9.4315    1.1500   24.9570 F   0  0  0  0  0  0  0  0  0  0  0  0
    7.5919    0.8633   26.0568 F   0  0  0  0  0  0  0  0  0  0  0  0
    5.4090    0.6141   20.1195 C   0  0  0  0  0  0  0  0  0  0  0  0
    4.9868    0.6420   21.1251 H   0  0  0  0  0  0  0  0  0  0  0  0
    4.7795    1.2953   19.0721 C   0  0  0  0  0  0  0  0  0  0  0  0
    3.8547    1.8471   19.2204 H   0  0  0  0  0  0  0  0  0  0  0  0
  1  2  1  0
  2  3  2  0
  3  4  1  0
  4  5  1  0
  4  6  2  0
  6  7  1  0
  7  8  1  0
  7  9  1  0
  7 10  1  0
 10 11  1  0
 11 12  2  0
 12 13  1  0
 12 14  1  0
 14 15  1  0
 14 16  2  0
 16 17  1  0
 17 18  2  0
 18 19  1  0
 18 20  1  0
 20 21  1  0
 20 22  2  0
 22 23  1  0
 22 24  1  0
 24 25  1  0
 24 26  2  0
 26 27  1  0
 27 28  1  0
 27 29  1  0
 27 30  1  0
  6 31  1  0
 31 32  1  0
 31 33  2  0
 33 34  1  0
 33  2  1  0
 16 10  1  0
 26 17  1  0
M  END
>  <cnnaffinity>  (1) 
-5.41384

>  <filename>  (1) 
FC(F)(F)c1ccccc1-c1ccnn1Cc1cccnc1

$$$$
