
     RDKit          3D

 29 30  0  0  0  0  0  0  0  0999 V2000
    4.9734    1.7955   16.8356 H   0  0  0  0  0  0  0  0  0  0  0  0
    5.4255    1.3148   17.7053 C   0  0  0  0  0  0  0  0  0  0  0  0
    6.5911    0.6881   17.5013 N   0  0  0  0  0  0  0  0  0  0  0  0
    7.1816    0.1093   18.5508 C   0  0  0  0  0  0  0  0  0  0  0  0
    8.1432   -0.3560   18.3525 H   0  0  0  0  0  0  0  0  0  0  0  0
    6.6375    0.0861   19.8393 C   0  0  0  0  0  0  0  0  0  0  0  0
    7.3195   -0.7198   20.9198 C   0  0  0  0  0  0  0  0  0  0  0  0
    8.6496   -0.8444   20.6225 F   0  0  0  0  0  0  0  0  0  0  0  0
    7.2592   -0.0289   22.0978 F   0  0  0  0  0  0  0  0  0  0  0  0
    6.6856   -2.1095   21.1135 C   0  0  0  0  0  0  0  0  0  0  0  0
    6.6043   -2.5833   20.1302 H   0  0  0  0  0  0  0  0  0  0  0  0
    5.6733   -1.9241   21.4805 H   0  0  0  0  0  0  0  0  0  0  0  0
    7.3617   -3.0163   22.0473 C   0  0  0  0  0  0  0  0  0  0  0  0
    7.8619   -3.7830   22.8319 C   0  0  0  0  0  0  0  0  0  0  0  0
    8.5754   -4.4943   23.8538 C   0  0  0  0  0  0  0  0  0  0  0  0
    8.0725   -5.6568   24.4674 C   0  0  0  0  0  0  0  0  0  0  0  0
    7.1257   -6.0745   24.1351 H   0  0  0  0  0  0  0  0  0  0  0  0
    8.7817   -6.2536   25.5141 C   0  0  0  0  0  0  0  0  0  0  0  0
    8.3947   -7.1512   25.9805 H   0  0  0  0  0  0  0  0  0  0  0  0
    9.9666   -5.6737   25.9789 C   0  0  0  0  0  0  0  0  0  0  0  0
   10.5017   -6.0822   26.8322 H   0  0  0  0  0  0  0  0  0  0  0  0
   10.4795   -4.5379   25.3500 C   0  0  0  0  0  0  0  0  0  0  0  0
   11.4042   -4.1177   25.7099 H   0  0  0  0  0  0  0  0  0  0  0  0
    9.8029   -3.9524   24.2800 C   0  0  0  0  0  0  0  0  0  0  0  0
   10.1992   -3.0701   23.7810 H   0  0  0  0  0  0  0  0  0  0  0  0
    5.4269    0.7615   20.0488 C   0  0  0  0  0  0  0  0  0  0  0  0
    4.9708    0.8190   21.0363 H   0  0  0  0  0  0  0  0  0  0  0  0
    4.8101    1.3734   18.9567 C   0  0  0  0  0  0  0  0  0  0  0  0
    3.8833    1.9198   19.0648 H   0  0  0  0  0  0  0  0  0  0  0  0
  1  2  1  0
  2  3  2  0
  3  4  1  0
  4  5  1  0
  4  6  2  0
  6  7  1  0
  7  8  1  0
  7  9  1  0
  7 10  1  0
 10 11  1  0
 10 12  1  0
 10 13  1  0
 13 14  3  0
 14 15  1  0
 15 16  2  0
 16 17  1  0
 16 18  1  0
 18 19  1  0
 18 20  2  0
 20 21  1  0
 20 22  1  0
 22 23  1  0
 22 24  2  0
 24 25  1  0
  6 26  1  0
 26 27  1  0
 26 28  2  0
 28 29  1  0
 28  2  1  0
 24 15  1  0
M  END
>  <cnnaffinity>  (1) 
-4.87319

>  <filename>  (1) 
FC(F)(CC#Cc1ccccc1)c1cccnc1

$$$$
