
     RDKit          3D

 31 33  0  0  0  0  0  0  0  0999 V2000
    4.9441    1.8111   16.9534 H   0  0  0  0  0  0  0  0  0  0  0  0
    5.4071    1.3179   17.8132 C   0  0  0  0  0  0  0  0  0  0  0  0
    6.5805    0.7023   17.5936 N   0  0  0  0  0  0  0  0  0  0  0  0
    7.1577    0.0848   18.6341 C   0  0  0  0  0  0  0  0  0  0  0  0
    8.1116   -0.3950   18.4235 H   0  0  0  0  0  0  0  0  0  0  0  0
    6.6250    0.0277   19.9437 C   0  0  0  0  0  0  0  0  0  0  0  0
    7.3064   -0.7130   21.0433 C   0  0  0  0  0  0  0  0  0  0  0  0
    7.7784   -2.0052   21.1333 C   0  0  0  0  0  0  0  0  0  0  0  0
    7.7362   -2.8200   20.4371 H   0  0  0  0  0  0  0  0  0  0  0  0
    8.2854   -2.2292   22.3667 N   0  0  0  0  0  0  0  0  0  0  0  0
    8.1418   -1.1625   23.0768 N   0  0  0  0  0  0  0  0  0  0  0  0
    7.5436   -0.2273   22.3116 N   0  0  0  0  0  0  0  0  0  0  0  0
    7.2202    1.0230   22.9215 C   0  0  0  0  0  0  0  0  0  0  0  0
    7.4446    2.2351   22.2617 C   0  0  0  0  0  0  0  0  0  0  0  0
    7.8503    2.2455   21.2532 H   0  0  0  0  0  0  0  0  0  0  0  0
    7.0883    3.4261   22.9053 C   0  0  0  0  0  0  0  0  0  0  0  0
    7.2482    4.3727   22.3975 H   0  0  0  0  0  0  0  0  0  0  0  0
    6.5272    3.4122   24.1864 C   0  0  0  0  0  0  0  0  0  0  0  0
    6.2395    4.3155   24.7133 H   0  0  0  0  0  0  0  0  0  0  0  0
    6.3164    2.1886   24.8212 C   0  0  0  0  0  0  0  0  0  0  0  0
    5.7590    2.2850   26.0952 O   0  0  0  0  0  0  0  0  0  0  0  0
    5.5137    1.1839   26.8352 C   0  0  0  0  0  0  0  0  0  0  0  0
    6.6194    0.4560   27.0687 F   0  0  0  0  0  0  0  0  0  0  0  0
    5.0245    1.5978   27.9960 F   0  0  0  0  0  0  0  0  0  0  0  0
    4.6179    0.3636   26.2607 F   0  0  0  0  0  0  0  0  0  0  0  0
    6.6605    0.9919   24.2061 C   0  0  0  0  0  0  0  0  0  0  0  0
    6.5192    0.0335   24.6918 H   0  0  0  0  0  0  0  0  0  0  0  0
    5.3993    0.6853   20.1435 C   0  0  0  0  0  0  0  0  0  0  0  0
    4.9582    0.7126   21.1417 H   0  0  0  0  0  0  0  0  0  0  0  0
    4.7871    1.3299   19.0650 C   0  0  0  0  0  0  0  0  0  0  0  0
    3.8406    1.8411   19.1796 H   0  0  0  0  0  0  0  0  0  0  0  0
  1  2  1  0
  2  3  2  0
  3  4  1  0
  4  5  1  0
  4  6  2  0
  6  7  1  0
  7  8  2  0
  8  9  1  0
  8 10  1  0
 10 11  2  0
 11 12  1  0
 12 13  1  0
 13 14  2  0
 14 15  1  0
 14 16  1  0
 16 17  1  0
 16 18  2  0
 18 19  1  0
 18 20  1  0
 20 21  1  0
 21 22  1  0
 22 23  1  0
 22 24  1  0
 22 25  1  0
 20 26  2  0
 26 27  1  0
  6 28  1  0
 28 29  1  0
 28 30  2  0
 30 31  1  0
 30  2  1  0
 12  7  1  0
 26 13  1  0
M  END
>  <cnnaffinity>  (1) 
-5.11122

>  <filename>  (1) 
FC(F)(F)Oc1cccc(-n2nncc2-c2cccnc2)c1

$$$$
