
     RDKit          3D

 21 22  0  0  0  0  0  0  0  0999 V2000
    5.0583    1.8046   17.0105 H   0  0  0  0  0  0  0  0  0  0  0  0
    5.4601    1.2719   17.8653 C   0  0  0  0  0  0  0  0  0  0  0  0
    6.6113    0.6116   17.6781 N   0  0  0  0  0  0  0  0  0  0  0  0
    7.1225   -0.0286   18.7352 C   0  0  0  0  0  0  0  0  0  0  0  0
    8.0713   -0.5398   18.5700 H   0  0  0  0  0  0  0  0  0  0  0  0
    6.5031   -0.0691   19.9950 C   0  0  0  0  0  0  0  0  0  0  0  0
    7.1552   -0.8187   21.0849 C   0  0  0  0  0  0  0  0  0  0  0  0
    6.4607   -1.6084   21.8628 N   0  0  0  0  0  0  0  0  0  0  0  0
    7.3377   -2.1607   22.7591 O   0  0  0  0  0  0  0  0  0  0  0  0
    8.5641   -1.6973   22.5183 C   0  0  0  0  0  0  0  0  0  0  0  0
    9.3503   -2.1165   23.1357 H   0  0  0  0  0  0  0  0  0  0  0  0
    8.5466   -0.8110   21.4856 C   0  0  0  0  0  0  0  0  0  0  0  0
    9.9586   -0.0022   20.8189 S   0  0  0  0  0  0  0  0  0  0  0  0
    9.9665    1.7323   21.4813 C   0  0  0  0  0  0  0  0  0  0  0  0
    8.8227    2.3556   21.2180 F   0  0  0  0  0  0  0  0  0  0  0  0
   10.1811    1.7342   22.7912 F   0  0  0  0  0  0  0  0  0  0  0  0
   10.9700    2.3383   20.8538 F   0  0  0  0  0  0  0  0  0  0  0  0
    5.2941    0.6233   20.1747 C   0  0  0  0  0  0  0  0  0  0  0  0
    4.8035    0.6523   21.1522 H   0  0  0  0  0  0  0  0  0  0  0  0
    4.7741    1.3107   19.0835 C   0  0  0  0  0  0  0  0  0  0  0  0
    3.8679    1.8966   19.1772 H   0  0  0  0  0  0  0  0  0  0  0  0
  1  2  1  0
  2  3  2  0
  3  4  1  0
  4  5  1  0
  4  6  2  0
  6  7  1  0
  7  8  2  0
  8  9  1  0
  9 10  1  0
 10 11  1  0
 10 12  2  0
 12 13  1  0
 13 14  1  0
 14 15  1  0
 14 16  1  0
 14 17  1  0
  6 18  1  0
 18 19  1  0
 18 20  2  0
 20 21  1  0
 20  2  1  0
 12  7  1  0
M  END
>  <cnnaffinity>  (1) 
-4.89322

>  <filename>  (1) 
FC(F)(F)Sc1conc1-c1cccnc1

$$$$
