
     RDKit          3D

 39 42  0  0  0  0  0  0  0  0999 V2000
   12.3479   -2.3491   22.4176 F   0  0  0  0  0  0  0  0  0  0  0  0
   11.3019   -1.5148   22.2863 C   0  0  0  0  0  0  0  0  0  0  0  0
   11.5008   -0.8110   21.1728 F   0  0  0  0  0  0  0  0  0  0  0  0
   11.3364   -0.6584   23.3289 F   0  0  0  0  0  0  0  0  0  0  0  0
   10.0391   -2.3611   22.2500 C   0  0  0  0  0  0  0  0  0  0  0  0
    8.8137   -1.6036   22.1135 N   0  0  0  0  0  0  0  0  0  0  0  0
    8.5432   -1.0907   20.8909 N   0  0  0  0  0  0  0  0  0  0  0  0
    7.3161   -0.6148   21.0290 C   0  0  0  0  0  0  0  0  0  0  0  0
    6.5886    0.0470   19.9423 C   0  0  0  0  0  0  0  0  0  0  0  0
    5.3533    0.6982   20.1172 C   0  0  0  0  0  0  0  0  0  0  0  0
    4.7909    1.3365   19.0130 C   0  0  0  0  0  0  0  0  0  0  0  0
    5.4554    1.2803   17.7839 C   0  0  0  0  0  0  0  0  0  0  0  0
    6.6128    0.6304   17.5999 N   0  0  0  0  0  0  0  0  0  0  0  0
    7.1609    0.0311   18.6607 C   0  0  0  0  0  0  0  0  0  0  0  0
    8.0994   -0.4959   18.4875 H   0  0  0  0  0  0  0  0  0  0  0  0
    5.0412    1.7750   16.9083 H   0  0  0  0  0  0  0  0  0  0  0  0
    3.8587    1.8823   19.0885 H   0  0  0  0  0  0  0  0  0  0  0  0
    4.8518    0.7011   21.0874 H   0  0  0  0  0  0  0  0  0  0  0  0
    6.7852   -0.8033   22.2613 N   0  0  0  0  0  0  0  0  0  0  0  0
    7.7395   -1.4214   22.9193 C   0  0  0  0  0  0  0  0  0  0  0  0
    7.7080   -1.8488   24.3539 C   0  0  0  0  0  0  0  0  0  0  0  0
    8.7920   -1.1473   25.2344 C   0  0  0  0  0  0  0  0  0  0  0  0
    8.9135   -1.7689   26.6373 C   0  0  0  0  0  0  0  0  0  0  0  0
    9.1752   -3.2885   26.5888 C   0  0  0  0  0  0  0  0  0  0  0  0
    8.3568   -3.9719   25.5366 C   0  0  0  0  0  0  0  0  0  0  0  0
    7.7929   -3.3471   24.4675 C   0  0  0  0  0  0  0  0  0  0  0  0
    7.2351   -4.1635   23.5181 N   0  0  0  0  0  0  0  0  0  0  0  0
    7.3579   -5.4028   23.8694 C   0  0  0  0  0  0  0  0  0  0  0  0
    8.1488   -5.6773   25.3820 S   0  0  0  0  0  0  0  0  0  0  0  0
    6.9990   -6.2378   23.2824 H   0  0  0  0  0  0  0  0  0  0  0  0
    9.0085   -3.7446   27.5689 H   0  0  0  0  0  0  0  0  0  0  0  0
   10.2248   -3.5023   26.3477 H   0  0  0  0  0  0  0  0  0  0  0  0
    9.7283   -1.2623   27.1772 H   0  0  0  0  0  0  0  0  0  0  0  0
    7.9996   -1.5816   27.2158 H   0  0  0  0  0  0  0  0  0  0  0  0
    9.7762   -1.2068   24.7600 H   0  0  0  0  0  0  0  0  0  0  0  0
    8.5548   -0.0803   25.3161 H   0  0  0  0  0  0  0  0  0  0  0  0
    6.7073   -1.5582   24.7055 H   0  0  0  0  0  0  0  0  0  0  0  0
   10.0084   -3.0272   23.1128 H   0  0  0  0  0  0  0  0  0  0  0  0
   10.1068   -2.9577   21.3474 H   0  0  0  0  0  0  0  0  0  0  0  0
  1  2  1  0
  2  3  1  0
  2  4  1  0
  2  5  1  0
  5  6  1  0
  6  7  1  0
  7  8  2  0
  8  9  1  0
  9 10  2  0
 10 11  1  0
 11 12  2  0
 12 13  1  0
 13 14  2  0
 14 15  1  0
 12 16  1  0
 11 17  1  0
 10 18  1  0
  8 19  1  0
 19 20  2  0
 20 21  1  0
 21 22  1  0
 22 23  1  0
 23 24  1  0
 24 25  1  0
 25 26  2  0
 26 27  1  0
 27 28  2  0
 28 29  1  0
 28 30  1  0
 24 31  1  0
 24 32  1  0
 23 33  1  0
 23 34  1  0
 22 35  1  0
 22 36  1  0
 21 37  1  0
  5 38  1  0
  5 39  1  0
 20  6  1  0
 26 21  1  0
 14  9  1  0
 29 25  1  0
M  END
>  <cnnaffinity>  (1) 
-6.19183

>  <filename>  (1) 
FC(F)(F)Cn1nc(-c2cccnc2)nc1C1CCCc2scnc21

$$$$
