
     RDKit          3D

 38 41  0  0  0  0  0  0  0  0999 V2000
   12.2616   -2.2547   22.3840 F   0  0  0  0  0  0  0  0  0  0  0  0
   11.2353   -1.4111   22.0944 C   0  0  0  0  0  0  0  0  0  0  0  0
   11.2574   -0.4197   23.0331 F   0  0  0  0  0  0  0  0  0  0  0  0
    9.9665   -2.2377   22.1838 C   0  0  0  0  0  0  0  0  0  0  0  0
    8.7620   -1.4554   21.9919 N   0  0  0  0  0  0  0  0  0  0  0  0
    8.4964   -0.9922   20.7515 N   0  0  0  0  0  0  0  0  0  0  0  0
    7.2820   -0.4860   20.8763 C   0  0  0  0  0  0  0  0  0  0  0  0
    6.5526    0.1539   19.7790 C   0  0  0  0  0  0  0  0  0  0  0  0
    5.3148    0.7978   19.9523 C   0  0  0  0  0  0  0  0  0  0  0  0
    4.7395    1.4197   18.8440 C   0  0  0  0  0  0  0  0  0  0  0  0
    5.4032    1.3582   17.6133 C   0  0  0  0  0  0  0  0  0  0  0  0
    6.5566    0.7011   17.4286 N   0  0  0  0  0  0  0  0  0  0  0  0
    7.1108    0.1126   18.4924 C   0  0  0  0  0  0  0  0  0  0  0  0
    8.0372   -0.4298   18.3110 H   0  0  0  0  0  0  0  0  0  0  0  0
    4.9878    1.8478   16.7346 H   0  0  0  0  0  0  0  0  0  0  0  0
    3.7958    1.9487   18.9123 H   0  0  0  0  0  0  0  0  0  0  0  0
    4.8143    0.8012   20.9239 H   0  0  0  0  0  0  0  0  0  0  0  0
    6.7442   -0.6210   22.1125 N   0  0  0  0  0  0  0  0  0  0  0  0
    7.6894   -1.2383   22.8048 C   0  0  0  0  0  0  0  0  0  0  0  0
    7.7269   -1.6599   24.2316 C   0  0  0  0  0  0  0  0  0  0  0  0
    8.8005   -1.2622   25.0202 C   0  0  0  0  0  0  0  0  0  0  0  0
    8.9672   -1.7334   26.3482 C   0  0  0  0  0  0  0  0  0  0  0  0
    8.0263   -2.5683   26.9084 C   0  0  0  0  0  0  0  0  0  0  0  0
    6.8573   -2.9179   26.1870 C   0  0  0  0  0  0  0  0  0  0  0  0
    5.8146   -3.6916   26.7707 C   0  0  0  0  0  0  0  0  0  0  0  0
    4.7719   -4.1130   25.9867 C   0  0  0  0  0  0  0  0  0  0  0  0
    4.6530   -3.8210   24.6674 N   0  0  0  0  0  0  0  0  0  0  0  0
    5.5845   -3.0557   24.1257 C   0  0  0  0  0  0  0  0  0  0  0  0
    6.7188   -2.5189   24.8212 C   0  0  0  0  0  0  0  0  0  0  0  0
    5.4886   -2.8290   23.0671 H   0  0  0  0  0  0  0  0  0  0  0  0
    3.9804   -4.7379   26.3953 H   0  0  0  0  0  0  0  0  0  0  0  0
    5.8544   -3.9514   27.8242 H   0  0  0  0  0  0  0  0  0  0  0  0
    8.1610   -3.0005   27.8909 H   0  0  0  0  0  0  0  0  0  0  0  0
    9.8391   -1.4442   26.9240 H   0  0  0  0  0  0  0  0  0  0  0  0
    9.5517   -0.5833   24.6218 H   0  0  0  0  0  0  0  0  0  0  0  0
    9.9463   -2.7590   23.1437 H   0  0  0  0  0  0  0  0  0  0  0  0
   10.0063   -2.9740   21.3831 H   0  0  0  0  0  0  0  0  0  0  0  0
   11.4040   -0.9863   21.0984 H   0  0  0  0  0  0  0  0  0  0  0  0
  1  2  1  0
  2  3  1  0
  2  4  1  0
  4  5  1  0
  5  6  1  0
  6  7  2  0
  7  8  1  0
  8  9  2  0
  9 10  1  0
 10 11  2  0
 11 12  1  0
 12 13  2  0
 13 14  1  0
 11 15  1  0
 10 16  1  0
  9 17  1  0
  7 18  1  0
 18 19  2  0
 19 20  1  0
 20 21  2  0
 21 22  1  0
 22 23  2  0
 23 24  1  0
 24 25  2  0
 25 26  1  0
 26 27  2  0
 27 28  1  0
 28 29  2  0
 28 30  1  0
 26 31  1  0
 25 32  1  0
 23 33  1  0
 22 34  1  0
 21 35  1  0
  4 36  1  0
  4 37  1  0
  2 38  1  0
 19  5  1  0
 29 20  1  0
 13  8  1  0
 29 24  1  0
M  END
>  <cnnaffinity>  (1) 
-5.74957

>  <filename>  (1) 
FC(F)Cn1nc(-c2cccnc2)nc1-c1cccc2ccncc12

$$$$
