
     RDKit          3D

 30 32  0  0  0  0  0  0  0  0999 V2000
    9.0381   -2.7301   23.6770 H   0  0  0  0  0  0  0  0  0  0  0  0
    8.5385   -2.1295   22.9163 C   0  0  0  0  0  0  0  0  0  0  0  0
    8.0016   -2.7686   21.8710 N   0  0  0  0  0  0  0  0  0  0  0  0
    7.4276   -1.9897   20.9609 C   0  0  0  0  0  0  0  0  0  0  0  0
    6.9872   -2.4944   20.1002 H   0  0  0  0  0  0  0  0  0  0  0  0
    7.3455   -0.5895   21.0331 C   0  0  0  0  0  0  0  0  0  0  0  0
    6.6635    0.1225   19.8974 C   0  0  0  0  0  0  0  0  0  0  0  0
    7.1601    0.1184   18.5705 C   0  0  0  0  0  0  0  0  0  0  0  0
    8.0866   -0.4064   18.3334 H   0  0  0  0  0  0  0  0  0  0  0  0
    6.5562    0.7138   17.5335 N   0  0  0  0  0  0  0  0  0  0  0  0
    5.3885    1.3313   17.7757 C   0  0  0  0  0  0  0  0  0  0  0  0
    4.9082    1.8145   16.9254 H   0  0  0  0  0  0  0  0  0  0  0  0
    4.7794    1.3495   19.0313 C   0  0  0  0  0  0  0  0  0  0  0  0
    3.8182    1.8294   19.1555 H   0  0  0  0  0  0  0  0  0  0  0  0
    5.4222    0.7319   20.1060 C   0  0  0  0  0  0  0  0  0  0  0  0
    4.9727    0.7006   21.0994 H   0  0  0  0  0  0  0  0  0  0  0  0
    7.8665   -0.0211   22.2379 C   0  0  0  0  0  0  0  0  0  0  0  0
    7.7755    1.4911   22.6001 C   0  0  0  0  0  0  0  0  0  0  0  0
    7.8974    2.3969   21.6130 N   0  0  0  0  0  0  0  0  0  0  0  0
    7.8481    3.6815   21.9762 C   0  0  0  0  0  0  0  0  0  0  0  0
    7.9762    4.4262   21.2034 H   0  0  0  0  0  0  0  0  0  0  0  0
    7.6580    4.1130   23.2824 C   0  0  0  0  0  0  0  0  0  0  0  0
    7.5704    5.1618   23.5271 H   0  0  0  0  0  0  0  0  0  0  0  0
    7.5969    3.1130   24.2541 C   0  0  0  0  0  0  0  0  0  0  0  0
    7.5480    3.5632   25.7494 C   0  0  0  0  0  0  0  0  0  0  0  0
    7.5360    2.5633   26.6290 F   0  0  0  0  0  0  0  0  0  0  0  0
    8.6097    4.3486   26.0445 F   0  0  0  0  0  0  0  0  0  0  0  0
    6.4596    4.3302   25.9756 F   0  0  0  0  0  0  0  0  0  0  0  0
    7.6249    1.8228   23.9035 N   0  0  0  0  0  0  0  0  0  0  0  0
    8.5007   -0.8192   23.1218 N   0  0  0  0  0  0  0  0  0  0  0  0
  1  2  1  0
  2  3  2  0
  3  4  1  0
  4  5  1  0
  4  6  2  0
  6  7  1  0
  7  8  2  0
  8  9  1  0
  8 10  1  0
 10 11  2  0
 11 12  1  0
 11 13  1  0
 13 14  1  0
 13 15  2  0
 15 16  1  0
  6 17  1  0
 17 18  1  0
 18 19  2  0
 19 20  1  0
 20 21  1  0
 20 22  2  0
 22 23  1  0
 22 24  1  0
 24 25  1  0
 25 26  1  0
 25 27  1  0
 25 28  1  0
 24 29  2  0
 17 30  2  0
 30  2  1  0
 15  7  1  0
 29 18  1  0
M  END
>  <cnnaffinity>  (1) 
-5.29693

>  <filename>  (1) 
FC(F)(F)c1ccnc(-c2ncncc2-c2cccnc2)n1

$$$$
