
     RDKit          3D

 21 22  0  0  0  0  0  0  0  0999 V2000
    6.1459   -0.4624   22.9174 H   0  0  0  0  0  0  0  0  0  0  0  0
    6.9861   -0.8376   22.3446 C   0  0  0  0  0  0  0  0  0  0  0  0
    7.9706   -1.5853   22.9510 N   0  0  0  0  0  0  0  0  0  0  0  0
    8.8177   -1.8175   22.0041 C   0  0  0  0  0  0  0  0  0  0  0  0
   10.3264   -2.6376   22.1629 S   0  0  0  0  0  0  0  0  0  0  0  0
   11.4114   -1.1714   22.3434 C   0  0  0  0  0  0  0  0  0  0  0  0
   11.2717   -0.6128   23.5417 F   0  0  0  0  0  0  0  0  0  0  0  0
   12.6705   -1.5915   22.1922 F   0  0  0  0  0  0  0  0  0  0  0  0
   11.1396   -0.2726   21.4090 F   0  0  0  0  0  0  0  0  0  0  0  0
    8.4758   -1.3120   20.8027 O   0  0  0  0  0  0  0  0  0  0  0  0
    7.2886   -0.6690   21.0245 C   0  0  0  0  0  0  0  0  0  0  0  0
    6.6479    0.0077   19.8949 C   0  0  0  0  0  0  0  0  0  0  0  0
    7.1863    0.0419   18.5885 C   0  0  0  0  0  0  0  0  0  0  0  0
    8.1329   -0.4384   18.3411 H   0  0  0  0  0  0  0  0  0  0  0  0
    6.5876    0.6619   17.5622 N   0  0  0  0  0  0  0  0  0  0  0  0
    5.4249    1.2933   17.8014 C   0  0  0  0  0  0  0  0  0  0  0  0
    4.9685    1.8063   16.9540 H   0  0  0  0  0  0  0  0  0  0  0  0
    4.8044    1.3200   19.0494 C   0  0  0  0  0  0  0  0  0  0  0  0
    3.8672    1.8546   19.1887 H   0  0  0  0  0  0  0  0  0  0  0  0
    5.4299    0.6709   20.1106 C   0  0  0  0  0  0  0  0  0  0  0  0
    4.9818    0.6818   21.1002 H   0  0  0  0  0  0  0  0  0  0  0  0
  1  2  1  0
  2  3  1  0
  3  4  2  0
  4  5  1  0
  5  6  1  0
  6  7  1  0
  6  8  1  0
  6  9  1  0
  4 10  1  0
 10 11  1  0
 11 12  1  0
 12 13  2  0
 13 14  1  0
 13 15  1  0
 15 16  2  0
 16 17  1  0
 16 18  1  0
 18 19  1  0
 18 20  2  0
 20 21  1  0
 11  2  2  0
 20 12  1  0
M  END
>  <cnnaffinity>  (1) 
-4.79858

>  <filename>  (1) 
FC(F)(F)Sc1ncc(-c2cccnc2)o1

$$$$
