
     RDKit          3D

 35 38  0  0  0  0  0  0  0  0999 V2000
   11.0870   -0.6951   23.6006 F   0  0  0  0  0  0  0  0  0  0  0  0
   11.1926   -1.2889   22.3999 C   0  0  0  0  0  0  0  0  0  0  0  0
   11.2215   -0.3298   21.4685 F   0  0  0  0  0  0  0  0  0  0  0  0
   12.3737   -1.9351   22.3570 F   0  0  0  0  0  0  0  0  0  0  0  0
   10.0948   -2.3238   22.1774 C   0  0  0  0  0  0  0  0  0  0  0  0
    8.7604   -1.7840   21.9877 N   0  0  0  0  0  0  0  0  0  0  0  0
    8.4672   -1.3359   20.7446 N   0  0  0  0  0  0  0  0  0  0  0  0
    7.3573   -0.6558   20.9330 C   0  0  0  0  0  0  0  0  0  0  0  0
    6.6481    0.0190   19.8622 C   0  0  0  0  0  0  0  0  0  0  0  0
    5.4328    0.6620   20.1168 C   0  0  0  0  0  0  0  0  0  0  0  0
    4.8072    1.3115   19.0626 C   0  0  0  0  0  0  0  0  0  0  0  0
    5.4203    1.2916   17.8045 C   0  0  0  0  0  0  0  0  0  0  0  0
    6.5817    0.6660   17.5512 N   0  0  0  0  0  0  0  0  0  0  0  0
    7.1862    0.0452   18.5690 C   0  0  0  0  0  0  0  0  0  0  0  0
    8.1366   -0.4441   18.3458 H   0  0  0  0  0  0  0  0  0  0  0  0
    4.9530    1.8034   16.9681 H   0  0  0  0  0  0  0  0  0  0  0  0
    3.8757    1.8410   19.2168 H   0  0  0  0  0  0  0  0  0  0  0  0
    5.0256    0.6445   21.1301 H   0  0  0  0  0  0  0  0  0  0  0  0
    6.9295   -0.6048   22.2175 N   0  0  0  0  0  0  0  0  0  0  0  0
    7.8116   -1.3397   22.8640 C   0  0  0  0  0  0  0  0  0  0  0  0
    7.7869   -1.7500   24.2698 C   0  0  0  0  0  0  0  0  0  0  0  0
    7.6310   -0.9048   25.3401 C   0  0  0  0  0  0  0  0  0  0  0  0
    7.6499   -1.6325   26.5015 N   0  0  0  0  0  0  0  0  0  0  0  0
    7.7802   -2.9528   26.2271 C   0  0  0  0  0  0  0  0  0  0  0  0
    7.7756   -3.9201   27.1423 N   0  0  0  0  0  0  0  0  0  0  0  0
    7.8699   -5.1295   26.6052 C   0  0  0  0  0  0  0  0  0  0  0  0
    7.9782   -5.4480   25.3027 N   0  0  0  0  0  0  0  0  0  0  0  0
    7.9911   -4.4380   24.4332 C   0  0  0  0  0  0  0  0  0  0  0  0
    7.8838   -3.0983   24.8332 C   0  0  0  0  0  0  0  0  0  0  0  0
    8.0819   -4.7179   23.3792 H   0  0  0  0  0  0  0  0  0  0  0  0
    7.8429   -5.9614   27.3073 H   0  0  0  0  0  0  0  0  0  0  0  0
    7.5055   -1.3321   27.4467 H   0  0  0  0  0  0  0  0  0  0  0  0
    7.5365    0.1781   25.3359 H   0  0  0  0  0  0  0  0  0  0  0  0
   10.3248   -2.8267   21.2446 H   0  0  0  0  0  0  0  0  0  0  0  0
   10.1276   -3.0378   23.0001 H   0  0  0  0  0  0  0  0  0  0  0  0
  1  2  1  0
  2  3  1  0
  2  4  1  0
  2  5  1  0
  5  6  1  0
  6  7  1  0
  7  8  2  0
  8  9  1  0
  9 10  2  0
 10 11  1  0
 11 12  2  0
 12 13  1  0
 13 14  2  0
 14 15  1  0
 12 16  1  0
 11 17  1  0
 10 18  1  0
  8 19  1  0
 19 20  2  0
 20 21  1  0
 21 22  2  0
 22 23  1  0
 23 24  1  0
 24 25  2  0
 25 26  1  0
 26 27  2  0
 27 28  1  0
 28 29  2  0
 28 30  1  0
 26 31  1  0
 23 32  1  0
 22 33  1  0
  5 34  1  0
  5 35  1  0
 20  6  1  0
 29 21  1  0
 14  9  1  0
 29 24  1  0
M  END
>  <cnnaffinity>  (1) 
-6.12476

>  <filename>  (1) 
FC(F)(F)Cn1nc(-c2cccnc2)nc1-c1c[nH]c2ncncc12

$$$$
