
     RDKit          3D

 30 31  0  0  0  0  0  0  0  0999 V2000
    4.8897    1.8104   17.0147 H   0  0  0  0  0  0  0  0  0  0  0  0
    5.4011    1.2969   17.8239 C   0  0  0  0  0  0  0  0  0  0  0  0
    6.5689    0.6792   17.5711 N   0  0  0  0  0  0  0  0  0  0  0  0
    7.1891    0.0652   18.6000 C   0  0  0  0  0  0  0  0  0  0  0  0
    8.1335   -0.4361   18.4010 H   0  0  0  0  0  0  0  0  0  0  0  0
    6.6694    0.0279   19.9077 C   0  0  0  0  0  0  0  0  0  0  0  0
    7.3730   -0.7157   21.0290 C   0  0  0  0  0  0  0  0  0  0  0  0
    7.9100   -1.5734   20.6090 H   0  0  0  0  0  0  0  0  0  0  0  0
    6.6262   -1.1103   21.7246 H   0  0  0  0  0  0  0  0  0  0  0  0
    8.3642    0.1450   21.8363 C   0  0  1  0  0  0  0  0  0  0  0  0
    8.7696   -0.4628   22.6559 H   0  0  0  0  0  0  0  0  0  0  0  0
    9.8478    0.7207   20.6882 Br  0  0  0  0  0  0  0  0  0  0  0  0
    7.7415    1.4003   22.4024 C   0  0  0  0  0  0  0  0  0  0  0  0
    7.5560    2.5121   21.5715 C   0  0  0  0  0  0  0  0  0  0  0  0
    7.8778    2.4246   20.5389 H   0  0  0  0  0  0  0  0  0  0  0  0
    6.9998    3.6986   22.0617 C   0  0  0  0  0  0  0  0  0  0  0  0
    6.8510    4.5602   21.4168 H   0  0  0  0  0  0  0  0  0  0  0  0
    6.6279    3.7715   23.4037 C   0  0  0  0  0  0  0  0  0  0  0  0
    6.1790    4.6753   23.8002 H   0  0  0  0  0  0  0  0  0  0  0  0
    6.8267    2.6760   24.2433 C   0  0  0  0  0  0  0  0  0  0  0  0
    6.5329    2.7437   25.2861 H   0  0  0  0  0  0  0  0  0  0  0  0
    7.3894    1.4800   23.7609 C   0  0  0  0  0  0  0  0  0  0  0  0
    7.6363    0.3001   24.6833 C   0  0  0  0  0  0  0  0  0  0  0  0
    7.0735    0.5262   25.9031 F   0  0  0  0  0  0  0  0  0  0  0  0
    7.0890   -0.8273   24.1478 F   0  0  0  0  0  0  0  0  0  0  0  0
    8.9774    0.1086   24.8442 F   0  0  0  0  0  0  0  0  0  0  0  0
    5.4557    0.6656   20.1587 C   0  0  0  0  0  0  0  0  0  0  0  0
    5.0197    0.6459   21.1554 H   0  0  0  0  0  0  0  0  0  0  0  0
    4.8270    1.3072   19.0949 C   0  0  0  0  0  0  0  0  0  0  0  0
    3.8917    1.8210   19.2473 H   0  0  0  0  0  0  0  0  0  0  0  0
  1  2  1  0
  2  3  2  0
  3  4  1  0
  4  5  1  0
  4  6  2  0
  6  7  1  0
  7  8  1  0
  7  9  1  0
  7 10  1  0
 10 11  1  1
 10 12  1  0
 10 13  1  0
 13 14  2  0
 14 15  1  0
 14 16  1  0
 16 17  1  0
 16 18  2  0
 18 19  1  0
 18 20  1  0
 20 21  1  0
 20 22  2  0
 22 23  1  0
 23 24  1  0
 23 25  1  0
 23 26  1  0
  6 27  1  0
 27 28  1  0
 27 29  2  0
 29 30  1  0
 29  2  1  0
 22 13  1  0
M  END
>  <cnnaffinity>  (1) 
-5.14961

>  <filename>  (1) 
FC(F)(F)c1ccccc1[C@H](Br)Cc1cccnc1

$$$$
