
     RDKit          3D

 35 38  0  0  0  0  0  0  0  0999 V2000
   10.9774   -1.0180   23.7705 F   0  0  0  0  0  0  0  0  0  0  0  0
   11.1541   -1.4448   22.5102 C   0  0  0  0  0  0  0  0  0  0  0  0
   12.3319   -2.0913   22.4242 F   0  0  0  0  0  0  0  0  0  0  0  0
   11.2312   -0.3629   21.7301 F   0  0  0  0  0  0  0  0  0  0  0  0
   10.0549   -2.4242   22.1353 C   0  0  0  0  0  0  0  0  0  0  0  0
    8.7528   -1.8144   21.9569 N   0  0  0  0  0  0  0  0  0  0  0  0
    8.4944   -1.2938   20.7433 N   0  0  0  0  0  0  0  0  0  0  0  0
    7.3154   -0.7336   20.9012 C   0  0  0  0  0  0  0  0  0  0  0  0
    6.6422    0.0055   19.8549 C   0  0  0  0  0  0  0  0  0  0  0  0
    5.4387    0.6629   20.1216 C   0  0  0  0  0  0  0  0  0  0  0  0
    4.8130    1.3165   19.0695 C   0  0  0  0  0  0  0  0  0  0  0  0
    5.4252    1.2945   17.8101 C   0  0  0  0  0  0  0  0  0  0  0  0
    6.5889    0.6727   17.5528 N   0  0  0  0  0  0  0  0  0  0  0  0
    7.1925    0.0490   18.5681 C   0  0  0  0  0  0  0  0  0  0  0  0
    8.1459   -0.4394   18.3520 H   0  0  0  0  0  0  0  0  0  0  0  0
    4.9547    1.8046   16.9749 H   0  0  0  0  0  0  0  0  0  0  0  0
    3.8760    1.8387   19.2236 H   0  0  0  0  0  0  0  0  0  0  0  0
    5.0386    0.6326   21.1382 H   0  0  0  0  0  0  0  0  0  0  0  0
    6.7925   -0.8577   22.1400 N   0  0  0  0  0  0  0  0  0  0  0  0
    7.7227   -1.5272   22.7975 C   0  0  0  0  0  0  0  0  0  0  0  0
    7.7648   -1.8933   24.2231 C   0  0  0  0  0  0  0  0  0  0  0  0
    8.1200   -3.1003   24.6456 N   0  0  0  0  0  0  0  0  0  0  0  0
    7.9217   -3.0863   25.9782 N   0  0  0  0  0  0  0  0  0  0  0  0
    7.4478   -1.9082   26.4335 C   0  0  0  0  0  0  0  0  0  0  0  0
    7.3805   -1.0553   25.3238 C   0  0  0  0  0  0  0  0  0  0  0  0
    7.0474    0.2862   25.5914 C   0  0  0  0  0  0  0  0  0  0  0  0
    7.0844    1.4985   24.3685 Cl  0  0  0  0  0  0  0  0  0  0  0  0
    6.7091    0.6372   26.8911 C   0  0  0  0  0  0  0  0  0  0  0  0
    6.7474   -0.3577   27.8901 C   0  0  0  0  0  0  0  0  0  0  0  0
    7.1110   -1.6221   27.6912 N   0  0  0  0  0  0  0  0  0  0  0  0
    6.4778   -0.1083   28.9134 H   0  0  0  0  0  0  0  0  0  0  0  0
    6.4263    1.6518   27.1442 H   0  0  0  0  0  0  0  0  0  0  0  0
    8.0070   -3.9000   26.5577 H   0  0  0  0  0  0  0  0  0  0  0  0
   10.0120   -3.2180   22.8843 H   0  0  0  0  0  0  0  0  0  0  0  0
   10.3006   -2.8323   21.1637 H   0  0  0  0  0  0  0  0  0  0  0  0
  1  2  1  0
  2  3  1  0
  2  4  1  0
  2  5  1  0
  5  6  1  0
  6  7  1  0
  7  8  2  0
  8  9  1  0
  9 10  2  0
 10 11  1  0
 11 12  2  0
 12 13  1  0
 13 14  2  0
 14 15  1  0
 12 16  1  0
 11 17  1  0
 10 18  1  0
  8 19  1  0
 19 20  2  0
 20 21  1  0
 21 22  2  0
 22 23  1  0
 23 24  1  0
 24 25  2  0
 25 26  1  0
 26 27  1  0
 26 28  2  0
 28 29  1  0
 29 30  2  0
 29 31  1  0
 28 32  1  0
 23 33  1  0
  5 34  1  0
  5 35  1  0
 20  6  1  0
 25 21  1  0
 14  9  1  0
 30 24  1  0
M  END
>  <cnnaffinity>  (1) 
-6.17317

>  <filename>  (1) 
FC(F)(F)Cn1nc(-c2cccnc2)nc1-c1n[nH]c2nccc(Cl)c12

$$$$
