
     RDKit          3D

 42 45  0  0  0  0  0  0  0  0999 V2000
   11.4333   -0.5776   21.2656 F   0  0  0  0  0  0  0  0  0  0  0  0
   11.2309   -1.3932   22.2991 C   0  0  0  0  0  0  0  0  0  0  0  0
   11.2205   -0.6425   23.4218 F   0  0  0  0  0  0  0  0  0  0  0  0
   12.2931   -2.2163   22.3701 F   0  0  0  0  0  0  0  0  0  0  0  0
    9.9859   -2.2555   22.1549 C   0  0  0  0  0  0  0  0  0  0  0  0
    8.7436   -1.5047   22.0378 N   0  0  0  0  0  0  0  0  0  0  0  0
    8.5250   -0.9440   20.8186 N   0  0  0  0  0  0  0  0  0  0  0  0
    7.2626   -0.5643   20.8807 C   0  0  0  0  0  0  0  0  0  0  0  0
    6.5509    0.1078   19.8013 C   0  0  0  0  0  0  0  0  0  0  0  0
    5.3183    0.7599   19.9852 C   0  0  0  0  0  0  0  0  0  0  0  0
    4.7533    1.3975   18.8853 C   0  0  0  0  0  0  0  0  0  0  0  0
    5.4205    1.3437   17.6559 C   0  0  0  0  0  0  0  0  0  0  0  0
    6.5745    0.6886   17.4659 N   0  0  0  0  0  0  0  0  0  0  0  0
    7.1239    0.0881   18.5234 C   0  0  0  0  0  0  0  0  0  0  0  0
    8.0583   -0.4453   18.3461 H   0  0  0  0  0  0  0  0  0  0  0  0
    5.0108    1.8469   16.7848 H   0  0  0  0  0  0  0  0  0  0  0  0
    3.8200    1.9418   18.9634 H   0  0  0  0  0  0  0  0  0  0  0  0
    4.8211    0.7620   20.9594 H   0  0  0  0  0  0  0  0  0  0  0  0
    6.6527   -0.8539   22.0498 N   0  0  0  0  0  0  0  0  0  0  0  0
    7.5985   -1.4181   22.7688 C   0  0  0  0  0  0  0  0  0  0  0  0
    7.4134   -1.7620   24.2311 C   0  0  0  0  0  0  0  0  0  0  0  0
    8.1664   -0.7700   25.1760 C   0  0  0  0  0  0  0  0  0  0  0  0
    9.4183   -1.3790   25.8105 C   0  0  0  0  0  0  0  0  0  0  0  0
    9.0491   -2.6664   26.5640 C   0  0  0  0  0  0  0  0  0  0  0  0
    8.3925   -3.6786   25.6528 C   0  0  0  0  0  0  0  0  0  0  0  0
    8.6059   -4.9737   25.9303 N   0  0  0  0  0  0  0  0  0  0  0  0
    8.0832   -5.8872   25.1089 C   0  0  0  0  0  0  0  0  0  0  0  0
    7.3149   -5.5753   23.9807 C   0  0  0  0  0  0  0  0  0  0  0  0
    7.0793   -4.2284   23.7048 C   0  0  0  0  0  0  0  0  0  0  0  0
    7.6356   -3.2500   24.5426 C   0  0  0  0  0  0  0  0  0  0  0  0
    6.4634   -3.9228   22.8551 H   0  0  0  0  0  0  0  0  0  0  0  0
    6.9165   -6.3626   23.3485 H   0  0  0  0  0  0  0  0  0  0  0  0
    8.3010   -6.9144   25.3770 H   0  0  0  0  0  0  0  0  0  0  0  0
    9.9039   -3.1684   27.0160 H   0  0  0  0  0  0  0  0  0  0  0  0
    8.3710   -2.4322   27.3954 H   0  0  0  0  0  0  0  0  0  0  0  0
    9.9075   -0.6565   26.4749 H   0  0  0  0  0  0  0  0  0  0  0  0
   10.1460   -1.6122   25.0260 H   0  0  0  0  0  0  0  0  0  0  0  0
    7.4825   -0.4736   25.9823 H   0  0  0  0  0  0  0  0  0  0  0  0
    8.4120    0.1570   24.6398 H   0  0  0  0  0  0  0  0  0  0  0  0
    6.3409   -1.5785   24.3590 H   0  0  0  0  0  0  0  0  0  0  0  0
   10.1008   -2.7897   21.2111 H   0  0  0  0  0  0  0  0  0  0  0  0
    9.9430   -2.9750   22.9712 H   0  0  0  0  0  0  0  0  0  0  0  0
  1  2  1  0
  2  3  1  0
  2  4  1  0
  2  5  1  0
  5  6  1  0
  6  7  1  0
  7  8  2  0
  8  9  1  0
  9 10  2  0
 10 11  1  0
 11 12  2  0
 12 13  1  0
 13 14  2  0
 14 15  1  0
 12 16  1  0
 11 17  1  0
 10 18  1  0
  8 19  1  0
 19 20  2  0
 20 21  1  0
 21 22  1  0
 22 23  1  0
 23 24  1  0
 24 25  1  0
 25 26  2  0
 26 27  1  0
 27 28  2  0
 28 29  1  0
 29 30  2  0
 29 31  1  0
 28 32  1  0
 27 33  1  0
 24 34  1  0
 24 35  1  0
 23 36  1  0
 23 37  1  0
 22 38  1  0
 22 39  1  0
 21 40  1  0
  5 41  1  0
  5 42  1  0
 20  6  1  0
 30 21  1  0
 14  9  1  0
 30 25  1  0
M  END
>  <cnnaffinity>  (1) 
-6.08712

>  <filename>  (1) 
FC(F)(F)Cn1nc(-c2cccnc2)nc1C1CCCc2ncccc21

$$$$
