
     RDKit          3D

 39 42  0  0  0  0  0  0  0  0999 V2000
    6.4647    0.3152   25.0728 F   0  0  0  0  0  0  0  0  0  0  0  0
    7.4560   -0.5389   24.7160 C   0  0  0  0  0  0  0  0  0  0  0  0
    7.9470   -1.0887   25.8721 F   0  0  0  0  0  0  0  0  0  0  0  0
    6.9243   -1.6813   23.8557 C   0  0  0  0  0  0  0  0  0  0  0  0
    7.0094   -1.4213   22.4313 N   0  0  0  0  0  0  0  0  0  0  0  0
    6.1280   -0.5630   21.8616 N   0  0  0  0  0  0  0  0  0  0  0  0
    6.3981   -0.6635   20.5784 C   0  0  0  0  0  0  0  0  0  0  0  0
    5.8215    0.1478   19.5138 C   0  0  0  0  0  0  0  0  0  0  0  0
    4.7451    1.0334   19.6749 C   0  0  0  0  0  0  0  0  0  0  0  0
    4.4073    1.8407   18.5896 C   0  0  0  0  0  0  0  0  0  0  0  0
    5.1494    1.7395   17.4072 C   0  0  0  0  0  0  0  0  0  0  0  0
    6.1559    0.8703   17.2370 N   0  0  0  0  0  0  0  0  0  0  0  0
    6.4739    0.0959   18.2732 C   0  0  0  0  0  0  0  0  0  0  0  0
    7.3015   -0.5935   18.1202 H   0  0  0  0  0  0  0  0  0  0  0  0
    4.9283    2.3806   16.5566 H   0  0  0  0  0  0  0  0  0  0  0  0
    3.5940    2.5565   18.6410 H   0  0  0  0  0  0  0  0  0  0  0  0
    4.2149    1.0904   20.6272 H   0  0  0  0  0  0  0  0  0  0  0  0
    7.3904   -1.5447   20.2846 N   0  0  0  0  0  0  0  0  0  0  0  0
    7.7784   -1.9740   21.4587 C   0  0  0  0  0  0  0  0  0  0  0  0
    9.0549   -2.7182   21.7113 C   0  0  0  0  0  0  0  0  0  0  0  0
   10.0804   -1.8149   22.3357 C   0  0  0  0  0  0  0  0  0  0  0  0
   10.3522   -1.6316   23.6696 C   0  0  0  0  0  0  0  0  0  0  0  0
   11.2213   -0.5667   23.7217 N   0  0  0  0  0  0  0  0  0  0  0  0
   11.8106    0.0457   24.8018 C   0  0  0  0  0  0  0  0  0  0  0  0
   12.6809    1.0638   24.5884 C   0  0  0  0  0  0  0  0  0  0  0  0
   12.9322    1.5448   23.2561 C   0  0  0  0  0  0  0  0  0  0  0  0
   12.3138    0.9526   22.1887 C   0  0  0  0  0  0  0  0  0  0  0  0
   11.4580   -0.1784   22.4020 C   0  0  0  0  0  0  0  0  0  0  0  0
   10.7666   -0.9267   21.5588 N   0  0  0  0  0  0  0  0  0  0  0  0
   12.4015    1.3346   21.1829 H   0  0  0  0  0  0  0  0  0  0  0  0
   13.5777    2.4106   23.1113 H   0  0  0  0  0  0  0  0  0  0  0  0
   13.1549    1.4970   25.4435 H   0  0  0  0  0  0  0  0  0  0  0  0
   11.5340   -0.3421   25.7754 H   0  0  0  0  0  0  0  0  0  0  0  0
   10.0227   -2.1132   24.5803 H   0  0  0  0  0  0  0  0  0  0  0  0
    8.8775   -3.6104   22.3201 H   0  0  0  0  0  0  0  0  0  0  0  0
    9.4091   -3.0313   20.7291 H   0  0  0  0  0  0  0  0  0  0  0  0
    5.8784   -1.8567   24.1257 H   0  0  0  0  0  0  0  0  0  0  0  0
    7.5025   -2.5744   24.0994 H   0  0  0  0  0  0  0  0  0  0  0  0
    8.2572    0.0410   24.2472 H   0  0  0  0  0  0  0  0  0  0  0  0
  1  2  1  0
  2  3  1  0
  2  4  1  0
  4  5  1  0
  5  6  1  0
  6  7  2  0
  7  8  1  0
  8  9  2  0
  9 10  1  0
 10 11  2  0
 11 12  1  0
 12 13  2  0
 13 14  1  0
 11 15  1  0
 10 16  1  0
  9 17  1  0
  7 18  1  0
 18 19  2  0
 19 20  1  0
 20 21  1  0
 21 22  2  0
 22 23  1  0
 23 24  1  0
 24 25  2  0
 25 26  1  0
 26 27  2  0
 27 28  1  0
 28 29  2  0
 27 30  1  0
 26 31  1  0
 25 32  1  0
 24 33  1  0
 22 34  1  0
 20 35  1  0
 20 36  1  0
  4 37  1  0
  4 38  1  0
  2 39  1  0
 19  5  1  0
 29 21  1  0
 13  8  1  0
 28 23  1  0
M  END
>  <cnnaffinity>  (1) 
-5.72294

>  <filename>  (1) 
FC(F)Cn1nc(-c2cccnc2)nc1Cc1cn2ccccc2n1

$$$$
