
     RDKit          3D

 34 36  0  0  0  0  0  0  0  0999 V2000
    6.1544   -2.5771   21.0642 H   0  0  0  0  0  0  0  0  0  0  0  0
    6.6438   -1.8094   21.6597 C   0  0  0  0  0  0  0  0  0  0  0  0
    6.5074   -1.6596   22.9847 C   0  0  0  0  0  0  0  0  0  0  0  0
    5.6928   -2.5235   23.8800 C   0  0  0  0  0  0  0  0  0  0  0  0
    5.1184   -3.6053   23.3202 N   0  0  0  0  0  0  0  0  0  0  0  0
    4.2454   -4.3249   24.0388 C   0  0  0  0  0  0  0  0  0  0  0  0
    3.5466   -5.5337   23.3675 C   0  0  0  0  0  0  0  0  0  0  0  0
    3.8136   -5.6743   22.0676 F   0  0  0  0  0  0  0  0  0  0  0  0
    2.2019   -5.4563   23.4774 F   0  0  0  0  0  0  0  0  0  0  0  0
    3.9199   -6.6755   23.9833 F   0  0  0  0  0  0  0  0  0  0  0  0
    3.9557   -4.0383   25.3827 C   0  0  0  0  0  0  0  0  0  0  0  0
    3.2862   -4.6842   25.9368 H   0  0  0  0  0  0  0  0  0  0  0  0
    4.5578   -2.9244   25.9760 C   0  0  0  0  0  0  0  0  0  0  0  0
    4.3293   -2.6594   27.0076 H   0  0  0  0  0  0  0  0  0  0  0  0
    5.4195   -2.1382   25.2103 C   0  0  0  0  0  0  0  0  0  0  0  0
    5.8493   -1.2160   25.5945 H   0  0  0  0  0  0  0  0  0  0  0  0
    7.1107   -0.3333   23.4301 C   0  0  0  0  0  0  0  0  0  0  0  0
    6.3043    0.3492   23.7361 H   0  0  0  0  0  0  0  0  0  0  0  0
    7.7695   -0.4242   24.3064 H   0  0  0  0  0  0  0  0  0  0  0  0
    7.8434    0.1989   22.1705 C   0  0  0  0  0  0  0  0  0  0  0  0
    8.9256    0.1528   22.3249 H   0  0  0  0  0  0  0  0  0  0  0  0
    7.5928    1.2414   21.9442 H   0  0  0  0  0  0  0  0  0  0  0  0
    7.4327   -0.7267   20.9809 C   0  0  2  0  0  0  0  0  0  0  0  0
    8.3178   -1.1762   20.5074 H   0  0  0  0  0  0  0  0  0  0  0  0
    6.6652   -0.0126   19.8596 C   0  0  0  0  0  0  0  0  0  0  0  0
    7.1613    0.0572   18.5479 C   0  0  0  0  0  0  0  0  0  0  0  0
    8.1152   -0.4087   18.2932 H   0  0  0  0  0  0  0  0  0  0  0  0
    6.5502    0.6889   17.5362 N   0  0  0  0  0  0  0  0  0  0  0  0
    5.3901    1.3088   17.8048 C   0  0  0  0  0  0  0  0  0  0  0  0
    4.9164    1.8243   16.9685 H   0  0  0  0  0  0  0  0  0  0  0  0
    4.8032    1.3130   19.0730 C   0  0  0  0  0  0  0  0  0  0  0  0
    3.8713    1.8486   19.2328 H   0  0  0  0  0  0  0  0  0  0  0  0
    5.4518    0.6419   20.1107 C   0  0  0  0  0  0  0  0  0  0  0  0
    5.0309    0.6244   21.1185 H   0  0  0  0  0  0  0  0  0  0  0  0
  1  2  1  0
  2  3  2  0
  3  4  1  0
  4  5  2  0
  5  6  1  0
  6  7  1  0
  7  8  1  0
  7  9  1  0
  7 10  1  0
  6 11  2  0
 11 12  1  0
 11 13  1  0
 13 14  1  0
 13 15  2  0
 15 16  1  0
  3 17  1  0
 17 18  1  0
 17 19  1  0
 17 20  1  0
 20 21  1  0
 20 22  1  0
 20 23  1  0
 23 24  1  6
 23 25  1  0
 25 26  2  0
 26 27  1  0
 26 28  1  0
 28 29  2  0
 29 30  1  0
 29 31  1  0
 31 32  1  0
 31 33  2  0
 33 34  1  0
 23  2  1  0
 33 25  1  0
 15  4  1  0
M  END
>  <cnnaffinity>  (1) 
-5.44514

>  <filename>  (1) 
FC(F)(F)c1cccc(C2=C[C@@H](c3cccnc3)CC2)n1

$$$$
