
     RDKit          3D

 28 30  0  0  0  0  0  0  0  0999 V2000
    7.1418   -4.2691   23.5935 F   0  0  0  0  0  0  0  0  0  0  0  0
    8.0723   -3.6768   24.3601 C   0  0  0  0  0  0  0  0  0  0  0  0
    7.4568   -2.7658   25.1230 F   0  0  0  0  0  0  0  0  0  0  0  0
    8.5464   -4.6296   25.1889 F   0  0  0  0  0  0  0  0  0  0  0  0
    9.2048   -3.0442   23.5180 C   0  0  0  0  0  0  0  0  0  0  0  0
   10.5019   -3.5570   23.6497 C   0  0  0  0  0  0  0  0  0  0  0  0
   11.5521   -3.0014   22.9217 C   0  0  0  0  0  0  0  0  0  0  0  0
   11.4267   -1.9461   22.1185 N   0  0  0  0  0  0  0  0  0  0  0  0
   10.2016   -1.4700   21.9467 C   0  0  0  0  0  0  0  0  0  0  0  0
    9.0565   -1.9882   22.5844 C   0  0  0  0  0  0  0  0  0  0  0  0
    7.8262   -1.3314   22.1422 C   0  0  0  0  0  0  0  0  0  0  0  0
    6.7939   -1.0765   22.8933 N   0  0  0  0  0  0  0  0  0  0  0  0
    5.9642   -0.3532   22.0325 O   0  0  0  0  0  0  0  0  0  0  0  0
    6.5684   -0.3025   20.8522 C   0  0  0  0  0  0  0  0  0  0  0  0
    5.9715    0.3592   19.6986 C   0  0  0  0  0  0  0  0  0  0  0  0
    4.7763    1.0962   19.6806 C   0  0  0  0  0  0  0  0  0  0  0  0
    4.4388    1.7351   18.4880 C   0  0  0  0  0  0  0  0  0  0  0  0
    5.2724    1.5862   17.3720 C   0  0  0  0  0  0  0  0  0  0  0  0
    6.3809    0.8320   17.3675 N   0  0  0  0  0  0  0  0  0  0  0  0
    6.7107    0.2410   18.5129 C   0  0  0  0  0  0  0  0  0  0  0  0
    7.6095   -0.3694   18.5048 H   0  0  0  0  0  0  0  0  0  0  0  0
    5.0397    2.0800   16.4325 H   0  0  0  0  0  0  0  0  0  0  0  0
    3.5608    2.3671   18.4062 H   0  0  0  0  0  0  0  0  0  0  0  0
    4.1316    1.1695   20.5606 H   0  0  0  0  0  0  0  0  0  0  0  0
    7.7318   -0.8779   20.8544 N   0  0  0  0  0  0  0  0  0  0  0  0
   10.1197   -0.6262   21.2700 H   0  0  0  0  0  0  0  0  0  0  0  0
   12.5421   -3.4197   23.0020 H   0  0  0  0  0  0  0  0  0  0  0  0
   10.7042   -4.3785   24.3267 H   0  0  0  0  0  0  0  0  0  0  0  0
  1  2  1  0
  2  3  1  0
  2  4  1  0
  2  5  1  0
  5  6  2  0
  6  7  1  0
  7  8  2  0
  8  9  1  0
  9 10  2  0
 10 11  1  0
 11 12  2  0
 12 13  1  0
 13 14  1  0
 14 15  1  0
 15 16  2  0
 16 17  1  0
 17 18  2  0
 18 19  1  0
 19 20  2  0
 20 21  1  0
 18 22  1  0
 17 23  1  0
 16 24  1  0
 14 25  2  0
  9 26  1  0
  7 27  1  0
  6 28  1  0
 10  5  1  0
 25 11  1  0
 20 15  1  0
M  END
>  <cnnaffinity>  (1) 
-5.34123

>  <filename>  (1) 
FC(F)(F)c1ccncc1-c1noc(-c2cccnc2)n1

$$$$
