
     RDKit          3D

 36 39  0  0  0  0  0  0  0  0999 V2000
   12.2779   -2.0251   22.2380 F   0  0  0  0  0  0  0  0  0  0  0  0
   11.0981   -1.3756   22.2623 C   0  0  0  0  0  0  0  0  0  0  0  0
   10.9494   -0.8462   23.4843 F   0  0  0  0  0  0  0  0  0  0  0  0
   11.1641   -0.3746   21.3747 F   0  0  0  0  0  0  0  0  0  0  0  0
    9.9981   -2.3746   21.9413 C   0  0  0  0  0  0  0  0  0  0  0  0
    8.6786   -1.7688   21.8170 N   0  0  0  0  0  0  0  0  0  0  0  0
    8.4033   -1.2386   20.6048 N   0  0  0  0  0  0  0  0  0  0  0  0
    7.2406   -0.6456   20.7799 C   0  0  0  0  0  0  0  0  0  0  0  0
    6.5437    0.0640   19.7127 C   0  0  0  0  0  0  0  0  0  0  0  0
    5.3239    0.7299   19.9104 C   0  0  0  0  0  0  0  0  0  0  0  0
    4.7623    1.3985   18.8282 C   0  0  0  0  0  0  0  0  0  0  0  0
    5.4283    1.3738   17.5992 C   0  0  0  0  0  0  0  0  0  0  0  0
    6.5851    0.7263   17.3972 N   0  0  0  0  0  0  0  0  0  0  0  0
    7.1285    0.0896   18.4383 C   0  0  0  0  0  0  0  0  0  0  0  0
    8.0717   -0.4231   18.2443 H   0  0  0  0  0  0  0  0  0  0  0  0
    5.0162    1.8995   16.7412 H   0  0  0  0  0  0  0  0  0  0  0  0
    3.8376    1.9546   18.9258 H   0  0  0  0  0  0  0  0  0  0  0  0
    4.8322    0.7382   20.8849 H   0  0  0  0  0  0  0  0  0  0  0  0
    6.7642   -0.7283   22.0302 N   0  0  0  0  0  0  0  0  0  0  0  0
    7.6804   -1.4277   22.6970 C   0  0  0  0  0  0  0  0  0  0  0  0
    7.6510   -1.6956   24.1313 C   0  0  0  0  0  0  0  0  0  0  0  0
    6.7655   -1.0396   25.0032 C   0  0  0  0  0  0  0  0  0  0  0  0
    5.7676   -0.0356   24.8636 C   0  0  0  0  0  0  0  0  0  0  0  0
    5.0498    0.3500   25.9715 C   0  0  0  0  0  0  0  0  0  0  0  0
    5.3235   -0.2436   27.2388 C   0  0  0  0  0  0  0  0  0  0  0  0
    4.3865    0.2781   28.6119 Cl  0  0  0  0  0  0  0  0  0  0  0  0
    6.2921   -1.1945   27.3842 C   0  0  0  0  0  0  0  0  0  0  0  0
    7.0144   -1.5872   26.2614 N   0  0  0  0  0  0  0  0  0  0  0  0
    8.0252   -2.5093   26.0763 C   0  0  0  0  0  0  0  0  0  0  0  0
    8.4231   -2.5930   24.8318 N   0  0  0  0  0  0  0  0  0  0  0  0
    8.4125   -3.0831   26.9079 H   0  0  0  0  0  0  0  0  0  0  0  0
    6.5154   -1.6515   28.3392 H   0  0  0  0  0  0  0  0  0  0  0  0
    4.2650    1.0966   25.9149 H   0  0  0  0  0  0  0  0  0  0  0  0
    5.5910    0.3765   23.8788 H   0  0  0  0  0  0  0  0  0  0  0  0
   10.2215   -2.7597   20.9480 H   0  0  0  0  0  0  0  0  0  0  0  0
   10.0128   -3.1769   22.6827 H   0  0  0  0  0  0  0  0  0  0  0  0
  1  2  1  0
  2  3  1  0
  2  4  1  0
  2  5  1  0
  5  6  1  0
  6  7  1  0
  7  8  2  0
  8  9  1  0
  9 10  2  0
 10 11  1  0
 11 12  2  0
 12 13  1  0
 13 14  2  0
 14 15  1  0
 12 16  1  0
 11 17  1  0
 10 18  1  0
  8 19  1  0
 19 20  2  0
 20 21  1  0
 21 22  2  0
 22 23  1  0
 23 24  2  0
 24 25  1  0
 25 26  1  0
 25 27  2  0
 27 28  1  0
 28 29  1  0
 29 30  2  0
 29 31  1  0
 27 32  1  0
 24 33  1  0
 23 34  1  0
  5 35  1  0
  5 36  1  0
 20  6  1  0
 30 21  1  0
 14  9  1  0
 28 22  1  0
M  END
>  <cnnaffinity>  (1) 
-6.04144

>  <filename>  (1) 
FC(F)(F)Cn1nc(-c2cccnc2)nc1-c1ncn2cc(Cl)ccc12

$$$$
