
     RDKit          3D

 29 30  0  0  0  0  0  0  0  0999 V2000
    4.9156    1.8039   16.9778 H   0  0  0  0  0  0  0  0  0  0  0  0
    5.3957    1.3020   17.8162 C   0  0  0  0  0  0  0  0  0  0  0  0
    6.5576    0.6907   17.5455 N   0  0  0  0  0  0  0  0  0  0  0  0
    7.1701    0.0755   18.5676 C   0  0  0  0  0  0  0  0  0  0  0  0
    8.1181   -0.4039   18.3271 H   0  0  0  0  0  0  0  0  0  0  0  0
    6.6719    0.0046   19.8810 C   0  0  0  0  0  0  0  0  0  0  0  0
    7.4082   -0.7265   20.9861 C   0  0  2  0  0  0  0  0  0  0  0  0
    8.2953   -1.2081   20.5527 H   0  0  0  0  0  0  0  0  0  0  0  0
    6.5775   -1.8234   21.7153 C   0  0  0  0  0  0  0  0  0  0  0  0
    5.5272   -1.8017   21.4052 H   0  0  0  0  0  0  0  0  0  0  0  0
    6.9405   -2.8239   21.4466 H   0  0  0  0  0  0  0  0  0  0  0  0
    6.6877   -1.5909   23.1656 N   0  0  0  0  0  0  0  0  0  0  0  0
    5.8267   -1.1461   23.4773 H   0  0  0  0  0  0  0  0  0  0  0  0
    7.8039   -0.6670   23.3759 C   0  0  0  0  0  0  0  0  0  0  0  0
    7.6789   -0.0852   24.2961 H   0  0  0  0  0  0  0  0  0  0  0  0
    8.7427   -1.2265   23.5000 H   0  0  0  0  0  0  0  0  0  0  0  0
    7.8835    0.2207   22.1151 C   0  0  1  0  0  0  0  0  0  0  0  0
    7.1514    1.0355   22.2153 H   0  0  0  0  0  0  0  0  0  0  0  0
    9.2602    0.8482   21.8167 C   0  0  0  0  0  0  0  0  0  0  0  0
   10.0361    0.0757   21.8055 H   0  0  0  0  0  0  0  0  0  0  0  0
    9.2667    1.3255   20.8299 H   0  0  0  0  0  0  0  0  0  0  0  0
    9.7082    1.8936   22.8135 C   0  0  0  0  0  0  0  0  0  0  0  0
    8.8172    2.8981   22.9183 F   0  0  0  0  0  0  0  0  0  0  0  0
    9.8707    1.3670   24.0487 F   0  0  0  0  0  0  0  0  0  0  0  0
   10.8899    2.4284   22.4567 F   0  0  0  0  0  0  0  0  0  0  0  0
    5.4527    0.6517   20.1323 C   0  0  0  0  0  0  0  0  0  0  0  0
    5.0168    0.6417   21.1368 H   0  0  0  0  0  0  0  0  0  0  0  0
    4.8086    1.3115   19.0858 C   0  0  0  0  0  0  0  0  0  0  0  0
    3.8798    1.8386   19.2458 H   0  0  0  0  0  0  0  0  0  0  0  0
  1  2  1  0
  2  3  2  0
  3  4  1  0
  4  5  1  0
  4  6  2  0
  6  7  1  0
  7  8  1  6
  7  9  1  0
  9 10  1  0
  9 11  1  0
  9 12  1  0
 12 13  1  0
 12 14  1  0
 14 15  1  0
 14 16  1  0
 14 17  1  0
 17 18  1  1
 17 19  1  0
 19 20  1  0
 19 21  1  0
 19 22  1  0
 22 23  1  0
 22 24  1  0
 22 25  1  0
  6 26  1  0
 26 27  1  0
 26 28  2  0
 28 29  1  0
 28  2  1  0
 17  7  1  0
M  END
>  <cnnaffinity>  (1) 
-4.68593

>  <filename>  (1) 
FC(F)(F)C[C@@H]1CNC[C@H]1c1cccnc1

$$$$
