
     RDKit          3D

 36 38  0  0  0  0  0  0  0  0999 V2000
   10.5425   -4.8022   28.1268 F   0  0  0  0  0  0  0  0  0  0  0  0
    9.5748   -5.3158   27.3513 C   0  0  0  0  0  0  0  0  0  0  0  0
    8.7242   -5.9849   28.1452 F   0  0  0  0  0  0  0  0  0  0  0  0
   10.1691   -6.2022   26.5197 F   0  0  0  0  0  0  0  0  0  0  0  0
    8.8953   -4.2892   26.5440 C   0  0  0  0  0  0  0  0  0  0  0  0
    7.5086   -4.0881   26.5403 C   0  0  0  0  0  0  0  0  0  0  0  0
    6.9895   -3.3646   25.4947 C   0  0  0  0  0  0  0  0  0  0  0  0
    7.8739   -2.8252   24.5322 C   0  0  0  0  0  0  0  0  0  0  0  0
    7.3507   -2.2220   23.4279 N   0  0  0  0  0  0  0  0  0  0  0  0
    6.1620   -2.7650   22.7718 C   0  0  0  0  0  0  0  0  0  0  0  0
    6.1306   -2.0356   21.4232 C   0  0  0  0  0  0  0  0  0  0  0  0
    7.0027   -0.8014   21.6541 C   0  0  0  0  0  0  0  0  0  0  0  0
    7.5865   -0.2062   20.5040 O   0  0  0  0  0  0  0  0  0  0  0  0
    6.7759    0.3384   19.5566 C   0  0  0  0  0  0  0  0  0  0  0  0
    5.5225    0.9242   19.7757 C   0  0  0  0  0  0  0  0  0  0  0  0
    4.8392    1.4359   18.6622 C   0  0  0  0  0  0  0  0  0  0  0  0
    5.4244    1.3483   17.3977 C   0  0  0  0  0  0  0  0  0  0  0  0
    6.6344    0.8021   17.1841 N   0  0  0  0  0  0  0  0  0  0  0  0
    7.2894    0.3257   18.2440 C   0  0  0  0  0  0  0  0  0  0  0  0
    8.2722   -0.1132   18.0812 H   0  0  0  0  0  0  0  0  0  0  0  0
    4.9122    1.7258   16.5175 H   0  0  0  0  0  0  0  0  0  0  0  0
    3.8640    1.8982   18.7745 H   0  0  0  0  0  0  0  0  0  0  0  0
    5.0995    0.9892   20.7786 H   0  0  0  0  0  0  0  0  0  0  0  0
    8.0932   -1.3113   22.5711 C   0  0  0  0  0  0  0  0  0  0  0  0
    8.8833   -1.8007   21.9812 H   0  0  0  0  0  0  0  0  0  0  0  0
    8.5537   -0.4936   23.1299 H   0  0  0  0  0  0  0  0  0  0  0  0
    6.4100   -0.0666   22.2110 H   0  0  0  0  0  0  0  0  0  0  0  0
    5.1309   -1.7368   21.1273 H   0  0  0  0  0  0  0  0  0  0  0  0
    6.5474   -2.6730   20.6396 H   0  0  0  0  0  0  0  0  0  0  0  0
    5.2786   -2.6020   23.3983 H   0  0  0  0  0  0  0  0  0  0  0  0
    6.2168   -3.8568   22.6414 H   0  0  0  0  0  0  0  0  0  0  0  0
    9.2036   -2.8958   24.6255 N   0  0  0  0  0  0  0  0  0  0  0  0
    9.6901   -3.6423   25.6004 C   0  0  0  0  0  0  0  0  0  0  0  0
   10.7670   -3.7800   25.6189 H   0  0  0  0  0  0  0  0  0  0  0  0
    5.9316   -3.2069   25.3543 H   0  0  0  0  0  0  0  0  0  0  0  0
    6.8581   -4.4918   27.3194 H   0  0  0  0  0  0  0  0  0  0  0  0
  1  2  1  0
  2  3  1  0
  2  4  1  0
  2  5  1  0
  5  6  2  0
  6  7  1  0
  7  8  2  0
  8  9  1  0
  9 10  1  0
 10 11  1  0
 11 12  1  0
 12 13  1  0
 13 14  1  0
 14 15  2  0
 15 16  1  0
 16 17  2  0
 17 18  1  0
 18 19  2  0
 19 20  1  0
 17 21  1  0
 16 22  1  0
 15 23  1  0
 12 24  1  0
 24 25  1  0
 24 26  1  0
 12 27  1  0
 11 28  1  0
 11 29  1  0
 10 30  1  0
 10 31  1  0
  8 32  1  0
 32 33  2  0
 33 34  1  0
  7 35  1  0
  6 36  1  0
 33  5  1  0
 24  9  1  0
 19 14  1  0
M  END
>  <cnnaffinity>  (1) 
-4.74871

>  <filename>  (1) 
FC(F)(F)c1ccc(N2CCC(Oc3cccnc3)C2)nc1

$$$$
