
     RDKit          3D

 25 26  0  0  0  0  0  0  0  0999 V2000
    6.6483   -1.2436   24.2941 H   0  0  0  0  0  0  0  0  0  0  0  0
    7.2261   -1.1625   23.3731 C   0  0  0  0  0  0  0  0  0  0  0  0
    6.5991   -0.5683   22.3611 N   0  0  0  0  0  0  0  0  0  0  0  0
    7.2513   -0.4914   21.2016 C   0  0  0  0  0  0  0  0  0  0  0  0
    6.5643    0.1298   20.0577 C   0  0  0  0  0  0  0  0  0  0  0  0
    7.1759    0.0500   18.7980 C   0  0  0  0  0  0  0  0  0  0  0  0
    8.1113   -0.4865   18.6581 H   0  0  0  0  0  0  0  0  0  0  0  0
    6.6666    0.5924   17.6871 N   0  0  0  0  0  0  0  0  0  0  0  0
    5.5043    1.2461   17.7991 C   0  0  0  0  0  0  0  0  0  0  0  0
    5.1201    1.6946   16.8856 H   0  0  0  0  0  0  0  0  0  0  0  0
    4.7892    1.3486   18.9985 C   0  0  0  0  0  0  0  0  0  0  0  0
    3.8422    1.8804   19.0016 H   0  0  0  0  0  0  0  0  0  0  0  0
    5.3119    0.7727   20.1533 C   0  0  0  0  0  0  0  0  0  0  0  0
    4.7558    0.8056   21.0961 H   0  0  0  0  0  0  0  0  0  0  0  0
    8.4842   -0.9646   20.9933 N   0  0  0  0  0  0  0  0  0  0  0  0
    9.0827   -1.5884   21.9993 C   0  0  0  0  0  0  0  0  0  0  0  0
   10.4065   -2.1537   21.6496 C   0  0  0  0  0  0  0  0  0  0  0  0
   10.3513   -2.4779   20.6122 H   0  0  0  0  0  0  0  0  0  0  0  0
   10.6981   -2.9756   22.3059 H   0  0  0  0  0  0  0  0  0  0  0  0
   11.4465   -1.0732   21.7344 C   0  0  0  0  0  0  0  0  0  0  0  0
   12.6300   -1.5302   21.2785 F   0  0  0  0  0  0  0  0  0  0  0  0
   11.1405    0.0169   21.0279 F   0  0  0  0  0  0  0  0  0  0  0  0
   11.6269   -0.6657   23.0045 F   0  0  0  0  0  0  0  0  0  0  0  0
    8.5118   -1.6813   23.2625 C   0  0  0  0  0  0  0  0  0  0  0  0
    9.0106   -2.1409   24.1075 H   0  0  0  0  0  0  0  0  0  0  0  0
  1  2  1  0
  2  3  2  0
  3  4  1  0
  4  5  1  0
  5  6  2  0
  6  7  1  0
  6  8  1  0
  8  9  2  0
  9 10  1  0
  9 11  1  0
 11 12  1  0
 11 13  2  0
 13 14  1  0
  4 15  2  0
 15 16  1  0
 16 17  1  0
 17 18  1  0
 17 19  1  0
 17 20  1  0
 20 21  1  0
 20 22  1  0
 20 23  1  0
 16 24  2  0
 24 25  1  0
 24  2  1  0
 13  5  1  0
M  END
>  <cnnaffinity>  (1) 
-4.9908

>  <filename>  (1) 
FC(F)(F)Cc1ccnc(-c2cccnc2)n1

$$$$
