
     RDKit          3D

 43 46  0  0  0  0  0  0  0  0999 V2000
   12.3218   -2.1772   22.2365 F   0  0  0  0  0  0  0  0  0  0  0  0
   11.1677   -1.4621   22.3012 C   0  0  0  0  0  0  0  0  0  0  0  0
   11.0645   -0.9386   23.5585 F   0  0  0  0  0  0  0  0  0  0  0  0
    9.9931   -2.3820   22.0478 C   0  0  0  0  0  0  0  0  0  0  0  0
    8.7661   -1.6216   21.9745 N   0  0  0  0  0  0  0  0  0  0  0  0
    8.4783   -1.0678   20.7791 N   0  0  0  0  0  0  0  0  0  0  0  0
    7.2929   -0.5181   20.9808 C   0  0  0  0  0  0  0  0  0  0  0  0
    6.5595    0.1198   19.8957 C   0  0  0  0  0  0  0  0  0  0  0  0
    5.3238    0.7610   20.0702 C   0  0  0  0  0  0  0  0  0  0  0  0
    4.7543    1.3780   18.9591 C   0  0  0  0  0  0  0  0  0  0  0  0
    5.4248    1.3188   17.7313 C   0  0  0  0  0  0  0  0  0  0  0  0
    6.5843    0.6687   17.5492 N   0  0  0  0  0  0  0  0  0  0  0  0
    7.1309    0.0805   18.6144 C   0  0  0  0  0  0  0  0  0  0  0  0
    8.0657   -0.4520   18.4363 H   0  0  0  0  0  0  0  0  0  0  0  0
    5.0058    1.8076   16.8552 H   0  0  0  0  0  0  0  0  0  0  0  0
    3.8153    1.9147   19.0338 H   0  0  0  0  0  0  0  0  0  0  0  0
    4.8360    0.7761   21.0487 H   0  0  0  0  0  0  0  0  0  0  0  0
    6.8318   -0.6435   22.2432 N   0  0  0  0  0  0  0  0  0  0  0  0
    7.7790   -1.3239   22.8612 C   0  0  0  0  0  0  0  0  0  0  0  0
    7.6992   -1.7283   24.3004 C   0  0  0  0  0  0  0  0  0  0  0  0
    6.7171   -2.9129   24.5528 C   0  0  0  0  0  0  0  0  0  0  0  0
    6.6495   -3.2988   26.0513 C   0  0  0  0  0  0  0  0  0  0  0  0
    7.6351   -4.4790   26.2504 C   0  0  0  0  0  0  0  0  0  0  0  0
    7.8665   -4.9940   24.8434 C   0  0  0  0  0  0  0  0  0  0  0  0
    8.6108   -6.0963   24.4130 C   0  0  0  0  0  0  0  0  0  0  0  0
    8.5379   -6.4804   23.0652 C   0  0  0  0  0  0  0  0  0  0  0  0
    7.7686   -5.7404   22.1511 C   0  0  0  0  0  0  0  0  0  0  0  0
    7.1101   -4.5769   22.5673 C   0  0  0  0  0  0  0  0  0  0  0  0
    7.1960   -4.1954   23.9096 C   0  0  0  0  0  0  0  0  0  0  0  0
    6.5411   -3.9635   21.8679 H   0  0  0  0  0  0  0  0  0  0  0  0
    7.6777   -6.0705   21.1198 H   0  0  0  0  0  0  0  0  0  0  0  0
    9.0811   -7.3615   22.7328 H   0  0  0  0  0  0  0  0  0  0  0  0
    9.2251   -6.6542   25.1195 H   0  0  0  0  0  0  0  0  0  0  0  0
    8.5754   -4.1694   26.7231 H   0  0  0  0  0  0  0  0  0  0  0  0
    7.2059   -5.2467   26.9056 H   0  0  0  0  0  0  0  0  0  0  0  0
    6.8774   -2.4502   26.7068 H   0  0  0  0  0  0  0  0  0  0  0  0
    5.6249   -3.6120   26.2863 H   0  0  0  0  0  0  0  0  0  0  0  0
    5.7299   -2.6208   24.1685 H   0  0  0  0  0  0  0  0  0  0  0  0
    7.3453   -0.8579   24.8664 H   0  0  0  0  0  0  0  0  0  0  0  0
    8.6992   -1.9652   24.6828 H   0  0  0  0  0  0  0  0  0  0  0  0
    9.9304   -3.1575   22.8131 H   0  0  0  0  0  0  0  0  0  0  0  0
   10.0998   -2.8482   21.0650 H   0  0  0  0  0  0  0  0  0  0  0  0
   11.2023   -0.6363   21.5832 H   0  0  0  0  0  0  0  0  0  0  0  0
  1  2  1  0
  2  3  1  0
  2  4  1  0
  4  5  1  0
  5  6  1  0
  6  7  2  0
  7  8  1  0
  8  9  2  0
  9 10  1  0
 10 11  2  0
 11 12  1  0
 12 13  2  0
 13 14  1  0
 11 15  1  0
 10 16  1  0
  9 17  1  0
  7 18  1  0
 18 19  2  0
 19 20  1  0
 20 21  1  0
 21 22  1  0
 22 23  1  0
 23 24  1  0
 24 25  2  0
 25 26  1  0
 26 27  2  0
 27 28  1  0
 28 29  2  0
 28 30  1  0
 27 31  1  0
 26 32  1  0
 25 33  1  0
 23 34  1  0
 23 35  1  0
 22 36  1  0
 22 37  1  0
 21 38  1  0
 20 39  1  0
 20 40  1  0
  4 41  1  0
  4 42  1  0
  2 43  1  0
 19  5  1  0
 29 21  1  0
 13  8  1  0
 29 24  1  0
M  END
>  <cnnaffinity>  (1) 
-6.30452

>  <filename>  (1) 
FC(F)Cn1nc(-c2cccnc2)nc1CC1CCc2ccccc21

$$$$
