
     RDKit          3D

 35 37  0  0  0  0  0  0  0  0999 V2000
    9.6110   -3.7017   24.3076 H   0  0  0  0  0  0  0  0  0  0  0  0
    8.7076   -3.9129   23.7401 C   0  0  0  0  0  0  0  0  0  0  0  0
    8.4059   -3.0489   22.7712 N   0  0  0  0  0  0  0  0  0  0  0  0
    7.2995   -3.2483   22.0689 C   0  0  0  0  0  0  0  0  0  0  0  0
    6.9576   -2.3369   21.1229 N   0  0  0  0  0  0  0  0  0  0  0  0
    6.1579   -2.5567   20.5683 H   0  0  0  0  0  0  0  0  0  0  0  0
    7.3707   -0.9570   21.0931 C   0  0  0  0  0  0  0  0  0  0  0  0
    6.6033   -0.2620   19.9939 C   0  0  0  0  0  0  0  0  0  0  0  0
    7.1185   -0.2750   18.6898 C   0  0  0  0  0  0  0  0  0  0  0  0
    8.0230   -0.8476   18.4767 H   0  0  0  0  0  0  0  0  0  0  0  0
    6.6061    0.4161   17.6647 N   0  0  0  0  0  0  0  0  0  0  0  0
    5.5032    1.1406   17.9069 C   0  0  0  0  0  0  0  0  0  0  0  0
    5.1133    1.7109   17.0684 H   0  0  0  0  0  0  0  0  0  0  0  0
    4.8552    1.1645   19.1479 C   0  0  0  0  0  0  0  0  0  0  0  0
    3.9607    1.7637   19.2757 H   0  0  0  0  0  0  0  0  0  0  0  0
    5.4029    0.4369   20.2038 C   0  0  0  0  0  0  0  0  0  0  0  0
    4.9231    0.4164   21.1869 H   0  0  0  0  0  0  0  0  0  0  0  0
    8.9144   -0.7755   21.0373 C   0  0  0  0  0  0  0  0  0  0  0  0
    9.2578   -0.1090   20.2425 H   0  0  0  0  0  0  0  0  0  0  0  0
    9.4366   -1.7283   20.9614 H   0  0  0  0  0  0  0  0  0  0  0  0
    8.9040   -0.1186   22.4354 C   0  0  0  0  0  0  0  0  0  0  0  0
    9.3713   -0.7354   23.2027 H   0  0  0  0  0  0  0  0  0  0  0  0
    9.3235    0.8918   22.4740 H   0  0  0  0  0  0  0  0  0  0  0  0
    7.3593   -0.1913   22.4510 C   0  0  0  0  0  0  0  0  0  0  0  0
    6.8925    0.7942   22.3708 H   0  0  0  0  0  0  0  0  0  0  0  0
    6.8828   -0.7299   23.2732 H   0  0  0  0  0  0  0  0  0  0  0  0
    6.5049   -4.3875   22.2760 C   0  0  0  0  0  0  0  0  0  0  0  0
    5.3135   -4.4947   21.4296 C   0  0  0  0  0  0  0  0  0  0  0  0
    4.4231   -3.5171   21.7090 F   0  0  0  0  0  0  0  0  0  0  0  0
    5.6011   -4.3724   20.1030 F   0  0  0  0  0  0  0  0  0  0  0  0
    4.6818   -5.6654   21.5706 F   0  0  0  0  0  0  0  0  0  0  0  0
    6.7876   -5.2689   23.3151 C   0  0  0  0  0  0  0  0  0  0  0  0
    6.1429   -6.1278   23.5327 H   0  0  0  0  0  0  0  0  0  0  0  0
    7.9323   -5.0235   24.0652 C   0  0  0  0  0  0  0  0  0  0  0  0
    8.2229   -5.6734   24.8813 H   0  0  0  0  0  0  0  0  0  0  0  0
  1  2  1  0
  2  3  2  0
  3  4  1  0
  4  5  1  0
  5  6  1  0
  5  7  1  0
  7  8  1  0
  8  9  2  0
  9 10  1  0
  9 11  1  0
 11 12  2  0
 12 13  1  0
 12 14  1  0
 14 15  1  0
 14 16  2  0
 16 17  1  0
  7 18  1  0
 18 19  1  0
 18 20  1  0
 18 21  1  0
 21 22  1  0
 21 23  1  0
 21 24  1  0
 24 25  1  0
 24 26  1  0
  4 27  2  0
 27 28  1  0
 28 29  1  0
 28 30  1  0
 28 31  1  0
 27 32  1  0
 32 33  1  0
 32 34  2  0
 34 35  1  0
 34  2  1  0
 24  7  1  0
 16  8  1  0
M  END
>  <cnnaffinity>  (1) 
-5.05808

>  <filename>  (1) 
FC(F)(F)c1cccnc1NC1(c2cccnc2)CCC1

$$$$
