
     RDKit          3D

 27 28  0  0  0  0  0  0  0  0999 V2000
    7.2268   -2.5489   20.2497 H   0  0  0  0  0  0  0  0  0  0  0  0
    7.5605   -1.9615   21.0916 C   0  0  0  0  0  0  0  0  0  0  0  0
    7.2512   -0.6168   21.1366 C   0  0  0  0  0  0  0  0  0  0  0  0
    7.6195    0.4076   22.7155 Br  0  0  0  0  0  0  0  0  0  0  0  0
    6.5882    0.0284   20.0091 C   0  0  0  0  0  0  0  0  0  0  0  0
    7.1448   -0.0230   18.7219 C   0  0  0  0  0  0  0  0  0  0  0  0
    8.0844   -0.5467   18.5732 H   0  0  0  0  0  0  0  0  0  0  0  0
    6.5984    0.5968   17.6582 N   0  0  0  0  0  0  0  0  0  0  0  0
    5.4477    1.2691   17.8425 C   0  0  0  0  0  0  0  0  0  0  0  0
    4.9610    1.7295   16.9867 H   0  0  0  0  0  0  0  0  0  0  0  0
    4.8331    1.3567   19.0946 C   0  0  0  0  0  0  0  0  0  0  0  0
    3.8990    1.8930   19.1925 H   0  0  0  0  0  0  0  0  0  0  0  0
    5.4182    0.7573   20.2074 C   0  0  0  0  0  0  0  0  0  0  0  0
    4.9801    0.8497   21.2002 H   0  0  0  0  0  0  0  0  0  0  0  0
    8.3239   -2.6388   22.1335 C   0  0  0  0  0  0  0  0  0  0  0  0
    9.2806   -1.9242   22.7256 N   0  0  0  0  0  0  0  0  0  0  0  0
   10.1018   -2.5064   23.6017 C   0  0  0  0  0  0  0  0  0  0  0  0
   10.9114   -1.9074   24.0020 H   0  0  0  0  0  0  0  0  0  0  0  0
    9.9423   -3.8350   23.9845 C   0  0  0  0  0  0  0  0  0  0  0  0
   10.6480   -4.2716   24.6831 H   0  0  0  0  0  0  0  0  0  0  0  0
    8.9271   -4.5968   23.4282 C   0  0  0  0  0  0  0  0  0  0  0  0
    8.8264   -5.6453   23.7179 H   0  0  0  0  0  0  0  0  0  0  0  0
    8.1403   -3.9963   22.4297 C   0  0  0  0  0  0  0  0  0  0  0  0
    7.1892   -4.7996   21.6051 C   0  0  0  0  0  0  0  0  0  0  0  0
    6.1684   -4.0478   21.1179 F   0  0  0  0  0  0  0  0  0  0  0  0
    6.6794   -5.8154   22.3400 F   0  0  0  0  0  0  0  0  0  0  0  0
    7.8852   -5.3461   20.5808 F   0  0  0  0  0  0  0  0  0  0  0  0
  1  2  1  0
  2  3  2  3
  3  4  1  0
  3  5  1  0
  5  6  2  0
  6  7  1  0
  6  8  1  0
  8  9  2  0
  9 10  1  0
  9 11  1  0
 11 12  1  0
 11 13  2  0
 13 14  1  0
  2 15  1  0
 15 16  2  0
 16 17  1  0
 17 18  1  0
 17 19  2  0
 19 20  1  0
 19 21  1  0
 21 22  1  0
 21 23  2  0
 23 24  1  0
 24 25  1  0
 24 26  1  0
 24 27  1  0
 13  5  1  0
 23 15  1  0
M  END
>  <cnnaffinity>  (1) 
-5.44332

>  <filename>  (1) 
FC(F)(F)c1cccnc1C=C(Br)c1cccnc1

$$$$
