
     RDKit          3D

 31 33  0  0  0  0  0  0  0  0999 V2000
    9.1386   -2.6453   23.7169 H   0  0  0  0  0  0  0  0  0  0  0  0
    8.6354   -2.0716   22.9444 C   0  0  0  0  0  0  0  0  0  0  0  0
    8.2262   -2.7468   21.8692 N   0  0  0  0  0  0  0  0  0  0  0  0
    7.5926   -2.0339   20.9418 C   0  0  0  0  0  0  0  0  0  0  0  0
    7.1848   -2.5915   20.0985 H   0  0  0  0  0  0  0  0  0  0  0  0
    7.3709   -0.6481   21.0185 C   0  0  0  0  0  0  0  0  0  0  0  0
    6.6551    0.0508   19.8823 C   0  0  0  0  0  0  0  0  0  0  0  0
    7.1527    0.0814   18.5566 C   0  0  0  0  0  0  0  0  0  0  0  0
    8.1009   -0.4051   18.3152 H   0  0  0  0  0  0  0  0  0  0  0  0
    6.5341    0.6850   17.5337 N   0  0  0  0  0  0  0  0  0  0  0  0
    5.3699    1.3031   17.7976 C   0  0  0  0  0  0  0  0  0  0  0  0
    4.9156    1.8329   16.9645 H   0  0  0  0  0  0  0  0  0  0  0  0
    4.7641    1.3112   19.0564 C   0  0  0  0  0  0  0  0  0  0  0  0
    3.8268    1.8426   19.1993 H   0  0  0  0  0  0  0  0  0  0  0  0
    5.4206    0.6730   20.1112 C   0  0  0  0  0  0  0  0  0  0  0  0
    4.9928    0.6362   21.1158 H   0  0  0  0  0  0  0  0  0  0  0  0
    7.7921   -0.0573   22.2409 C   0  0  0  0  0  0  0  0  0  0  0  0
    7.5868    1.4362   22.5672 C   0  0  0  0  0  0  0  0  0  0  0  0
    8.1595    2.2810   21.6978 N   0  0  0  0  0  0  0  0  0  0  0  0
    7.9984    3.5957   21.8756 C   0  0  0  0  0  0  0  0  0  0  0  0
    8.5003    4.2245   21.1570 H   0  0  0  0  0  0  0  0  0  0  0  0
    7.2430    4.1594   22.9045 C   0  0  0  0  0  0  0  0  0  0  0  0
    7.1081    5.2355   22.9553 H   0  0  0  0  0  0  0  0  0  0  0  0
    6.6697    3.3000   23.8341 C   0  0  0  0  0  0  0  0  0  0  0  0
    6.0630    3.6837   24.6532 H   0  0  0  0  0  0  0  0  0  0  0  0
    6.8660    1.9208   23.6879 C   0  0  0  0  0  0  0  0  0  0  0  0
    6.3340    0.9710   24.7322 C   0  0  0  0  0  0  0  0  0  0  0  0
    7.3004    0.5814   25.5804 F   0  0  0  0  0  0  0  0  0  0  0  0
    5.8425   -0.1427   24.1654 F   0  0  0  0  0  0  0  0  0  0  0  0
    5.3408    1.5043   25.4705 F   0  0  0  0  0  0  0  0  0  0  0  0
    8.4526   -0.7734   23.1681 N   0  0  0  0  0  0  0  0  0  0  0  0
  1  2  1  0
  2  3  2  0
  3  4  1  0
  4  5  1  0
  4  6  2  0
  6  7  1  0
  7  8  2  0
  8  9  1  0
  8 10  1  0
 10 11  2  0
 11 12  1  0
 11 13  1  0
 13 14  1  0
 13 15  2  0
 15 16  1  0
  6 17  1  0
 17 18  1  0
 18 19  2  0
 19 20  1  0
 20 21  1  0
 20 22  2  0
 22 23  1  0
 22 24  1  0
 24 25  1  0
 24 26  2  0
 26 27  1  0
 27 28  1  0
 27 29  1  0
 27 30  1  0
 17 31  2  0
 31  2  1  0
 15  7  1  0
 26 18  1  0
M  END
>  <cnnaffinity>  (1) 
-4.99725

>  <filename>  (1) 
FC(F)(F)c1cccnc1-c1ncncc1-c1cccnc1

$$$$
