
     RDKit          3D

 28 30  0  0  0  0  0  0  0  0999 V2000
    5.2758    1.5482   17.1695 H   0  0  0  0  0  0  0  0  0  0  0  0
    5.7210    1.0783   18.0471 C   0  0  0  0  0  0  0  0  0  0  0  0
    6.8787    0.4347   17.8447 N   0  0  0  0  0  0  0  0  0  0  0  0
    7.4467   -0.1551   18.9006 C   0  0  0  0  0  0  0  0  0  0  0  0
    8.3985   -0.6501   18.7204 H   0  0  0  0  0  0  0  0  0  0  0  0
    6.8868   -0.1492   20.1866 C   0  0  0  0  0  0  0  0  0  0  0  0
    7.5644   -0.8815   21.2590 C   0  0  0  0  0  0  0  0  0  0  0  0
    7.1995   -1.0536   22.4917 N   0  0  0  0  0  0  0  0  0  0  0  0
    8.2154   -1.8762   22.9895 C   0  0  0  0  0  0  0  0  0  0  0  0
    8.3330   -2.4914   24.3918 C   0  0  0  0  0  0  0  0  0  0  0  0
    9.4210   -3.2574   24.5637 N   0  0  0  0  0  0  0  0  0  0  0  0
    9.6838   -3.8312   25.7325 C   0  0  0  0  0  0  0  0  0  0  0  0
   10.5612   -4.4767   25.7512 H   0  0  0  0  0  0  0  0  0  0  0  0
    8.8759   -3.6670   26.8553 C   0  0  0  0  0  0  0  0  0  0  0  0
    9.1637   -4.1381   27.7899 H   0  0  0  0  0  0  0  0  0  0  0  0
    7.7190   -2.9142   26.7145 C   0  0  0  0  0  0  0  0  0  0  0  0
    7.0355   -2.7752   27.5492 H   0  0  0  0  0  0  0  0  0  0  0  0
    7.4240   -2.3324   25.4721 C   0  0  0  0  0  0  0  0  0  0  0  0
    6.0833   -1.6977   25.2378 C   0  0  0  0  0  0  0  0  0  0  0  0
    5.3204   -1.6483   26.3493 F   0  0  0  0  0  0  0  0  0  0  0  0
    6.1746   -0.4429   24.7828 F   0  0  0  0  0  0  0  0  0  0  0  0
    5.4096   -2.4316   24.3369 F   0  0  0  0  0  0  0  0  0  0  0  0
    9.1267   -2.1491   22.0901 N   0  0  0  0  0  0  0  0  0  0  0  0
    8.7069   -1.5023   20.9614 O   0  0  0  0  0  0  0  0  0  0  0  0
    5.6858    0.5399   20.3954 C   0  0  0  0  0  0  0  0  0  0  0  0
    5.2419    0.5831   21.3927 H   0  0  0  0  0  0  0  0  0  0  0  0
    5.0938    1.1630   19.2951 C   0  0  0  0  0  0  0  0  0  0  0  0
    4.1677    1.7170   19.3874 H   0  0  0  0  0  0  0  0  0  0  0  0
  1  2  1  0
  2  3  2  0
  3  4  1  0
  4  5  1  0
  4  6  2  0
  6  7  1  0
  7  8  2  0
  8  9  1  0
  9 10  1  0
 10 11  2  0
 11 12  1  0
 12 13  1  0
 12 14  2  0
 14 15  1  0
 14 16  1  0
 16 17  1  0
 16 18  2  0
 18 19  1  0
 19 20  1  0
 19 21  1  0
 19 22  1  0
  9 23  2  0
 23 24  1  0
  6 25  1  0
 25 26  1  0
 25 27  2  0
 27 28  1  0
 27  2  1  0
 24  7  1  0
 18 10  1  0
M  END
>  <cnnaffinity>  (1) 
-5.19469

>  <filename>  (1) 
FC(F)(F)c1cccnc1-c1noc(-c2cccnc2)n1

$$$$
