
     RDKit          3D

 27 29  0  0  0  0  0  0  0  0999 V2000
    6.7721    4.5946   25.2255 F   0  0  0  0  0  0  0  0  0  0  0  0
    7.7035    3.6189   25.2088 C   0  0  0  0  0  0  0  0  0  0  0  0
    7.6023    2.9364   26.3510 F   0  0  0  0  0  0  0  0  0  0  0  0
    8.8981    4.2404   25.2069 F   0  0  0  0  0  0  0  0  0  0  0  0
    7.5253    2.7520   23.9803 C   0  0  0  0  0  0  0  0  0  0  0  0
    7.2160    3.2157   22.7508 C   0  0  0  0  0  0  0  0  0  0  0  0
    7.2258    2.1614   21.8883 O   0  0  0  0  0  0  0  0  0  0  0  0
    7.5358    1.0849   22.6636 C   0  0  0  0  0  0  0  0  0  0  0  0
    7.6964   -0.2520   22.1712 C   0  0  0  0  0  0  0  0  0  0  0  0
    8.2808   -1.3139   22.8378 C   0  0  0  0  0  0  0  0  0  0  0  0
    8.2695   -2.3478   21.8992 C   0  0  0  0  0  0  0  0  0  0  0  0
    7.7246   -1.9720   20.7479 N   0  0  0  0  0  0  0  0  0  0  0  0
    7.3520   -0.6989   20.9250 N   0  0  0  0  0  0  0  0  0  0  0  0
    6.6503    0.0008   19.9118 C   0  0  0  0  0  0  0  0  0  0  0  0
    5.4262    0.6316   20.1659 C   0  0  0  0  0  0  0  0  0  0  0  0
    4.8050    1.2948   19.1039 C   0  0  0  0  0  0  0  0  0  0  0  0
    5.4073    1.2885   17.8434 C   0  0  0  0  0  0  0  0  0  0  0  0
    6.5748    0.6675   17.5973 N   0  0  0  0  0  0  0  0  0  0  0  0
    7.1752    0.0387   18.6095 C   0  0  0  0  0  0  0  0  0  0  0  0
    8.1215   -0.4423   18.3774 H   0  0  0  0  0  0  0  0  0  0  0  0
    4.9303    1.7808   16.9970 H   0  0  0  0  0  0  0  0  0  0  0  0
    3.8799    1.8368   19.2594 H   0  0  0  0  0  0  0  0  0  0  0  0
    4.9948    0.6324   21.1687 H   0  0  0  0  0  0  0  0  0  0  0  0
    8.6457   -3.3553   22.0085 H   0  0  0  0  0  0  0  0  0  0  0  0
    8.6708   -1.3039   23.8499 H   0  0  0  0  0  0  0  0  0  0  0  0
    7.7340    1.3820   23.9069 N   0  0  0  0  0  0  0  0  0  0  0  0
    6.9805    4.1838   22.3325 H   0  0  0  0  0  0  0  0  0  0  0  0
  1  2  1  0
  2  3  1  0
  2  4  1  0
  2  5  1  0
  5  6  2  0
  6  7  1  0
  7  8  1  0
  8  9  1  0
  9 10  2  0
 10 11  1  0
 11 12  2  0
 12 13  1  0
 13 14  1  0
 14 15  2  0
 15 16  1  0
 16 17  2  0
 17 18  1  0
 18 19  2  0
 19 20  1  0
 17 21  1  0
 16 22  1  0
 15 23  1  0
 11 24  1  0
 10 25  1  0
  8 26  2  0
  6 27  1  0
 26  5  1  0
 13  9  1  0
 19 14  1  0
M  END
>  <cnnaffinity>  (1) 
-5.10055

>  <filename>  (1) 
FC(F)(F)c1coc(-c2ccnn2-c2cccnc2)n1

$$$$
