
     RDKit          3D

 29 30  0  0  0  0  0  0  0  0999 V2000
    4.9775    1.7266   16.8558 H   0  0  0  0  0  0  0  0  0  0  0  0
    5.3841    1.3182   17.7775 C   0  0  0  0  0  0  0  0  0  0  0  0
    6.5755    0.7129   17.6630 N   0  0  0  0  0  0  0  0  0  0  0  0
    7.1116    0.1989   18.7751 C   0  0  0  0  0  0  0  0  0  0  0  0
    8.0744   -0.2959   18.6442 H   0  0  0  0  0  0  0  0  0  0  0  0
    6.5156    0.2691   20.0461 C   0  0  0  0  0  0  0  0  0  0  0  0
    7.1924   -0.3612   21.2386 C   0  0  2  0  0  0  0  0  0  0  0  0
    6.6791   -0.1162   22.1762 H   0  0  0  0  0  0  0  0  0  0  0  0
    8.8620    0.3132   21.3850 Cl  0  0  0  0  0  0  0  0  0  0  0  0
    7.2551   -1.8836   21.0743 C   0  0  0  0  0  0  0  0  0  0  0  0
    6.2443   -2.2329   20.8571 H   0  0  0  0  0  0  0  0  0  0  0  0
    7.8547   -2.0768   20.1891 H   0  0  0  0  0  0  0  0  0  0  0  0
    7.7831   -2.6394   22.2628 C   0  0  0  0  0  0  0  0  0  0  0  0
    6.8691   -3.0566   23.1435 N   0  0  0  0  0  0  0  0  0  0  0  0
    7.2723   -3.7366   24.2316 C   0  0  0  0  0  0  0  0  0  0  0  0
    6.2379   -4.1481   25.3049 C   0  0  0  0  0  0  0  0  0  0  0  0
    6.2145   -5.4916   25.4428 F   0  0  0  0  0  0  0  0  0  0  0  0
    6.6049   -3.6546   26.5106 F   0  0  0  0  0  0  0  0  0  0  0  0
    4.9854   -3.7491   25.0707 F   0  0  0  0  0  0  0  0  0  0  0  0
    8.6221   -4.0680   24.4513 C   0  0  0  0  0  0  0  0  0  0  0  0
    8.9186   -4.6093   25.3462 H   0  0  0  0  0  0  0  0  0  0  0  0
    9.5782   -3.6320   23.5313 C   0  0  0  0  0  0  0  0  0  0  0  0
   10.6297   -3.8715   23.6993 H   0  0  0  0  0  0  0  0  0  0  0  0
    9.1561   -2.8827   22.4302 C   0  0  0  0  0  0  0  0  0  0  0  0
    9.8466   -2.4394   21.7178 H   0  0  0  0  0  0  0  0  0  0  0  0
    5.2637    0.8906   20.1401 C   0  0  0  0  0  0  0  0  0  0  0  0
    4.7580    0.9589   21.1049 H   0  0  0  0  0  0  0  0  0  0  0  0
    4.6874    1.4246   18.9837 C   0  0  0  0  0  0  0  0  0  0  0  0
    3.7240    1.9235   19.0002 H   0  0  0  0  0  0  0  0  0  0  0  0
  1  2  1  0
  2  3  2  0
  3  4  1  0
  4  5  1  0
  4  6  2  0
  6  7  1  0
  7  8  1  1
  7  9  1  0
  7 10  1  0
 10 11  1  0
 10 12  1  0
 10 13  1  0
 13 14  2  0
 14 15  1  0
 15 16  1  0
 16 17  1  0
 16 18  1  0
 16 19  1  0
 15 20  2  0
 20 21  1  0
 20 22  1  0
 22 23  1  0
 22 24  2  0
 24 25  1  0
  6 26  1  0
 26 27  1  0
 26 28  2  0
 28 29  1  0
 28  2  1  0
 24 13  1  0
M  END
>  <cnnaffinity>  (1) 
-5.04516

>  <filename>  (1) 
FC(F)(F)c1cccc(C[C@@H](Cl)c2cccnc2)n1

$$$$
