
     RDKit          3D

 38 41  0  0  0  0  0  0  0  0999 V2000
    4.9113    1.8341   16.9624 H   0  0  0  0  0  0  0  0  0  0  0  0
    5.3884    1.3180   17.7942 C   0  0  0  0  0  0  0  0  0  0  0  0
    6.5446    0.6997   17.5155 N   0  0  0  0  0  0  0  0  0  0  0  0
    7.1680    0.0802   18.5271 C   0  0  0  0  0  0  0  0  0  0  0  0
    8.1114   -0.4036   18.2730 H   0  0  0  0  0  0  0  0  0  0  0  0
    6.6912    0.0226   19.8512 C   0  0  0  0  0  0  0  0  0  0  0  0
    7.4550   -0.7005   20.9524 C   0  0  1  0  0  0  0  0  0  0  0  0
    8.3881   -1.0908   20.5229 H   0  0  0  0  0  0  0  0  0  0  0  0
    7.8488    0.2448   22.1473 C   0  0  0  0  0  0  0  0  0  0  0  0
    8.9361    0.3606   22.2088 H   0  0  0  0  0  0  0  0  0  0  0  0
    7.4460    1.2569   22.0549 H   0  0  0  0  0  0  0  0  0  0  0  0
    7.2814   -0.4490   23.3458 C   0  0  0  0  0  0  0  0  0  0  0  0
    7.2659   -0.1921   24.6394 N   0  0  0  0  0  0  0  0  0  0  0  0
    6.6488   -1.2801   25.1608 N   0  0  0  0  0  0  0  0  0  0  0  0
    6.5938   -1.3527   26.1639 H   0  0  0  0  0  0  0  0  0  0  0  0
    6.2548   -2.2007   24.2291 C   0  0  0  0  0  0  0  0  0  0  0  0
    5.6344   -3.5147   24.5029 C   0  0  0  0  0  0  0  0  0  0  0  0
    6.0498   -4.3247   25.5728 C   0  0  0  0  0  0  0  0  0  0  0  0
    6.7915   -3.9476   26.2736 H   0  0  0  0  0  0  0  0  0  0  0  0
    5.5524   -5.6198   25.7142 C   0  0  0  0  0  0  0  0  0  0  0  0
    5.9219   -6.2553   26.5112 H   0  0  0  0  0  0  0  0  0  0  0  0
    4.6174   -6.1225   24.8066 C   0  0  0  0  0  0  0  0  0  0  0  0
    4.2598   -7.1453   24.9033 H   0  0  0  0  0  0  0  0  0  0  0  0
    4.1708   -5.3188   23.7502 C   0  0  0  0  0  0  0  0  0  0  0  0
    3.2606   -5.9266   22.7063 C   0  0  0  0  0  0  0  0  0  0  0  0
    3.9957   -6.4967   21.7321 F   0  0  0  0  0  0  0  0  0  0  0  0
    2.4521   -5.0238   22.1237 F   0  0  0  0  0  0  0  0  0  0  0  0
    2.4667   -6.8955   23.2042 F   0  0  0  0  0  0  0  0  0  0  0  0
    4.6929   -4.0241   23.5893 C   0  0  0  0  0  0  0  0  0  0  0  0
    4.3893   -3.3998   22.7527 H   0  0  0  0  0  0  0  0  0  0  0  0
    6.6667   -1.6551   23.0261 C   0  0  0  0  0  0  0  0  0  0  0  0
    6.6600   -1.9179   21.5549 C   0  0  0  0  0  0  0  0  0  0  0  0
    5.6311   -1.9556   21.1710 H   0  0  0  0  0  0  0  0  0  0  0  0
    7.1271   -2.8715   21.2685 H   0  0  0  0  0  0  0  0  0  0  0  0
    5.4673    0.6659   20.1042 C   0  0  0  0  0  0  0  0  0  0  0  0
    5.0369    0.6657   21.1072 H   0  0  0  0  0  0  0  0  0  0  0  0
    4.8026    1.3226   19.0632 C   0  0  0  0  0  0  0  0  0  0  0  0
    3.8636    1.8458   19.2187 H   0  0  0  0  0  0  0  0  0  0  0  0
  1  2  1  0
  2  3  2  0
  3  4  1  0
  4  5  1  0
  4  6  2  0
  6  7  1  0
  7  8  1  6
  7  9  1  0
  9 10  1  0
  9 11  1  0
  9 12  1  0
 12 13  2  0
 13 14  1  0
 14 15  1  0
 14 16  1  0
 16 17  1  0
 17 18  2  0
 18 19  1  0
 18 20  1  0
 20 21  1  0
 20 22  2  0
 22 23  1  0
 22 24  1  0
 24 25  1  0
 25 26  1  0
 25 27  1  0
 25 28  1  0
 24 29  2  0
 29 30  1  0
 16 31  2  0
 31 32  1  0
 32 33  1  0
 32 34  1  0
  6 35  1  0
 35 36  1  0
 35 37  2  0
 37 38  1  0
 37  2  1  0
 32  7  1  0
 31 12  1  0
 29 17  1  0
M  END
>  <cnnaffinity>  (1) 
-5.54875

>  <filename>  (1) 
FC(F)(F)c1cccc(-c2[nH]nc3c2C[C@@H](c2cccnc2)C3)c1

$$$$
