
     RDKit          3D

 32 34  0  0  0  0  0  0  0  0999 V2000
    4.9541    1.7827   16.9609 H   0  0  0  0  0  0  0  0  0  0  0  0
    5.4388    1.2965   17.8070 C   0  0  0  0  0  0  0  0  0  0  0  0
    6.6119    0.7083   17.5404 N   0  0  0  0  0  0  0  0  0  0  0  0
    7.2372    0.1052   18.5590 C   0  0  0  0  0  0  0  0  0  0  0  0
    8.1919   -0.3695   18.3347 H   0  0  0  0  0  0  0  0  0  0  0  0
    6.7360    0.0194   19.8714 C   0  0  0  0  0  0  0  0  0  0  0  0
    7.5262   -0.6942   20.9009 C   0  0  0  0  0  0  0  0  0  0  0  0
    7.1172   -1.7708   21.5958 C   0  0  0  0  0  0  0  0  0  0  0  0
    5.8362   -2.5251   21.3187 C   0  0  0  0  0  0  0  0  0  0  0  0
    5.0011   -1.8597   21.5187 H   0  0  0  0  0  0  0  0  0  0  0  0
    5.7446   -2.8043   20.2638 H   0  0  0  0  0  0  0  0  0  0  0  0
    5.5716   -3.8104   22.0777 C   0  0  0  0  0  0  0  0  0  0  0  0
    5.7875   -3.7076   23.4027 F   0  0  0  0  0  0  0  0  0  0  0  0
    6.3291   -4.8178   21.6059 F   0  0  0  0  0  0  0  0  0  0  0  0
    4.2891   -4.1874   21.9319 F   0  0  0  0  0  0  0  0  0  0  0  0
    8.0291   -2.0586   22.7642 C   0  0  0  0  0  0  0  0  0  0  0  0
    8.3074   -3.1184   22.8237 H   0  0  0  0  0  0  0  0  0  0  0  0
    7.4839   -1.8180   23.6861 H   0  0  0  0  0  0  0  0  0  0  0  0
    9.2386   -1.1281   22.5610 C   0  0  0  0  0  0  0  0  0  0  0  0
    8.9074   -0.2395   21.3422 C   0  0  0  0  0  0  0  0  0  0  0  0
    9.6465   -0.3638   20.5369 H   0  0  0  0  0  0  0  0  0  0  0  0
    8.8943    0.8320   21.5872 H   0  0  0  0  0  0  0  0  0  0  0  0
   10.0162   -0.6060   23.7442 C   0  0  0  0  0  0  0  0  0  0  0  0
   10.4111    0.4111   23.7049 H   0  0  0  0  0  0  0  0  0  0  0  0
    9.7122   -0.9193   24.7448 H   0  0  0  0  0  0  0  0  0  0  0  0
   10.6320   -1.6323   22.8346 C   0  0  0  0  0  0  0  0  0  0  0  0
   10.7393   -2.6517   23.2071 H   0  0  0  0  0  0  0  0  0  0  0  0
   11.4497   -1.3247   22.1819 H   0  0  0  0  0  0  0  0  0  0  0  0
    5.5085    0.6623   20.1285 C   0  0  0  0  0  0  0  0  0  0  0  0
    5.0810    0.6849   21.1351 H   0  0  0  0  0  0  0  0  0  0  0  0
    4.8539    1.3097   19.0768 C   0  0  0  0  0  0  0  0  0  0  0  0
    3.9100    1.8212   19.2182 H   0  0  0  0  0  0  0  0  0  0  0  0
  1  2  1  0
  2  3  2  0
  3  4  1  0
  4  5  1  0
  4  6  2  0
  6  7  1  0
  7  8  2  0
  8  9  1  0
  9 10  1  0
  9 11  1  0
  9 12  1  0
 12 13  1  0
 12 14  1  0
 12 15  1  0
  8 16  1  0
 16 17  1  0
 16 18  1  0
 16 19  1  0
 19 20  1  0
 20 21  1  0
 20 22  1  0
 19 23  1  0
 23 24  1  0
 23 25  1  0
 23 26  1  0
 26 27  1  0
 26 28  1  0
  6 29  1  0
 29 30  1  0
 29 31  2  0
 31 32  1  0
 31  2  1  0
 20  7  1  0
 26 19  1  0
M  END
>  <cnnaffinity>  (1) 
-5.38488

>  <filename>  (1) 
FC(F)(F)CC1=C(c2cccnc2)CC2(CC2)C1

$$$$
