
     RDKit          3D

 32 34  0  0  0  0  0  0  0  0999 V2000
    4.9274    1.8110   16.9652 H   0  0  0  0  0  0  0  0  0  0  0  0
    5.3863    1.2912   17.8034 C   0  0  0  0  0  0  0  0  0  0  0  0
    6.5503    0.6717   17.5472 N   0  0  0  0  0  0  0  0  0  0  0  0
    7.1516    0.0548   18.5736 C   0  0  0  0  0  0  0  0  0  0  0  0
    8.1191   -0.4027   18.3562 H   0  0  0  0  0  0  0  0  0  0  0  0
    6.6351    0.0101   19.8829 C   0  0  0  0  0  0  0  0  0  0  0  0
    7.3511   -0.6919   21.0047 C   0  0  0  0  0  0  0  0  0  0  0  0
    7.5880   -2.0764   20.9081 C   0  0  0  0  0  0  0  0  0  0  0  0
    7.1660   -2.6089   20.0591 H   0  0  0  0  0  0  0  0  0  0  0  0
    8.2457   -2.8119   21.8107 N   0  0  0  0  0  0  0  0  0  0  0  0
    8.6757   -2.1800   22.9111 C   0  0  0  0  0  0  0  0  0  0  0  0
    9.1976   -2.7900   23.6460 H   0  0  0  0  0  0  0  0  0  0  0  0
    8.4701   -0.8161   23.1389 C   0  0  0  0  0  0  0  0  0  0  0  0
    8.8592   -0.3715   24.0517 H   0  0  0  0  0  0  0  0  0  0  0  0
    7.8197   -0.0405   22.1709 C   0  0  0  0  0  0  0  0  0  0  0  0
    7.7008    1.4517   22.3892 C   0  0  0  0  0  0  0  0  0  0  0  0
    6.5868    1.8166   23.0293 N   0  0  0  0  0  0  0  0  0  0  0  0
    6.3525    3.1214   23.1884 C   0  0  0  0  0  0  0  0  0  0  0  0
    5.4187    3.3682   23.6828 H   0  0  0  0  0  0  0  0  0  0  0  0
    7.2343    4.1138   22.7762 C   0  0  0  0  0  0  0  0  0  0  0  0
    6.9984    5.1527   22.9490 H   0  0  0  0  0  0  0  0  0  0  0  0
    8.4362    3.7436   22.1820 C   0  0  0  0  0  0  0  0  0  0  0  0
    9.1450    4.5234   21.9237 H   0  0  0  0  0  0  0  0  0  0  0  0
    8.6757    2.3802   21.9778 C   0  0  0  0  0  0  0  0  0  0  0  0
    9.9167    1.7679   21.3811 C   0  0  0  0  0  0  0  0  0  0  0  0
   10.7840    2.6327   20.8527 F   0  0  0  0  0  0  0  0  0  0  0  0
    9.5912    0.8878   20.4060 F   0  0  0  0  0  0  0  0  0  0  0  0
   10.5933    1.0589   22.3091 F   0  0  0  0  0  0  0  0  0  0  0  0
    5.4118    0.6448   20.1172 C   0  0  0  0  0  0  0  0  0  0  0  0
    5.0091    0.6437   21.1313 H   0  0  0  0  0  0  0  0  0  0  0  0
    4.7777    1.3026   19.0621 C   0  0  0  0  0  0  0  0  0  0  0  0
    3.8521    1.8467   19.2138 H   0  0  0  0  0  0  0  0  0  0  0  0
  1  2  1  0
  2  3  2  0
  3  4  1  0
  4  5  1  0
  4  6  2  0
  6  7  1  0
  7  8  2  0
  8  9  1  0
  8 10  1  0
 10 11  2  0
 11 12  1  0
 11 13  1  0
 13 14  1  0
 13 15  2  0
 15 16  1  0
 16 17  2  0
 17 18  1  0
 18 19  1  0
 18 20  2  0
 20 21  1  0
 20 22  1  0
 22 23  1  0
 22 24  2  0
 24 25  1  0
 25 26  1  0
 25 27  1  0
 25 28  1  0
  6 29  1  0
 29 30  1  0
 29 31  2  0
 31 32  1  0
 31  2  1  0
 15  7  1  0
 24 16  1  0
M  END
>  <cnnaffinity>  (1) 
-5.25648

>  <filename>  (1) 
FC(F)(F)c1cccnc1-c1ccncc1-c1cccnc1

$$$$
