
     RDKit          3D

 26 28  0  0  0  0  0  0  0  0999 V2000
    4.9184    1.7771   17.0006 H   0  0  0  0  0  0  0  0  0  0  0  0
    5.4043    1.2900   17.8420 C   0  0  0  0  0  0  0  0  0  0  0  0
    6.5689    0.6771   17.5772 N   0  0  0  0  0  0  0  0  0  0  0  0
    7.1742    0.0552   18.5907 C   0  0  0  0  0  0  0  0  0  0  0  0
    8.1229   -0.4338   18.3723 H   0  0  0  0  0  0  0  0  0  0  0  0
    6.6475    0.0114   19.8930 C   0  0  0  0  0  0  0  0  0  0  0  0
    7.4027   -0.6966   20.9236 C   0  0  0  0  0  0  0  0  0  0  0  0
    8.3275   -1.6014   20.7111 N   0  0  0  0  0  0  0  0  0  0  0  0
    8.8205   -2.0343   21.9230 N   0  0  0  0  0  0  0  0  0  0  0  0
    8.1845   -1.3499   22.8342 C   0  0  0  0  0  0  0  0  0  0  0  0
    8.2178   -1.0933   24.5655 S   0  0  0  0  0  0  0  0  0  0  0  0
    7.0050    0.1418   24.3059 C   0  0  0  0  0  0  0  0  0  0  0  0
    6.5891    0.7964   25.3927 O   0  0  0  0  0  0  0  0  0  0  0  0
    5.5990    1.8219   25.2754 C   0  0  0  0  0  0  0  0  0  0  0  0
    5.9430    2.6469   24.6433 H   0  0  0  0  0  0  0  0  0  0  0  0
    4.6588    1.4305   24.8737 H   0  0  0  0  0  0  0  0  0  0  0  0
    5.2831    2.4180   26.6582 C   0  0  0  0  0  0  0  0  0  0  0  0
    4.3497    3.3765   26.5158 F   0  0  0  0  0  0  0  0  0  0  0  0
    6.3508    2.9888   27.2260 F   0  0  0  0  0  0  0  0  0  0  0  0
    4.7880    1.5098   27.5056 F   0  0  0  0  0  0  0  0  0  0  0  0
    6.5910    0.3608   23.1031 N   0  0  0  0  0  0  0  0  0  0  0  0
    7.2634   -0.5118   22.2826 N   0  0  0  0  0  0  0  0  0  0  0  0
    5.4317    0.6528   20.1630 C   0  0  0  0  0  0  0  0  0  0  0  0
    5.0076    0.6378   21.1704 H   0  0  0  0  0  0  0  0  0  0  0  0
    4.8054    1.3078   19.1079 C   0  0  0  0  0  0  0  0  0  0  0  0
    3.8746    1.8432   19.2595 H   0  0  0  0  0  0  0  0  0  0  0  0
  1  2  1  0
  2  3  2  0
  3  4  1  0
  4  5  1  0
  4  6  2  0
  6  7  1  0
  7  8  2  0
  8  9  1  0
  9 10  2  0
 10 11  1  0
 11 12  1  0
 12 13  1  0
 13 14  1  0
 14 15  1  0
 14 16  1  0
 14 17  1  0
 17 18  1  0
 17 19  1  0
 17 20  1  0
 12 21  2  0
 21 22  1  0
  6 23  1  0
 23 24  1  0
 23 25  2  0
 25 26  1  0
 25  2  1  0
 22  7  1  0
 22 10  1  0
M  END
>  <cnnaffinity>  (1) 
-4.98655

>  <filename>  (1) 
FC(F)(F)COc1nn2c(-c3cccnc3)nnc2s1

$$$$
