
     RDKit          3D

 39 42  0  0  0  0  0  0  0  0999 V2000
   12.3713   -2.2259   22.2979 F   0  0  0  0  0  0  0  0  0  0  0  0
   11.2924   -1.4261   22.1913 C   0  0  0  0  0  0  0  0  0  0  0  0
   11.4892   -0.6191   21.1488 F   0  0  0  0  0  0  0  0  0  0  0  0
   11.2467   -0.6626   23.3018 F   0  0  0  0  0  0  0  0  0  0  0  0
   10.0574   -2.3019   22.0633 C   0  0  0  0  0  0  0  0  0  0  0  0
    8.8110   -1.5650   22.0015 N   0  0  0  0  0  0  0  0  0  0  0  0
    8.5034   -1.0563   20.7855 N   0  0  0  0  0  0  0  0  0  0  0  0
    7.3036   -0.5385   20.9679 C   0  0  0  0  0  0  0  0  0  0  0  0
    6.5602    0.0964   19.8851 C   0  0  0  0  0  0  0  0  0  0  0  0
    5.3268    0.7422   20.0605 C   0  0  0  0  0  0  0  0  0  0  0  0
    4.7592    1.3677   18.9539 C   0  0  0  0  0  0  0  0  0  0  0  0
    5.4308    1.3132   17.7255 C   0  0  0  0  0  0  0  0  0  0  0  0
    6.5864    0.6577   17.5412 N   0  0  0  0  0  0  0  0  0  0  0  0
    7.1309    0.0636   18.6041 C   0  0  0  0  0  0  0  0  0  0  0  0
    8.0643   -0.4711   18.4314 H   0  0  0  0  0  0  0  0  0  0  0  0
    5.0202    1.8155   16.8536 H   0  0  0  0  0  0  0  0  0  0  0  0
    3.8256    1.9140   19.0302 H   0  0  0  0  0  0  0  0  0  0  0  0
    4.8374    0.7505   21.0386 H   0  0  0  0  0  0  0  0  0  0  0  0
    6.8255   -0.6701   22.2242 N   0  0  0  0  0  0  0  0  0  0  0  0
    7.7838   -1.3097   22.8613 C   0  0  0  0  0  0  0  0  0  0  0  0
    7.6985   -1.7908   24.2855 C   0  0  0  0  0  0  0  0  0  0  0  0
    8.9138   -1.4151   25.1765 C   0  0  0  0  0  0  0  0  0  0  0  0
    8.6688   -1.7508   26.6672 C   0  0  0  0  0  0  0  0  0  0  0  0
    8.1700   -3.1606   26.7661 C   0  0  0  0  0  0  0  0  0  0  0  0
    7.6090   -3.8690   25.7323 C   0  0  0  0  0  0  0  0  0  0  0  0
    7.4661   -3.3348   24.3412 C   0  0  0  0  0  0  0  0  0  0  0  0
    6.4871   -3.5900   23.9301 H   0  0  0  0  0  0  0  0  0  0  0  0
    8.2071   -3.8283   23.6989 H   0  0  0  0  0  0  0  0  0  0  0  0
    7.2564   -5.1015   26.1794 N   0  0  0  0  0  0  0  0  0  0  0  0
    7.5603   -5.1948   27.4350 N   0  0  0  0  0  0  0  0  0  0  0  0
    8.1168   -4.0325   27.8002 N   0  0  0  0  0  0  0  0  0  0  0  0
    8.4501   -3.9432   28.7479 H   0  0  0  0  0  0  0  0  0  0  0  0
    9.5898   -1.5977   27.2416 H   0  0  0  0  0  0  0  0  0  0  0  0
    7.9310   -1.0546   27.0917 H   0  0  0  0  0  0  0  0  0  0  0  0
    9.1771   -0.3584   25.0569 H   0  0  0  0  0  0  0  0  0  0  0  0
    9.7822   -1.9940   24.8440 H   0  0  0  0  0  0  0  0  0  0  0  0
    6.8058   -1.2791   24.6725 H   0  0  0  0  0  0  0  0  0  0  0  0
   10.1254   -2.8272   21.1151 H   0  0  0  0  0  0  0  0  0  0  0  0
   10.0777   -3.0218   22.8794 H   0  0  0  0  0  0  0  0  0  0  0  0
  1  2  1  0
  2  3  1  0
  2  4  1  0
  2  5  1  0
  5  6  1  0
  6  7  1  0
  7  8  2  0
  8  9  1  0
  9 10  2  0
 10 11  1  0
 11 12  2  0
 12 13  1  0
 13 14  2  0
 14 15  1  0
 12 16  1  0
 11 17  1  0
 10 18  1  0
  8 19  1  0
 19 20  2  0
 20 21  1  0
 21 22  1  0
 22 23  1  0
 23 24  1  0
 24 25  2  0
 25 26  1  0
 26 27  1  0
 26 28  1  0
 25 29  1  0
 29 30  2  0
 30 31  1  0
 31 32  1  0
 23 33  1  0
 23 34  1  0
 22 35  1  0
 22 36  1  0
 21 37  1  0
  5 38  1  0
  5 39  1  0
 20  6  1  0
 26 21  1  0
 14  9  1  0
 31 24  1  0
M  END
>  <cnnaffinity>  (1) 
-5.9659

>  <filename>  (1) 
FC(F)(F)Cn1nc(-c2cccnc2)nc1C1CCc2[nH]nnc2C1

$$$$
