
     RDKit          3D

 35 37  0  0  0  0  0  0  0  0999 V2000
    6.5358   -1.4618   25.1626 F   0  0  0  0  0  0  0  0  0  0  0  0
    7.7632   -1.0632   25.5809 C   0  0  0  0  0  0  0  0  0  0  0  0
    7.6200   -0.5926   26.8345 F   0  0  0  0  0  0  0  0  0  0  0  0
    8.1120   -0.0201   24.8116 F   0  0  0  0  0  0  0  0  0  0  0  0
    8.7309   -2.2244   25.5164 C   0  0  0  0  0  0  0  0  0  0  0  0
    9.1378   -3.0395   26.5649 C   0  0  0  0  0  0  0  0  0  0  0  0
   10.0155   -4.1076   26.2746 C   0  0  0  0  0  0  0  0  0  0  0  0
   10.4421   -4.3680   25.0422 N   0  0  0  0  0  0  0  0  0  0  0  0
   10.0141   -3.6040   24.0137 N   0  0  0  0  0  0  0  0  0  0  0  0
    9.1793   -2.5942   24.2217 C   0  0  0  0  0  0  0  0  0  0  0  0
    8.6060   -1.9597   23.1265 N   0  0  0  0  0  0  0  0  0  0  0  0
    9.5003   -1.3100   22.1806 C   0  0  0  0  0  0  0  0  0  0  0  0
    8.7120   -0.5910   21.1141 C   0  0  0  0  0  0  0  0  0  0  0  0
    7.3869   -0.6931   20.9612 C   0  0  0  0  0  0  0  0  0  0  0  0
    6.6603    0.0148   19.8840 C   0  0  0  0  0  0  0  0  0  0  0  0
    5.4294    0.6495   20.1093 C   0  0  0  0  0  0  0  0  0  0  0  0
    4.8133    1.3107   19.0470 C   0  0  0  0  0  0  0  0  0  0  0  0
    5.4272    1.3071   17.7907 C   0  0  0  0  0  0  0  0  0  0  0  0
    6.5892    0.6807   17.5454 N   0  0  0  0  0  0  0  0  0  0  0  0
    7.1798    0.0681   18.5776 C   0  0  0  0  0  0  0  0  0  0  0  0
    8.1155   -0.4432   18.3594 H   0  0  0  0  0  0  0  0  0  0  0  0
    4.9687    1.8190   16.9465 H   0  0  0  0  0  0  0  0  0  0  0  0
    3.8770    1.8343   19.1815 H   0  0  0  0  0  0  0  0  0  0  0  0
    4.9757    0.6302   21.1033 H   0  0  0  0  0  0  0  0  0  0  0  0
    6.5744   -1.5082   21.9486 C   0  0  0  0  0  0  0  0  0  0  0  0
    7.4288   -2.6122   22.5565 C   0  0  0  0  0  0  0  0  0  0  0  0
    7.7235   -3.3675   21.8046 H   0  0  0  0  0  0  0  0  0  0  0  0
    6.8529   -3.1238   23.3353 H   0  0  0  0  0  0  0  0  0  0  0  0
    5.6868   -1.9265   21.4679 H   0  0  0  0  0  0  0  0  0  0  0  0
    6.2546   -0.8437   22.7615 H   0  0  0  0  0  0  0  0  0  0  0  0
    9.2896    0.0511   20.4583 H   0  0  0  0  0  0  0  0  0  0  0  0
   10.1983   -2.0273   21.7148 H   0  0  0  0  0  0  0  0  0  0  0  0
   10.1299   -0.5783   22.7094 H   0  0  0  0  0  0  0  0  0  0  0  0
   10.3920   -4.7539   27.0576 H   0  0  0  0  0  0  0  0  0  0  0  0
    8.7750   -2.8921   27.5751 H   0  0  0  0  0  0  0  0  0  0  0  0
  1  2  1  0
  2  3  1  0
  2  4  1  0
  2  5  1  0
  5  6  2  0
  6  7  1  0
  7  8  2  0
  8  9  1  0
  9 10  2  0
 10 11  1  0
 11 12  1  0
 12 13  1  0
 13 14  2  0
 14 15  1  0
 15 16  2  0
 16 17  1  0
 17 18  2  0
 18 19  1  0
 19 20  2  0
 20 21  1  0
 18 22  1  0
 17 23  1  0
 16 24  1  0
 14 25  1  0
 25 26  1  0
 26 27  1  0
 26 28  1  0
 25 29  1  0
 25 30  1  0
 13 31  1  0
 12 32  1  0
 12 33  1  0
  7 34  1  0
  6 35  1  0
 10  5  1  0
 26 11  1  0
 20 15  1  0
M  END
>  <cnnaffinity>  (1) 
-5.41308

>  <filename>  (1) 
FC(F)(F)c1ccnnc1N1CC=C(c2cccnc2)CC1

$$$$
