
     RDKit          3D

 35 38  0  0  0  0  0  0  0  0999 V2000
   12.3987   -1.8706   22.1552 F   0  0  0  0  0  0  0  0  0  0  0  0
   11.1970   -1.2488   22.3069 C   0  0  0  0  0  0  0  0  0  0  0  0
   11.1395   -0.7195   23.5586 F   0  0  0  0  0  0  0  0  0  0  0  0
   10.1137   -2.3036   22.1463 C   0  0  0  0  0  0  0  0  0  0  0  0
    8.7960   -1.7258   21.9639 N   0  0  0  0  0  0  0  0  0  0  0  0
    8.5324   -1.2092   20.7434 N   0  0  0  0  0  0  0  0  0  0  0  0
    7.3604   -0.6287   20.9161 C   0  0  0  0  0  0  0  0  0  0  0  0
    6.6465    0.0423   19.8491 C   0  0  0  0  0  0  0  0  0  0  0  0
    5.4256    0.6812   20.0927 C   0  0  0  0  0  0  0  0  0  0  0  0
    4.8074    1.3238   19.0268 C   0  0  0  0  0  0  0  0  0  0  0  0
    5.4274    1.3015   17.7714 C   0  0  0  0  0  0  0  0  0  0  0  0
    6.5882    0.6696   17.5300 N   0  0  0  0  0  0  0  0  0  0  0  0
    7.1802    0.0530   18.5561 C   0  0  0  0  0  0  0  0  0  0  0  0
    8.1196   -0.4594   18.3497 H   0  0  0  0  0  0  0  0  0  0  0  0
    4.9765    1.8117   16.9220 H   0  0  0  0  0  0  0  0  0  0  0  0
    3.8703    1.8500   19.1609 H   0  0  0  0  0  0  0  0  0  0  0  0
    5.0024    0.6646   21.0989 H   0  0  0  0  0  0  0  0  0  0  0  0
    6.8680   -0.7064   22.1734 N   0  0  0  0  0  0  0  0  0  0  0  0
    7.7673   -1.4333   22.8049 C   0  0  0  0  0  0  0  0  0  0  0  0
    7.7473   -1.8260   24.2232 C   0  0  0  0  0  0  0  0  0  0  0  0
    7.8020   -0.8240   25.1931 C   0  0  0  0  0  0  0  0  0  0  0  0
    7.9399   -1.1253   26.5558 C   0  0  0  0  0  0  0  0  0  0  0  0
    7.9833   -2.4429   26.9731 C   0  0  0  0  0  0  0  0  0  0  0  0
    7.8089   -3.4780   26.0347 C   0  0  0  0  0  0  0  0  0  0  0  0
    7.7173   -3.1750   24.6591 C   0  0  0  0  0  0  0  0  0  0  0  0
    7.5612   -4.6787   23.7907 S   0  0  0  0  0  0  0  0  0  0  0  0
    7.5822   -5.6434   25.1652 N   0  0  0  0  0  0  0  0  0  0  0  0
    7.7023   -4.9140   26.2291 C   0  0  0  0  0  0  0  0  0  0  0  0
    7.6826   -5.4025   27.1986 H   0  0  0  0  0  0  0  0  0  0  0  0
    8.1887   -2.6818   28.0051 H   0  0  0  0  0  0  0  0  0  0  0  0
    8.0237   -0.3116   27.2714 H   0  0  0  0  0  0  0  0  0  0  0  0
    7.7716    0.2074   24.8589 H   0  0  0  0  0  0  0  0  0  0  0  0
   10.3152   -2.8296   21.2192 H   0  0  0  0  0  0  0  0  0  0  0  0
   10.1281   -2.9995   22.9910 H   0  0  0  0  0  0  0  0  0  0  0  0
   11.1441   -0.4402   21.5709 H   0  0  0  0  0  0  0  0  0  0  0  0
  1  2  1  0
  2  3  1  0
  2  4  1  0
  4  5  1  0
  5  6  1  0
  6  7  2  0
  7  8  1  0
  8  9  2  0
  9 10  1  0
 10 11  2  0
 11 12  1  0
 12 13  2  0
 13 14  1  0
 11 15  1  0
 10 16  1  0
  9 17  1  0
  7 18  1  0
 18 19  2  0
 19 20  1  0
 20 21  2  0
 21 22  1  0
 22 23  2  0
 23 24  1  0
 24 25  2  0
 25 26  1  0
 26 27  1  0
 27 28  2  0
 28 29  1  0
 23 30  1  0
 22 31  1  0
 21 32  1  0
  4 33  1  0
  4 34  1  0
  2 35  1  0
 19  5  1  0
 25 20  1  0
 13  8  1  0
 28 24  1  0
M  END
>  <cnnaffinity>  (1) 
-6.16865

>  <filename>  (1) 
FC(F)Cn1nc(-c2cccnc2)nc1-c1cccc2cnsc12

$$$$
