
     RDKit          3D

 40 43  0  0  0  0  0  0  0  0999 V2000
    7.9775    4.6163   25.0392 F   0  0  0  0  0  0  0  0  0  0  0  0
    7.7282    3.7997   23.9949 C   0  0  0  0  0  0  0  0  0  0  0  0
    6.4095    3.5944   23.9455 F   0  0  0  0  0  0  0  0  0  0  0  0
    8.0777    4.4692   22.8820 F   0  0  0  0  0  0  0  0  0  0  0  0
    8.5251    2.5133   24.2339 C   0  0  0  0  0  0  0  0  0  0  0  0
    8.6515    1.6059   23.1050 N   0  0  0  0  0  0  0  0  0  0  0  0
    7.5960    0.8398   22.7550 N   0  0  0  0  0  0  0  0  0  0  0  0
    8.0852    0.0671   21.8074 C   0  0  0  0  0  0  0  0  0  0  0  0
    7.2087   -0.8369   20.9862 C   0  0  0  0  0  0  0  0  0  0  0  0
    6.5090   -0.1164   19.8276 C   0  0  0  0  0  0  0  0  0  0  0  0
    5.3333    0.6164   20.0483 C   0  0  0  0  0  0  0  0  0  0  0  0
    4.7763    1.3448   18.9938 C   0  0  0  0  0  0  0  0  0  0  0  0
    5.4090    1.3147   17.7501 C   0  0  0  0  0  0  0  0  0  0  0  0
    6.5208    0.6047   17.5063 N   0  0  0  0  0  0  0  0  0  0  0  0
    7.0455   -0.0855   18.5273 C   0  0  0  0  0  0  0  0  0  0  0  0
    7.9543   -0.6436   18.2981 H   0  0  0  0  0  0  0  0  0  0  0  0
    5.0100    1.8863   16.9131 H   0  0  0  0  0  0  0  0  0  0  0  0
    3.8813    1.9431   19.1226 H   0  0  0  0  0  0  0  0  0  0  0  0
    4.8658    0.6230   21.0348 H   0  0  0  0  0  0  0  0  0  0  0  0
    6.4640   -1.2594   21.6684 H   0  0  0  0  0  0  0  0  0  0  0  0
    7.8358   -1.6587   20.6274 H   0  0  0  0  0  0  0  0  0  0  0  0
    9.4144    0.2378   21.5565 N   0  0  0  0  0  0  0  0  0  0  0  0
    9.7244    1.2375   22.3543 C   0  0  0  0  0  0  0  0  0  0  0  0
   10.9579    2.0127   22.3791 C   0  0  0  0  0  0  0  0  0  0  0  0
   12.1969    1.3306   22.4951 C   0  0  0  0  0  0  0  0  0  0  0  0
   13.3504    1.9507   22.5739 N   0  0  0  0  0  0  0  0  0  0  0  0
   13.3546    3.3236   22.4715 C   0  0  0  0  0  0  0  0  0  0  0  0
   14.5855    4.0562   22.4629 C   0  0  0  0  0  0  0  0  0  0  0  0
   14.6818    5.3759   22.4356 N   0  0  0  0  0  0  0  0  0  0  0  0
   13.5189    6.0956   22.3598 C   0  0  0  0  0  0  0  0  0  0  0  0
   12.2736    5.5191   22.2707 C   0  0  0  0  0  0  0  0  0  0  0  0
   12.1699    4.0986   22.3411 C   0  0  0  0  0  0  0  0  0  0  0  0
   10.9499    3.3949   22.3043 C   0  0  0  0  0  0  0  0  0  0  0  0
   10.0227    3.9459   22.1924 H   0  0  0  0  0  0  0  0  0  0  0  0
   11.3755    6.1130   22.1209 H   0  0  0  0  0  0  0  0  0  0  0  0
   13.6447    7.1732   22.3792 H   0  0  0  0  0  0  0  0  0  0  0  0
   15.4731    3.4307   22.4574 H   0  0  0  0  0  0  0  0  0  0  0  0
   12.2339    0.2407   22.5520 H   0  0  0  0  0  0  0  0  0  0  0  0
    8.0033    1.9811   25.0317 H   0  0  0  0  0  0  0  0  0  0  0  0
    9.5164    2.8052   24.5861 H   0  0  0  0  0  0  0  0  0  0  0  0
  1  2  1  0
  2  3  1  0
  2  4  1  0
  2  5  1  0
  5  6  1  0
  6  7  1  0
  7  8  2  0
  8  9  1  0
  9 10  1  0
 10 11  2  0
 11 12  1  0
 12 13  2  0
 13 14  1  0
 14 15  2  0
 15 16  1  0
 13 17  1  0
 12 18  1  0
 11 19  1  0
  9 20  1  0
  9 21  1  0
  8 22  1  0
 22 23  2  0
 23 24  1  0
 24 25  2  0
 25 26  1  0
 26 27  2  0
 27 28  1  0
 28 29  2  0
 29 30  1  0
 30 31  2  0
 31 32  1  0
 32 33  2  0
 33 34  1  0
 31 35  1  0
 30 36  1  0
 28 37  1  0
 25 38  1  0
  5 39  1  0
  5 40  1  0
 23  6  1  0
 33 24  1  0
 15 10  1  0
 32 27  1  0
M  END
>  <cnnaffinity>  (1) 
-6.20711

>  <filename>  (1) 
FC(F)(F)Cn1nc(Cc2cccnc2)nc1-c1cnc2cnccc2c1

$$$$
