
     RDKit          3D

 30 32  0  0  0  0  0  0  0  0999 V2000
    4.9426    1.8065   16.9842 H   0  0  0  0  0  0  0  0  0  0  0  0
    5.4035    1.2787   17.8196 C   0  0  0  0  0  0  0  0  0  0  0  0
    6.5513    0.6332   17.5580 N   0  0  0  0  0  0  0  0  0  0  0  0
    7.1660    0.0159   18.5757 C   0  0  0  0  0  0  0  0  0  0  0  0
    8.1006   -0.4835   18.3256 H   0  0  0  0  0  0  0  0  0  0  0  0
    6.6887    0.0041   19.9095 C   0  0  0  0  0  0  0  0  0  0  0  0
    7.4366   -0.6512   21.0211 C   0  0  0  0  0  0  0  0  0  0  0  0
    8.3169   -2.1116   20.8158 S   0  0  0  0  0  0  0  0  0  0  0  0
    8.6956   -2.3384   22.4133 N   0  0  0  0  0  0  0  0  0  0  0  0
    8.2117   -1.3423   23.0998 C   0  0  0  0  0  0  0  0  0  0  0  0
    8.3936   -1.2958   24.1755 H   0  0  0  0  0  0  0  0  0  0  0  0
    7.5114   -0.3387   22.3653 C   0  0  0  0  0  0  0  0  0  0  0  0
    6.9866    0.8614   23.0245 C   0  0  0  0  0  0  0  0  0  0  0  0
    5.9621    0.7093   23.9702 C   0  0  0  0  0  0  0  0  0  0  0  0
    5.6911   -0.3015   24.2590 H   0  0  0  0  0  0  0  0  0  0  0  0
    5.3238    1.8176   24.5114 C   0  0  0  0  0  0  0  0  0  0  0  0
    4.4909    1.6881   25.1943 H   0  0  0  0  0  0  0  0  0  0  0  0
    5.7649    3.0992   24.1704 C   0  0  0  0  0  0  0  0  0  0  0  0
    5.2905    3.9743   24.5958 H   0  0  0  0  0  0  0  0  0  0  0  0
    6.8454    3.2632   23.3049 C   0  0  0  0  0  0  0  0  0  0  0  0
    7.2062    4.2656   23.0849 H   0  0  0  0  0  0  0  0  0  0  0  0
    7.4801    2.1493   22.7482 C   0  0  0  0  0  0  0  0  0  0  0  0
    8.7070    2.3232   21.8641 C   0  0  0  0  0  0  0  0  0  0  0  0
    9.6452    1.3795   22.0818 F   0  0  0  0  0  0  0  0  0  0  0  0
    8.3957    2.2416   20.5578 F   0  0  0  0  0  0  0  0  0  0  0  0
    9.3107    3.5052   22.0499 F   0  0  0  0  0  0  0  0  0  0  0  0
    5.4584    0.6493   20.1390 C   0  0  0  0  0  0  0  0  0  0  0  0
    5.0236    0.6460   21.1362 H   0  0  0  0  0  0  0  0  0  0  0  0
    4.8053    1.2953   19.0820 C   0  0  0  0  0  0  0  0  0  0  0  0
    3.8669    1.8293   19.2297 H   0  0  0  0  0  0  0  0  0  0  0  0
  1  2  1  0
  2  3  2  0
  3  4  1  0
  4  5  1  0
  4  6  2  0
  6  7  1  0
  7  8  1  0
  8  9  1  0
  9 10  2  0
 10 11  1  0
 10 12  1  0
 12 13  1  0
 13 14  2  0
 14 15  1  0
 14 16  1  0
 16 17  1  0
 16 18  2  0
 18 19  1  0
 18 20  1  0
 20 21  1  0
 20 22  2  0
 22 23  1  0
 23 24  1  0
 23 25  1  0
 23 26  1  0
  6 27  1  0
 27 28  1  0
 27 29  2  0
 29 30  1  0
 29  2  1  0
 12  7  2  0
 22 13  1  0
M  END
>  <cnnaffinity>  (1) 
-4.34997

>  <filename>  (1) 
FC(F)(F)c1ccccc1-c1cnsc1-c1cccnc1

$$$$
