
     RDKit          3D

 42 45  0  0  0  0  0  0  0  0999 V2000
    8.2765    0.5218   27.1324 F   0  0  0  0  0  0  0  0  0  0  0  0
    7.9019   -0.6155   26.5212 C   0  0  0  0  0  0  0  0  0  0  0  0
    8.8708   -1.5267   26.7839 F   0  0  0  0  0  0  0  0  0  0  0  0
    6.7908   -1.0639   27.1291 F   0  0  0  0  0  0  0  0  0  0  0  0
    7.6954   -0.3825   25.0425 C   0  0  0  0  0  0  0  0  0  0  0  0
    7.3465   -1.6324   24.2186 C   0  0  0  0  0  0  0  0  0  0  0  0
    7.5070   -1.3928   22.7848 N   0  0  0  0  0  0  0  0  0  0  0  0
    6.5422   -0.6948   22.1390 N   0  0  0  0  0  0  0  0  0  0  0  0
    6.9496   -0.7055   20.8858 C   0  0  0  0  0  0  0  0  0  0  0  0
    6.3062    0.0189   19.8010 C   0  0  0  0  0  0  0  0  0  0  0  0
    5.1249    0.7628   19.9588 C   0  0  0  0  0  0  0  0  0  0  0  0
    4.6484    1.4622   18.8541 C   0  0  0  0  0  0  0  0  0  0  0  0
    5.3624    1.3947   17.6507 C   0  0  0  0  0  0  0  0  0  0  0  0
    6.4885    0.6824   17.4923 N   0  0  0  0  0  0  0  0  0  0  0  0
    6.9467    0.0165   18.5544 C   0  0  0  0  0  0  0  0  0  0  0  0
    7.8689   -0.5459   18.4147 H   0  0  0  0  0  0  0  0  0  0  0  0
    5.0180    1.9396   16.7759 H   0  0  0  0  0  0  0  0  0  0  0  0
    3.7562    2.0772   18.9141 H   0  0  0  0  0  0  0  0  0  0  0  0
    4.6182    0.7969   20.9260 H   0  0  0  0  0  0  0  0  0  0  0  0
    8.1034   -1.3883   20.6768 N   0  0  0  0  0  0  0  0  0  0  0  0
    8.4590   -1.7596   21.8896 C   0  0  0  0  0  0  0  0  0  0  0  0
    9.8024   -2.3462   22.2267 C   0  0  0  0  0  0  0  0  0  0  0  0
   10.6078   -1.4862   23.1774 C   0  0  0  0  0  0  0  0  0  0  0  0
   10.5700   -1.5648   24.5382 C   0  0  0  0  0  0  0  0  0  0  0  0
   11.2437   -0.4949   25.1032 N   0  0  0  0  0  0  0  0  0  0  0  0
   11.7279    0.2951   24.0859 C   0  0  0  0  0  0  0  0  0  0  0  0
   12.5216    1.4461   24.0880 C   0  0  0  0  0  0  0  0  0  0  0  0
   12.7955    2.0056   22.8465 C   0  0  0  0  0  0  0  0  0  0  0  0
   12.2580    1.4137   21.6743 C   0  0  0  0  0  0  0  0  0  0  0  0
   11.5668    0.2800   21.6336 N   0  0  0  0  0  0  0  0  0  0  0  0
   11.3248   -0.2854   22.8471 C   0  0  0  0  0  0  0  0  0  0  0  0
   12.3831    1.9270   20.7215 H   0  0  0  0  0  0  0  0  0  0  0  0
   13.3993    2.9038   22.7557 H   0  0  0  0  0  0  0  0  0  0  0  0
   12.8760    1.8725   25.0199 H   0  0  0  0  0  0  0  0  0  0  0  0
   11.1288   -0.1930   26.0636 H   0  0  0  0  0  0  0  0  0  0  0  0
   10.1758   -2.3551   25.1660 H   0  0  0  0  0  0  0  0  0  0  0  0
   10.3195   -2.4352   21.2689 H   0  0  0  0  0  0  0  0  0  0  0  0
    9.6623   -3.3676   22.6096 H   0  0  0  0  0  0  0  0  0  0  0  0
    6.3019   -1.9112   24.3776 H   0  0  0  0  0  0  0  0  0  0  0  0
    7.9601   -2.4862   24.5072 H   0  0  0  0  0  0  0  0  0  0  0  0
    6.8896    0.3494   24.9525 H   0  0  0  0  0  0  0  0  0  0  0  0
    8.6055    0.0881   24.6656 H   0  0  0  0  0  0  0  0  0  0  0  0
  1  2  1  0
  2  3  1  0
  2  4  1  0
  2  5  1  0
  5  6  1  0
  6  7  1  0
  7  8  1  0
  8  9  2  0
  9 10  1  0
 10 11  2  0
 11 12  1  0
 12 13  2  0
 13 14  1  0
 14 15  2  0
 15 16  1  0
 13 17  1  0
 12 18  1  0
 11 19  1  0
  9 20  1  0
 20 21  2  0
 21 22  1  0
 22 23  1  0
 23 24  2  0
 24 25  1  0
 25 26  1  0
 26 27  2  0
 27 28  1  0
 28 29  2  0
 29 30  1  0
 30 31  2  0
 29 32  1  0
 28 33  1  0
 27 34  1  0
 25 35  1  0
 24 36  1  0
 22 37  1  0
 22 38  1  0
  6 39  1  0
  6 40  1  0
  5 41  1  0
  5 42  1  0
 21  7  1  0
 31 23  1  0
 15 10  1  0
 31 26  1  0
M  END
>  <cnnaffinity>  (1) 
-6.14201

>  <filename>  (1) 
FC(F)(F)CCn1nc(-c2cccnc2)nc1Cc1c[nH]c2cccnc12

$$$$
