
     RDKit          3D

 30 32  0  0  0  0  0  0  0  0999 V2000
    5.0194    1.7483   16.9585 H   0  0  0  0  0  0  0  0  0  0  0  0
    5.4288    1.2240   17.8199 C   0  0  0  0  0  0  0  0  0  0  0  0
    6.5539    0.5188   17.6063 N   0  0  0  0  0  0  0  0  0  0  0  0
    7.0942   -0.1117   18.6502 C   0  0  0  0  0  0  0  0  0  0  0  0
    7.9827   -0.7132   18.4681 H   0  0  0  0  0  0  0  0  0  0  0  0
    6.5793   -0.0425   19.9564 C   0  0  0  0  0  0  0  0  0  0  0  0
    7.2986   -0.7031   20.9862 N   0  0  0  0  0  0  0  0  0  0  0  0
    7.9717   -1.8219   20.6620 N   0  0  0  0  0  0  0  0  0  0  0  0
    8.4527   -2.2894   21.8018 C   0  0  0  0  0  0  0  0  0  0  0  0
    9.0439   -3.1953   21.8094 H   0  0  0  0  0  0  0  0  0  0  0  0
    8.1051   -1.4677   22.8862 C   0  0  0  0  0  0  0  0  0  0  0  0
    8.3823   -1.5964   23.9218 H   0  0  0  0  0  0  0  0  0  0  0  0
    7.4029   -0.4248   22.3280 C   0  0  0  0  0  0  0  0  0  0  0  0
    6.9938    0.8577   22.9651 C   0  0  0  0  0  0  0  0  0  0  0  0
    6.0532    0.7549   23.9091 N   0  0  0  0  0  0  0  0  0  0  0  0
    5.5599    1.8738   24.4445 C   0  0  0  0  0  0  0  0  0  0  0  0
    4.7897    1.7474   25.2009 H   0  0  0  0  0  0  0  0  0  0  0  0
    5.9792    3.1509   24.0712 C   0  0  0  0  0  0  0  0  0  0  0  0
    5.5149    4.0206   24.5146 H   0  0  0  0  0  0  0  0  0  0  0  0
    7.0142    3.2734   23.1523 C   0  0  0  0  0  0  0  0  0  0  0  0
    7.3728    4.2623   22.8592 H   0  0  0  0  0  0  0  0  0  0  0  0
    7.5924    2.0973   22.6641 C   0  0  0  0  0  0  0  0  0  0  0  0
    8.8562    2.1069   21.8496 C   0  0  0  0  0  0  0  0  0  0  0  0
    9.5013    3.2753   21.9690 F   0  0  0  0  0  0  0  0  0  0  0  0
    8.5989    1.9024   20.5453 F   0  0  0  0  0  0  0  0  0  0  0  0
    9.7289    1.1466   22.2051 F   0  0  0  0  0  0  0  0  0  0  0  0
    5.3794    0.6492   20.1682 C   0  0  0  0  0  0  0  0  0  0  0  0
    4.9091    0.6788   21.1529 H   0  0  0  0  0  0  0  0  0  0  0  0
    4.7988    1.2902   19.0677 C   0  0  0  0  0  0  0  0  0  0  0  0
    3.8741    1.8473   19.1710 H   0  0  0  0  0  0  0  0  0  0  0  0
  1  2  1  0
  2  3  2  0
  3  4  1  0
  4  5  1  0
  4  6  2  0
  6  7  1  0
  7  8  1  0
  8  9  2  0
  9 10  1  0
  9 11  1  0
 11 12  1  0
 11 13  2  0
 13 14  1  0
 14 15  2  0
 15 16  1  0
 16 17  1  0
 16 18  2  0
 18 19  1  0
 18 20  1  0
 20 21  1  0
 20 22  2  0
 22 23  1  0
 23 24  1  0
 23 25  1  0
 23 26  1  0
  6 27  1  0
 27 28  1  0
 27 29  2  0
 29 30  1  0
 29  2  1  0
 13  7  1  0
 22 14  1  0
M  END
>  <cnnaffinity>  (1) 
-4.98766

>  <filename>  (1) 
FC(F)(F)c1cccnc1-c1ccnn1-c1cccnc1

$$$$
