
     RDKit          3D

 24 25  0  0  0  0  0  0  0  0999 V2000
    4.9180    1.7854   16.9968 H   0  0  0  0  0  0  0  0  0  0  0  0
    5.4003    1.2950   17.8407 C   0  0  0  0  0  0  0  0  0  0  0  0
    6.5606    0.6733   17.5775 N   0  0  0  0  0  0  0  0  0  0  0  0
    7.1813    0.0657   18.5950 C   0  0  0  0  0  0  0  0  0  0  0  0
    8.1166   -0.4433   18.3670 H   0  0  0  0  0  0  0  0  0  0  0  0
    6.6802    0.0302   19.9104 C   0  0  0  0  0  0  0  0  0  0  0  0
    7.3584   -0.6782   20.9544 N   0  0  0  0  0  0  0  0  0  0  0  0
    8.6097   -0.4146   21.4884 C   0  0  0  0  0  0  0  0  0  0  0  0
    9.4528    0.7276   21.1045 C   0  0  0  0  0  0  0  0  0  0  0  0
    9.3157    0.9656   20.0538 H   0  0  0  0  0  0  0  0  0  0  0  0
   10.5000    0.4929   21.2972 H   0  0  0  0  0  0  0  0  0  0  0  0
    9.0895    1.9413   21.9200 C   0  0  0  0  0  0  0  0  0  0  0  0
    7.8264    2.3394   21.6771 F   0  0  0  0  0  0  0  0  0  0  0  0
    9.2084    1.7164   23.2357 F   0  0  0  0  0  0  0  0  0  0  0  0
    9.9173    2.9452   21.6094 F   0  0  0  0  0  0  0  0  0  0  0  0
    8.9253   -1.2386   22.4296 N   0  0  0  0  0  0  0  0  0  0  0  0
    7.8433   -2.0576   22.5021 N   0  0  0  0  0  0  0  0  0  0  0  0
    7.7717   -2.8120   23.1639 H   0  0  0  0  0  0  0  0  0  0  0  0
    6.8532   -1.7833   21.6319 C   0  0  0  0  0  0  0  0  0  0  0  0
    5.4522   -2.6449   21.4383 S   0  0  0  0  0  0  0  0  0  0  0  0
    5.4551    0.6452   20.1697 C   0  0  0  0  0  0  0  0  0  0  0  0
    5.0272    0.6063   21.1728 H   0  0  0  0  0  0  0  0  0  0  0  0
    4.8173    1.3055   19.1120 C   0  0  0  0  0  0  0  0  0  0  0  0
    3.8860    1.8336   19.2636 H   0  0  0  0  0  0  0  0  0  0  0  0
  1  2  1  0
  2  3  2  0
  3  4  1  0
  4  5  1  0
  4  6  2  0
  6  7  1  0
  7  8  1  0
  8  9  1  0
  9 10  1  0
  9 11  1  0
  9 12  1  0
 12 13  1  0
 12 14  1  0
 12 15  1  0
  8 16  2  0
 16 17  1  0
 17 18  1  0
 17 19  1  0
 19 20  2  0
  6 21  1  0
 21 22  1  0
 21 23  2  0
 23 24  1  0
 23  2  1  0
 19  7  1  0
M  END
>  <cnnaffinity>  (1) 
-4.54924

>  <filename>  (1) 
FC(F)(F)Cc1n[nH]c(=S)n1-c1cccnc1

$$$$
