
     RDKit          3D

 24 25  0  0  0  0  0  0  0  0999 V2000
    4.9120    1.7850   16.9935 H   0  0  0  0  0  0  0  0  0  0  0  0
    5.3969    1.2953   17.8350 C   0  0  0  0  0  0  0  0  0  0  0  0
    6.5605    0.6805   17.5681 N   0  0  0  0  0  0  0  0  0  0  0  0
    7.1576    0.0431   18.5806 C   0  0  0  0  0  0  0  0  0  0  0  0
    8.1150   -0.4319   18.3656 H   0  0  0  0  0  0  0  0  0  0  0  0
    6.6350   -0.0281   19.8849 C   0  0  0  0  0  0  0  0  0  0  0  0
    7.5413   -0.8116   21.2114 S   0  0  0  0  0  0  0  0  0  0  0  0
    8.4577    0.6372   21.7215 C   0  0  0  0  0  0  0  0  0  0  0  0
    7.8861    1.4409   22.6011 N   0  0  0  0  0  0  0  0  0  0  0  0
    8.5513    2.5555   22.9665 C   0  0  0  0  0  0  0  0  0  0  0  0
    7.9018    3.4817   24.0111 C   0  0  0  0  0  0  0  0  0  0  0  0
    7.7355    4.7285   23.5203 F   0  0  0  0  0  0  0  0  0  0  0  0
    6.7120    3.0653   24.4505 F   0  0  0  0  0  0  0  0  0  0  0  0
    8.7014    3.6227   25.0917 F   0  0  0  0  0  0  0  0  0  0  0  0
    9.8062    2.8969   22.4379 C   0  0  0  0  0  0  0  0  0  0  0  0
   10.3109    3.8022   22.7554 H   0  0  0  0  0  0  0  0  0  0  0  0
   10.3870    2.0567   21.4869 C   0  0  0  0  0  0  0  0  0  0  0  0
   11.3579    2.2925   21.0507 H   0  0  0  0  0  0  0  0  0  0  0  0
    9.6984    0.9054   21.1189 C   0  0  0  0  0  0  0  0  0  0  0  0
   10.0768    0.2002   20.3970 H   0  0  0  0  0  0  0  0  0  0  0  0
    5.4315    0.6395   20.1545 C   0  0  0  0  0  0  0  0  0  0  0  0
    5.0250    0.6377   21.1698 H   0  0  0  0  0  0  0  0  0  0  0  0
    4.8021    1.3109   19.1010 C   0  0  0  0  0  0  0  0  0  0  0  0
    3.8722    1.8470   19.2590 H   0  0  0  0  0  0  0  0  0  0  0  0
  1  2  1  0
  2  3  2  0
  3  4  1  0
  4  5  1  0
  4  6  2  0
  6  7  1  0
  7  8  1  0
  8  9  2  0
  9 10  1  0
 10 11  1  0
 11 12  1  0
 11 13  1  0
 11 14  1  0
 10 15  2  0
 15 16  1  0
 15 17  1  0
 17 18  1  0
 17 19  2  0
 19 20  1  0
  6 21  1  0
 21 22  1  0
 21 23  2  0
 23 24  1  0
 23  2  1  0
 19  8  1  0
M  END
>  <cnnaffinity>  (1) 
-4.43966

>  <filename>  (1) 
FC(F)(F)c1cccc(Sc2cccnc2)n1

$$$$
