
     RDKit          3D

 35 38  0  0  0  0  0  0  0  0999 V2000
   11.3017   -0.7576   23.3452 F   0  0  0  0  0  0  0  0  0  0  0  0
   11.3012   -1.6411   22.3250 C   0  0  0  0  0  0  0  0  0  0  0  0
   12.2393   -2.5720   22.5662 F   0  0  0  0  0  0  0  0  0  0  0  0
   11.6697   -0.9954   21.2181 F   0  0  0  0  0  0  0  0  0  0  0  0
    9.9870   -2.3923   22.1887 C   0  0  0  0  0  0  0  0  0  0  0  0
    8.8038   -1.5714   22.0654 N   0  0  0  0  0  0  0  0  0  0  0  0
    8.5431   -1.0702   20.8345 N   0  0  0  0  0  0  0  0  0  0  0  0
    7.3283   -0.5693   20.9643 C   0  0  0  0  0  0  0  0  0  0  0  0
    6.6018    0.0950   19.8841 C   0  0  0  0  0  0  0  0  0  0  0  0
    5.3645    0.7336   20.0784 C   0  0  0  0  0  0  0  0  0  0  0  0
    4.7763    1.3575   18.9818 C   0  0  0  0  0  0  0  0  0  0  0  0
    5.4279    1.3053   17.7441 C   0  0  0  0  0  0  0  0  0  0  0  0
    6.5856    0.6582   17.5425 N   0  0  0  0  0  0  0  0  0  0  0  0
    7.1556    0.0698   18.5969 C   0  0  0  0  0  0  0  0  0  0  0  0
    8.0905   -0.4572   18.4041 H   0  0  0  0  0  0  0  0  0  0  0  0
    4.9960    1.8021   16.8787 H   0  0  0  0  0  0  0  0  0  0  0  0
    3.8336    1.8865   19.0740 H   0  0  0  0  0  0  0  0  0  0  0  0
    4.8812    0.7234   21.0594 H   0  0  0  0  0  0  0  0  0  0  0  0
    6.7796   -0.7491   22.1854 N   0  0  0  0  0  0  0  0  0  0  0  0
    7.7219   -1.3717   22.8662 C   0  0  0  0  0  0  0  0  0  0  0  0
    7.6896   -1.7757   24.3008 C   0  0  0  0  0  0  0  0  0  0  0  0
    6.5512   -2.4134   24.8633 C   0  0  0  0  0  0  0  0  0  0  0  0
    5.3164   -2.9868   24.4342 C   0  0  0  0  0  0  0  0  0  0  0  0
    4.6251   -3.4921   25.4333 N   0  0  0  0  0  0  0  0  0  0  0  0
    5.3842   -3.2706   26.5322 N   0  0  0  0  0  0  0  0  0  0  0  0
    6.5294   -2.6171   26.2584 C   0  0  0  0  0  0  0  0  0  0  0  0
    7.4583   -2.2525   27.1522 N   0  0  0  0  0  0  0  0  0  0  0  0
    8.5167   -1.6951   26.5934 C   0  0  0  0  0  0  0  0  0  0  0  0
    9.7454   -1.1532   27.6888 Cl  0  0  0  0  0  0  0  0  0  0  0  0
    8.7263   -1.4797   25.2031 C   0  0  0  0  0  0  0  0  0  0  0  0
    9.6746   -1.0667   24.8774 H   0  0  0  0  0  0  0  0  0  0  0  0
    5.0691   -3.4465   27.4706 H   0  0  0  0  0  0  0  0  0  0  0  0
    4.9281   -3.0120   23.4279 H   0  0  0  0  0  0  0  0  0  0  0  0
   10.0615   -2.9446   21.2547 H   0  0  0  0  0  0  0  0  0  0  0  0
    9.9052   -3.1030   23.0111 H   0  0  0  0  0  0  0  0  0  0  0  0
  1  2  1  0
  2  3  1  0
  2  4  1  0
  2  5  1  0
  5  6  1  0
  6  7  1  0
  7  8  2  0
  8  9  1  0
  9 10  2  0
 10 11  1  0
 11 12  2  0
 12 13  1  0
 13 14  2  0
 14 15  1  0
 12 16  1  0
 11 17  1  0
 10 18  1  0
  8 19  1  0
 19 20  2  0
 20 21  1  0
 21 22  2  0
 22 23  1  0
 23 24  2  0
 24 25  1  0
 25 26  1  0
 26 27  2  0
 27 28  1  0
 28 29  1  0
 28 30  2  0
 30 31  1  0
 25 32  1  0
 23 33  1  0
  5 34  1  0
  5 35  1  0
 20  6  1  0
 30 21  1  0
 14  9  1  0
 26 22  1  0
M  END
>  <cnnaffinity>  (1) 
-5.636

>  <filename>  (1) 
FC(F)(F)Cn1nc(-c2cccnc2)nc1-c1cc(Cl)nc2[nH]ncc12

$$$$
