
     RDKit          3D

 41 43  0  0  0  0  0  0  0  0999 V2000
   11.1397   -0.8664   23.4834 F   0  0  0  0  0  0  0  0  0  0  0  0
   11.2335   -1.5445   22.3208 C   0  0  0  0  0  0  0  0  0  0  0  0
   11.4439   -0.6677   21.3348 F   0  0  0  0  0  0  0  0  0  0  0  0
   12.3206   -2.3339   22.3713 F   0  0  0  0  0  0  0  0  0  0  0  0
   10.0208   -2.4367   22.1160 C   0  0  0  0  0  0  0  0  0  0  0  0
    8.7502   -1.7546   22.0092 N   0  0  0  0  0  0  0  0  0  0  0  0
    8.4469   -1.2800   20.7846 N   0  0  0  0  0  0  0  0  0  0  0  0
    7.3154   -0.6425   20.9846 C   0  0  0  0  0  0  0  0  0  0  0  0
    6.6164    0.0255   19.9031 C   0  0  0  0  0  0  0  0  0  0  0  0
    5.4021    0.6741   20.1334 C   0  0  0  0  0  0  0  0  0  0  0  0
    4.7967    1.3182   19.0605 C   0  0  0  0  0  0  0  0  0  0  0  0
    5.4292    1.2876   17.8123 C   0  0  0  0  0  0  0  0  0  0  0  0
    6.5909    0.6542   17.5816 N   0  0  0  0  0  0  0  0  0  0  0  0
    7.1745    0.0375   18.6156 C   0  0  0  0  0  0  0  0  0  0  0  0
    8.1236   -0.4592   18.4090 H   0  0  0  0  0  0  0  0  0  0  0  0
    4.9823    1.7962   16.9608 H   0  0  0  0  0  0  0  0  0  0  0  0
    3.8639    1.8501   19.1927 H   0  0  0  0  0  0  0  0  0  0  0  0
    4.9836    0.6681   21.1414 H   0  0  0  0  0  0  0  0  0  0  0  0
    6.8750   -0.6614   22.2695 N   0  0  0  0  0  0  0  0  0  0  0  0
    7.7930   -1.3707   22.8938 C   0  0  0  0  0  0  0  0  0  0  0  0
    7.8023   -1.8352   24.3159 C   0  0  0  0  0  0  0  0  0  0  0  0
    7.2170   -3.2524   24.4962 C   0  0  0  0  0  0  0  0  0  0  0  0
    5.7263   -3.3340   24.1196 C   0  0  0  0  0  0  0  0  0  0  0  0
    5.1280   -4.6997   24.3365 C   0  0  0  0  0  0  0  0  0  0  0  0
    4.5820   -5.0750   25.5711 C   0  0  0  0  0  0  0  0  0  0  0  0
    4.1315   -6.3814   25.7622 C   0  0  0  0  0  0  0  0  0  0  0  0
    4.1800   -7.3316   24.8188 N   0  0  0  0  0  0  0  0  0  0  0  0
    4.6930   -6.9681   23.6374 C   0  0  0  0  0  0  0  0  0  0  0  0
    5.1618   -5.6880   23.3455 C   0  0  0  0  0  0  0  0  0  0  0  0
    5.5541   -5.4864   22.3568 H   0  0  0  0  0  0  0  0  0  0  0  0
    4.7431   -7.7453   22.8857 H   0  0  0  0  0  0  0  0  0  0  0  0
    3.7152   -6.6808   26.7215 H   0  0  0  0  0  0  0  0  0  0  0  0
    4.5163   -4.3703   26.3899 H   0  0  0  0  0  0  0  0  0  0  0  0
    5.1755   -2.5931   24.7124 H   0  0  0  0  0  0  0  0  0  0  0  0
    5.5992   -3.0312   23.0734 H   0  0  0  0  0  0  0  0  0  0  0  0
    7.7886   -3.9625   23.8837 H   0  0  0  0  0  0  0  0  0  0  0  0
    7.3429   -3.5690   25.5393 H   0  0  0  0  0  0  0  0  0  0  0  0
    7.2244   -1.1224   24.9113 H   0  0  0  0  0  0  0  0  0  0  0  0
    8.8330   -1.7859   24.6885 H   0  0  0  0  0  0  0  0  0  0  0  0
   10.0041   -3.1933   22.9010 H   0  0  0  0  0  0  0  0  0  0  0  0
   10.1550   -2.9163   21.1560 H   0  0  0  0  0  0  0  0  0  0  0  0
  1  2  1  0
  2  3  1  0
  2  4  1  0
  2  5  1  0
  5  6  1  0
  6  7  1  0
  7  8  2  0
  8  9  1  0
  9 10  2  0
 10 11  1  0
 11 12  2  0
 12 13  1  0
 13 14  2  0
 14 15  1  0
 12 16  1  0
 11 17  1  0
 10 18  1  0
  8 19  1  0
 19 20  2  0
 20 21  1  0
 21 22  1  0
 22 23  1  0
 23 24  1  0
 24 25  2  0
 25 26  1  0
 26 27  2  0
 27 28  1  0
 28 29  2  0
 29 30  1  0
 28 31  1  0
 26 32  1  0
 25 33  1  0
 23 34  1  0
 23 35  1  0
 22 36  1  0
 22 37  1  0
 21 38  1  0
 21 39  1  0
  5 40  1  0
  5 41  1  0
 20  6  1  0
 29 24  1  0
 14  9  1  0
M  END
>  <cnnaffinity>  (1) 
-6.31962

>  <filename>  (1) 
FC(F)(F)Cn1nc(-c2cccnc2)nc1CCCc1ccncc1

$$$$
