
     RDKit          3D

 28 29  0  0  0  0  0  0  0  0999 V2000
    4.9188    1.7931   16.9870 H   0  0  0  0  0  0  0  0  0  0  0  0
    5.3993    1.2994   17.8269 C   0  0  0  0  0  0  0  0  0  0  0  0
    6.5648    0.6839   17.5628 N   0  0  0  0  0  0  0  0  0  0  0  0
    7.1693    0.0603   18.5812 C   0  0  0  0  0  0  0  0  0  0  0  0
    8.1182   -0.4253   18.3622 H   0  0  0  0  0  0  0  0  0  0  0  0
    6.6580   -0.0190   19.9070 C   0  0  0  0  0  0  0  0  0  0  0  0
    7.2858   -0.8024   20.8960 N   0  0  0  0  0  0  0  0  0  0  0  0
    8.1779   -1.2180   20.6777 H   0  0  0  0  0  0  0  0  0  0  0  0
    7.0381   -0.5969   22.5628 S   0  0  0  0  0  0  0  0  0  0  0  0
    8.0722    0.8247   22.9181 C   0  0  0  0  0  0  0  0  0  0  0  0
    7.5667    2.1251   22.8045 C   0  0  0  0  0  0  0  0  0  0  0  0
    6.5246    2.2885   22.5382 H   0  0  0  0  0  0  0  0  0  0  0  0
    8.4336    3.2066   22.9846 C   0  0  0  0  0  0  0  0  0  0  0  0
    8.0495    4.2153   22.8779 H   0  0  0  0  0  0  0  0  0  0  0  0
    9.7789    2.9981   23.2912 C   0  0  0  0  0  0  0  0  0  0  0  0
   10.4668    3.8229   23.4406 H   0  0  0  0  0  0  0  0  0  0  0  0
   10.2570    1.6915   23.4125 C   0  0  0  0  0  0  0  0  0  0  0  0
   11.6130    1.5931   23.6973 O   0  0  0  0  0  0  0  0  0  0  0  0
   12.2132    0.3960   23.8636 C   0  0  0  0  0  0  0  0  0  0  0  0
   13.4838    0.6441   24.1524 F   0  0  0  0  0  0  0  0  0  0  0  0
   12.1733   -0.3818   22.7657 F   0  0  0  0  0  0  0  0  0  0  0  0
   11.6689   -0.3154   24.8651 F   0  0  0  0  0  0  0  0  0  0  0  0
    9.4174    0.5924   23.2408 C   0  0  0  0  0  0  0  0  0  0  0  0
    9.7975   -0.4216   23.3051 H   0  0  0  0  0  0  0  0  0  0  0  0
    5.4499    0.6500   20.1604 C   0  0  0  0  0  0  0  0  0  0  0  0
    5.0171    0.6205   21.1596 H   0  0  0  0  0  0  0  0  0  0  0  0
    4.8204    1.3097   19.1000 C   0  0  0  0  0  0  0  0  0  0  0  0
    3.8878    1.8312   19.2612 H   0  0  0  0  0  0  0  0  0  0  0  0
  1  2  1  0
  2  3  2  0
  3  4  1  0
  4  5  1  0
  4  6  2  0
  6  7  1  0
  7  8  1  0
  7  9  1  0
  9 10  1  0
 10 11  2  0
 11 12  1  0
 11 13  1  0
 13 14  1  0
 13 15  2  0
 15 16  1  0
 15 17  1  0
 17 18  1  0
 18 19  1  0
 19 20  1  0
 19 21  1  0
 19 22  1  0
 17 23  2  0
 23 24  1  0
  6 25  1  0
 25 26  1  0
 25 27  2  0
 27 28  1  0
 27  2  1  0
 23 10  1  0
M  END
>  <cnnaffinity>  (1) 
-5.31865

>  <filename>  (1) 
FC(F)(F)Oc1cccc(SNc2cccnc2)c1

$$$$
