
     RDKit          3D

 35 38  0  0  0  0  0  0  0  0999 V2000
   12.3516   -2.0075   22.4146 F   0  0  0  0  0  0  0  0  0  0  0  0
   11.1785   -1.3485   22.4550 C   0  0  0  0  0  0  0  0  0  0  0  0
   11.2344   -0.3793   21.5388 F   0  0  0  0  0  0  0  0  0  0  0  0
   11.0675   -0.7600   23.6573 F   0  0  0  0  0  0  0  0  0  0  0  0
   10.0862   -2.3758   22.1851 C   0  0  0  0  0  0  0  0  0  0  0  0
    8.7685   -1.8286   21.9752 N   0  0  0  0  0  0  0  0  0  0  0  0
    8.5062   -1.3272   20.7487 N   0  0  0  0  0  0  0  0  0  0  0  0
    7.3647   -0.6964   20.9338 C   0  0  0  0  0  0  0  0  0  0  0  0
    6.6594    0.0104   19.8830 C   0  0  0  0  0  0  0  0  0  0  0  0
    5.4440    0.6537   20.1466 C   0  0  0  0  0  0  0  0  0  0  0  0
    4.8133    1.3029   19.0933 C   0  0  0  0  0  0  0  0  0  0  0  0
    5.4213    1.2812   17.8320 C   0  0  0  0  0  0  0  0  0  0  0  0
    6.5825    0.6596   17.5731 N   0  0  0  0  0  0  0  0  0  0  0  0
    7.1925    0.0440   18.5889 C   0  0  0  0  0  0  0  0  0  0  0  0
    8.1436   -0.4400   18.3647 H   0  0  0  0  0  0  0  0  0  0  0  0
    4.9532    1.7896   16.9937 H   0  0  0  0  0  0  0  0  0  0  0  0
    3.8799    1.8345   19.2417 H   0  0  0  0  0  0  0  0  0  0  0  0
    5.0230    0.6366   21.1555 H   0  0  0  0  0  0  0  0  0  0  0  0
    6.8938   -0.7369   22.2015 N   0  0  0  0  0  0  0  0  0  0  0  0
    7.7823   -1.4667   22.8368 C   0  0  0  0  0  0  0  0  0  0  0  0
    7.8035   -1.7922   24.2788 C   0  0  0  0  0  0  0  0  0  0  0  0
    7.7361   -0.8107   25.2938 C   0  0  0  0  0  0  0  0  0  0  0  0
    7.7280   -1.1866   26.6526 C   0  0  0  0  0  0  0  0  0  0  0  0
    7.7587   -2.4568   27.0946 N   0  0  0  0  0  0  0  0  0  0  0  0
    7.8177   -3.3458   26.1103 C   0  0  0  0  0  0  0  0  0  0  0  0
    7.8780   -3.1257   24.7157 C   0  0  0  0  0  0  0  0  0  0  0  0
    7.9604   -4.3335   24.0380 N   0  0  0  0  0  0  0  0  0  0  0  0
    7.9062   -5.2288   24.9890 C   0  0  0  0  0  0  0  0  0  0  0  0
    7.8238   -4.7018   26.2429 N   0  0  0  0  0  0  0  0  0  0  0  0
    7.7816   -5.1553   27.1379 H   0  0  0  0  0  0  0  0  0  0  0  0
    7.9004   -6.2976   24.8155 H   0  0  0  0  0  0  0  0  0  0  0  0
    7.6746   -0.4168   27.4152 H   0  0  0  0  0  0  0  0  0  0  0  0
    7.7015    0.2435   25.0351 H   0  0  0  0  0  0  0  0  0  0  0  0
   10.0837   -3.0986   22.9988 H   0  0  0  0  0  0  0  0  0  0  0  0
   10.3429   -2.8480   21.2440 H   0  0  0  0  0  0  0  0  0  0  0  0
  1  2  1  0
  2  3  1  0
  2  4  1  0
  2  5  1  0
  5  6  1  0
  6  7  1  0
  7  8  2  0
  8  9  1  0
  9 10  2  0
 10 11  1  0
 11 12  2  0
 12 13  1  0
 13 14  2  0
 14 15  1  0
 12 16  1  0
 11 17  1  0
 10 18  1  0
  8 19  1  0
 19 20  2  0
 20 21  1  0
 21 22  2  0
 22 23  1  0
 23 24  2  0
 24 25  1  0
 25 26  2  0
 26 27  1  0
 27 28  2  0
 28 29  1  0
 29 30  1  0
 28 31  1  0
 23 32  1  0
 22 33  1  0
  5 34  1  0
  5 35  1  0
 20  6  1  0
 26 21  1  0
 14  9  1  0
 29 25  1  0
M  END
>  <cnnaffinity>  (1) 
-6.03981

>  <filename>  (1) 
FC(F)(F)Cn1nc(-c2cccnc2)nc1-c1ccnc2[nH]cnc12

$$$$
