
     RDKit          3D

 30 32  0  0  0  0  0  0  0  0999 V2000
    4.9145    1.7911   16.9893 H   0  0  0  0  0  0  0  0  0  0  0  0
    5.3947    1.2992   17.8306 C   0  0  0  0  0  0  0  0  0  0  0  0
    6.5582    0.6868   17.5576 N   0  0  0  0  0  0  0  0  0  0  0  0
    7.1556    0.0589   18.5755 C   0  0  0  0  0  0  0  0  0  0  0  0
    8.1124   -0.4136   18.3616 H   0  0  0  0  0  0  0  0  0  0  0  0
    6.6427   -0.0190   19.8839 C   0  0  0  0  0  0  0  0  0  0  0  0
    7.4171   -0.7224   20.9800 C   0  0  0  0  0  0  0  0  0  0  0  0
    6.7425   -1.0389   21.7852 H   0  0  0  0  0  0  0  0  0  0  0  0
    7.9516   -1.6070   20.6104 H   0  0  0  0  0  0  0  0  0  0  0  0
    8.4684    0.1856   21.6524 C   0  0  0  0  0  0  0  0  0  0  0  0
    9.3752    0.5964   20.7019 F   0  0  0  0  0  0  0  0  0  0  0  0
    9.1745   -0.5438   22.5579 F   0  0  0  0  0  0  0  0  0  0  0  0
    7.8486    1.4113   22.3129 C   0  0  0  0  0  0  0  0  0  0  0  0
    7.2753    1.3873   23.4868 N   0  0  0  0  0  0  0  0  0  0  0  0
    6.7245    2.6468   23.6416 C   0  0  0  0  0  0  0  0  0  0  0  0
    6.0098    3.1875   24.7200 C   0  0  0  0  0  0  0  0  0  0  0  0
    5.8426    2.5671   25.5969 H   0  0  0  0  0  0  0  0  0  0  0  0
    5.5456    4.4983   24.6084 C   0  0  0  0  0  0  0  0  0  0  0  0
    4.9850    4.9399   25.4307 H   0  0  0  0  0  0  0  0  0  0  0  0
    5.7881    5.2659   23.4341 C   0  0  0  0  0  0  0  0  0  0  0  0
    5.4104    6.2864   23.3684 H   0  0  0  0  0  0  0  0  0  0  0  0
    6.4981    4.7379   22.3551 C   0  0  0  0  0  0  0  0  0  0  0  0
    6.6953    5.2952   21.4361 H   0  0  0  0  0  0  0  0  0  0  0  0
    6.9558    3.4269   22.4948 C   0  0  0  0  0  0  0  0  0  0  0  0
    7.6976    2.6145   21.6635 N   0  0  0  0  0  0  0  0  0  0  0  0
    7.9672    2.8493   20.7280 H   0  0  0  0  0  0  0  0  0  0  0  0
    5.4329    0.6401   20.1493 C   0  0  0  0  0  0  0  0  0  0  0  0
    5.0172    0.6356   21.1639 H   0  0  0  0  0  0  0  0  0  0  0  0
    4.7999    1.3117   19.0981 C   0  0  0  0  0  0  0  0  0  0  0  0
    3.8676    1.8459   19.2497 H   0  0  0  0  0  0  0  0  0  0  0  0
  1  2  1  0
  2  3  2  0
  3  4  1  0
  4  5  1  0
  4  6  2  0
  6  7  1  0
  7  8  1  0
  7  9  1  0
  7 10  1  0
 10 11  1  0
 10 12  1  0
 10 13  1  0
 13 14  2  0
 14 15  1  0
 15 16  2  0
 16 17  1  0
 16 18  1  0
 18 19  1  0
 18 20  2  0
 20 21  1  0
 20 22  1  0
 22 23  1  0
 22 24  2  0
 24 25  1  0
 25 26  1  0
  6 27  1  0
 27 28  1  0
 27 29  2  0
 29 30  1  0
 29  2  1  0
 25 13  1  0
 24 15  1  0
M  END
>  <cnnaffinity>  (1) 
-5.01913

>  <filename>  (1) 
FC(F)(Cc1cccnc1)c1nc2ccccc2[nH]1

$$$$
