
     RDKit          3D

 28 30  0  0  0  0  0  0  0  0999 V2000
    6.4430    5.3398   23.5194 F   0  0  0  0  0  0  0  0  0  0  0  0
    7.1933    4.6749   22.6232 C   0  0  0  0  0  0  0  0  0  0  0  0
    8.4367    5.1840   22.6980 F   0  0  0  0  0  0  0  0  0  0  0  0
    6.7246    4.9507   21.3945 F   0  0  0  0  0  0  0  0  0  0  0  0
    7.1543    3.2084   22.9273 C   0  0  0  0  0  0  0  0  0  0  0  0
    7.0245    2.6146   24.1506 C   0  0  0  0  0  0  0  0  0  0  0  0
    7.1584    1.2703   24.0421 N   0  0  0  0  0  0  0  0  0  0  0  0
    7.3507    1.0106   22.7702 C   0  0  0  0  0  0  0  0  0  0  0  0
    7.6015   -0.3071   22.2495 C   0  0  0  0  0  0  0  0  0  0  0  0
    8.1878   -1.3850   22.8856 C   0  0  0  0  0  0  0  0  0  0  0  0
    8.2871   -2.3592   21.8818 C   0  0  0  0  0  0  0  0  0  0  0  0
    7.8042   -1.9323   20.7220 N   0  0  0  0  0  0  0  0  0  0  0  0
    7.3665   -0.6851   20.9508 N   0  0  0  0  0  0  0  0  0  0  0  0
    6.6567    0.0082   19.9320 C   0  0  0  0  0  0  0  0  0  0  0  0
    5.4320    0.6409   20.1762 C   0  0  0  0  0  0  0  0  0  0  0  0
    4.8122    1.2997   19.1093 C   0  0  0  0  0  0  0  0  0  0  0  0
    5.4126    1.2888   17.8473 C   0  0  0  0  0  0  0  0  0  0  0  0
    6.5770    0.6625   17.6084 N   0  0  0  0  0  0  0  0  0  0  0  0
    7.1753    0.0344   18.6231 C   0  0  0  0  0  0  0  0  0  0  0  0
    8.1177   -0.4489   18.3801 H   0  0  0  0  0  0  0  0  0  0  0  0
    4.9462    1.7840   16.9966 H   0  0  0  0  0  0  0  0  0  0  0  0
    3.8822    1.8338   19.2526 H   0  0  0  0  0  0  0  0  0  0  0  0
    4.9933    0.6420   21.1775 H   0  0  0  0  0  0  0  0  0  0  0  0
    8.6825   -3.3623   21.9493 H   0  0  0  0  0  0  0  0  0  0  0  0
    8.5013   -1.3954   23.9225 H   0  0  0  0  0  0  0  0  0  0  0  0
    7.3602    2.1614   22.0375 N   0  0  0  0  0  0  0  0  0  0  0  0
    7.5437    2.1826   21.0455 H   0  0  0  0  0  0  0  0  0  0  0  0
    6.8662    3.0536   25.1287 H   0  0  0  0  0  0  0  0  0  0  0  0
  1  2  1  0
  2  3  1  0
  2  4  1  0
  2  5  1  0
  5  6  2  0
  6  7  1  0
  7  8  2  0
  8  9  1  0
  9 10  2  0
 10 11  1  0
 11 12  2  0
 12 13  1  0
 13 14  1  0
 14 15  2  0
 15 16  1  0
 16 17  2  0
 17 18  1  0
 18 19  2  0
 19 20  1  0
 17 21  1  0
 16 22  1  0
 15 23  1  0
 11 24  1  0
 10 25  1  0
  8 26  1  0
 26 27  1  0
  6 28  1  0
 26  5  1  0
 13  9  1  0
 19 14  1  0
M  END
>  <cnnaffinity>  (1) 
-5.2868

>  <filename>  (1) 
FC(F)(F)c1cnc(-c2ccnn2-c2cccnc2)[nH]1

$$$$
