
     RDKit          3D

 48 52  0  0  0  0  0  0  0  0999 V2000
    7.6519    5.2241   27.2785 F   0  0  0  0  0  0  0  0  0  0  0  0
    7.5241    4.3054   26.2670 C   0  0  0  0  0  0  0  0  0  0  0  0
    6.2112    3.9093   26.2700 F   0  0  0  0  0  0  0  0  0  0  0  0
    7.8544    4.9712   24.9339 C   0  0  0  0  0  0  0  0  0  0  0  0
    7.8865    3.9641   23.7683 C   0  0  0  0  0  0  0  0  0  0  0  0
    8.8121    2.7740   24.0914 C   0  0  0  0  0  0  0  0  0  0  0  0
    8.8750    1.8275   22.9772 N   0  0  0  0  0  0  0  0  0  0  0  0
    7.7904    1.0842   22.6583 N   0  0  0  0  0  0  0  0  0  0  0  0
    8.2308    0.3049   21.6906 C   0  0  0  0  0  0  0  0  0  0  0  0
    7.3377   -0.6738   20.9776 C   0  0  0  0  0  0  0  0  0  0  0  0
    6.5658   -0.0497   19.8177 C   0  0  0  0  0  0  0  0  0  0  0  0
    5.3591    0.6235   20.0462 C   0  0  0  0  0  0  0  0  0  0  0  0
    4.7619    1.3231   18.9941 C   0  0  0  0  0  0  0  0  0  0  0  0
    5.3906    1.3137   17.7456 C   0  0  0  0  0  0  0  0  0  0  0  0
    6.5220    0.6392   17.4894 N   0  0  0  0  0  0  0  0  0  0  0  0
    7.0816   -0.0242   18.5090 C   0  0  0  0  0  0  0  0  0  0  0  0
    8.0009   -0.5651   18.2784 H   0  0  0  0  0  0  0  0  0  0  0  0
    4.9706    1.8699   16.9100 H   0  0  0  0  0  0  0  0  0  0  0  0
    3.8453    1.8864   19.1329 H   0  0  0  0  0  0  0  0  0  0  0  0
    4.9085    0.6075   21.0409 H   0  0  0  0  0  0  0  0  0  0  0  0
    7.9715   -1.4946   20.6254 H   0  0  0  0  0  0  0  0  0  0  0  0
    6.6399   -1.0857   21.7161 H   0  0  0  0  0  0  0  0  0  0  0  0
    9.5377    0.4875   21.3713 N   0  0  0  0  0  0  0  0  0  0  0  0
    9.9178    1.4666   22.1878 C   0  0  0  0  0  0  0  0  0  0  0  0
   11.2716    2.0913   22.3297 C   0  0  0  0  0  0  0  0  0  0  0  0
   11.4968    3.4788   22.4250 C   0  0  0  0  0  0  0  0  0  0  0  0
   12.7891    3.9957   22.6770 C   0  0  0  0  0  0  0  0  0  0  0  0
   13.8869    3.2592   22.8354 N   0  0  0  0  0  0  0  0  0  0  0  0
   13.6709    1.9438   22.6938 C   0  0  0  0  0  0  0  0  0  0  0  0
   12.4416    1.2951   22.4327 C   0  0  0  0  0  0  0  0  0  0  0  0
   12.8005   -0.0868   22.3877 C   0  0  0  0  0  0  0  0  0  0  0  0
   14.0929   -0.2690   22.5786 N   0  0  0  0  0  0  0  0  0  0  0  0
   14.6035    0.9684   22.7634 N   0  0  0  0  0  0  0  0  0  0  0  0
   15.5759    1.1393   22.9433 H   0  0  0  0  0  0  0  0  0  0  0  0
   12.1494   -0.9311   22.2074 H   0  0  0  0  0  0  0  0  0  0  0  0
   12.9216    5.0723   22.7571 H   0  0  0  0  0  0  0  0  0  0  0  0
   10.6918    4.1982   22.3201 H   0  0  0  0  0  0  0  0  0  0  0  0
    8.4525    2.0806   25.4233 C   0  0  0  0  0  0  0  0  0  0  0  0
    8.4187    3.1111   26.5633 C   0  0  0  0  0  0  0  0  0  0  0  0
    9.4168    3.5378   26.6847 H   0  0  0  0  0  0  0  0  0  0  0  0
    8.1251    2.6674   27.5200 H   0  0  0  0  0  0  0  0  0  0  0  0
    9.2085    1.3165   25.6390 H   0  0  0  0  0  0  0  0  0  0  0  0
    7.4916    1.5620   25.3281 H   0  0  0  0  0  0  0  0  0  0  0  0
    9.8182    3.1711   24.2314 H   0  0  0  0  0  0  0  0  0  0  0  0
    8.2519    4.4589   22.8591 H   0  0  0  0  0  0  0  0  0  0  0  0
    6.8789    3.5938   23.5460 H   0  0  0  0  0  0  0  0  0  0  0  0
    8.8432    5.4354   25.0507 H   0  0  0  0  0  0  0  0  0  0  0  0
    7.1344    5.7784   24.7634 H   0  0  0  0  0  0  0  0  0  0  0  0
  1  2  1  0
  2  3  1  0
  2  4  1  0
  4  5  1  0
  5  6  1  0
  6  7  1  0
  7  8  1  0
  8  9  2  0
  9 10  1  0
 10 11  1  0
 11 12  2  0
 12 13  1  0
 13 14  2  0
 14 15  1  0
 15 16  2  0
 16 17  1  0
 14 18  1  0
 13 19  1  0
 12 20  1  0
 10 21  1  0
 10 22  1  0
  9 23  1  0
 23 24  2  0
 24 25  1  0
 25 26  2  0
 26 27  1  0
 27 28  2  0
 28 29  1  0
 29 30  2  0
 30 31  1  0
 31 32  2  0
 32 33  1  0
 33 34  1  0
 31 35  1  0
 27 36  1  0
 26 37  1  0
  6 38  1  0
 38 39  1  0
 39 40  1  0
 39 41  1  0
 38 42  1  0
 38 43  1  0
  6 44  1  0
  5 45  1  0
  5 46  1  0
  4 47  1  0
  4 48  1  0
 39  2  1  0
 24  7  1  0
 30 25  1  0
 16 11  1  0
 33 29  1  0
M  END
>  <cnnaffinity>  (1) 
-6.97429

>  <filename>  (1) 
FC1(F)CCC(n2nc(Cc3cccnc3)nc2-c2ccnc3[nH]ncc23)CC1

$$$$
