
     RDKit          3D

 46 50  0  0  0  0  0  0  0  0999 V2000
   14.5654    0.3709   21.9730 F   0  0  0  0  0  0  0  0  0  0  0  0
   13.6622    0.7294   22.9148 C   0  0  0  0  0  0  0  0  0  0  0  0
   14.1433    0.2591   24.0998 F   0  0  0  0  0  0  0  0  0  0  0  0
   12.2103    0.3147   22.6686 C   0  0  0  0  0  0  0  0  0  0  0  0
   11.7857    1.7615   23.0550 C   0  0  0  0  0  0  0  0  0  0  0  0
   10.9143    2.4941   22.0412 C   0  0  0  0  0  0  0  0  0  0  0  0
    9.5796    1.9214   21.9412 N   0  0  0  0  0  0  0  0  0  0  0  0
    9.3443    0.9557   21.0247 N   0  0  0  0  0  0  0  0  0  0  0  0
    8.2174    0.4118   21.4368 C   0  0  0  0  0  0  0  0  0  0  0  0
    7.5625   -0.6761   20.6280 C   0  0  0  0  0  0  0  0  0  0  0  0
    6.7175   -0.1025   19.4991 C   0  0  0  0  0  0  0  0  0  0  0  0
    5.5925    0.6698   19.8180 C   0  0  0  0  0  0  0  0  0  0  0  0
    4.9164    1.3248   18.7878 C   0  0  0  0  0  0  0  0  0  0  0  0
    5.4009    1.1962   17.4826 C   0  0  0  0  0  0  0  0  0  0  0  0
    6.4658    0.4506   17.1556 N   0  0  0  0  0  0  0  0  0  0  0  0
    7.0939   -0.1884   18.1503 C   0  0  0  0  0  0  0  0  0  0  0  0
    7.9641   -0.7854   17.8709 H   0  0  0  0  0  0  0  0  0  0  0  0
    4.9121    1.7086   16.6587 H   0  0  0  0  0  0  0  0  0  0  0  0
    4.0454    1.9402   18.9818 H   0  0  0  0  0  0  0  0  0  0  0  0
    5.2884    0.7784   20.8617 H   0  0  0  0  0  0  0  0  0  0  0  0
    8.3433   -1.3329   20.2254 H   0  0  0  0  0  0  0  0  0  0  0  0
    6.9423   -1.2619   21.3117 H   0  0  0  0  0  0  0  0  0  0  0  0
    7.7174    0.9411   22.5806 N   0  0  0  0  0  0  0  0  0  0  0  0
    8.5835    1.9069   22.8705 C   0  0  0  0  0  0  0  0  0  0  0  0
    8.5489    2.7970   24.0444 C   0  0  0  0  0  0  0  0  0  0  0  0
    8.2790    2.3822   25.3297 C   0  0  0  0  0  0  0  0  0  0  0  0
    8.4484    3.2946   26.4200 C   0  0  0  0  0  0  0  0  0  0  0  0
    8.8802    4.5833   26.2151 C   0  0  0  0  0  0  0  0  0  0  0  0
    9.0988    5.0365   24.8814 C   0  0  0  0  0  0  0  0  0  0  0  0
    9.4325    6.2372   24.4324 N   0  0  0  0  0  0  0  0  0  0  0  0
    9.3631    6.1421   23.0757 C   0  0  0  0  0  0  0  0  0  0  0  0
    8.9939    4.8839   22.6841 C   0  0  0  0  0  0  0  0  0  0  0  0
    8.8699    4.1478   23.8402 N   0  0  0  0  0  0  0  0  0  0  0  0
    8.7697    4.4528   21.7284 H   0  0  0  0  0  0  0  0  0  0  0  0
    9.5648    6.9968   22.4434 H   0  0  0  0  0  0  0  0  0  0  0  0
    9.0175    5.3076   27.0074 H   0  0  0  0  0  0  0  0  0  0  0  0
    8.2115    2.9664   27.4314 H   0  0  0  0  0  0  0  0  0  0  0  0
    7.9372    1.3678   25.5097 H   0  0  0  0  0  0  0  0  0  0  0  0
   11.3531    2.4096   21.0435 H   0  0  0  0  0  0  0  0  0  0  0  0
   10.8469    3.5504   22.2988 H   0  0  0  0  0  0  0  0  0  0  0  0
   13.2702    2.2091   23.0133 C   0  0  0  0  0  0  0  0  0  0  0  0
   13.5108    2.7839   22.1185 H   0  0  0  0  0  0  0  0  0  0  0  0
   13.6676    2.7458   23.8704 H   0  0  0  0  0  0  0  0  0  0  0  0
   11.3538    1.8075   24.0622 H   0  0  0  0  0  0  0  0  0  0  0  0
   11.8558   -0.5094   23.2904 H   0  0  0  0  0  0  0  0  0  0  0  0
   12.0067    0.0699   21.6231 H   0  0  0  0  0  0  0  0  0  0  0  0
  1  2  1  0
  2  3  1  0
  2  4  1  0
  4  5  1  0
  5  6  1  0
  6  7  1  0
  7  8  1  0
  8  9  2  0
  9 10  1  0
 10 11  1  0
 11 12  2  0
 12 13  1  0
 13 14  2  0
 14 15  1  0
 15 16  2  0
 16 17  1  0
 14 18  1  0
 13 19  1  0
 12 20  1  0
 10 21  1  0
 10 22  1  0
  9 23  1  0
 23 24  2  0
 24 25  1  0
 25 26  2  0
 26 27  1  0
 27 28  2  0
 28 29  1  0
 29 30  2  0
 30 31  1  0
 31 32  2  0
 32 33  1  0
 32 34  1  0
 31 35  1  0
 28 36  1  0
 27 37  1  0
 26 38  1  0
  6 39  1  0
  6 40  1  0
  5 41  1  0
 41 42  1  0
 41 43  1  0
  5 44  1  0
  4 45  1  0
  4 46  1  0
 41  2  1  0
 24  7  1  0
 33 25  1  0
 16 11  1  0
 33 29  1  0
M  END
>  <cnnaffinity>  (1) 
-5.86293

>  <filename>  (1) 
FC1(F)CC(Cn2nc(Cc3cccnc3)nc2-c2cccc3nccn23)C1

$$$$
