
     RDKit          3D

 47 52  0  0  0  0  0  0  0  0999 V2000
    6.9205    1.4362   27.4210 F   0  0  0  0  0  0  0  0  0  0  0  0
    6.9743    1.0698   26.0978 C   0  0  0  0  0  0  0  0  0  0  0  0
    5.9087    0.2467   25.9006 F   0  0  0  0  0  0  0  0  0  0  0  0
    8.3116    0.3981   25.7834 C   0  0  0  0  0  0  0  0  0  0  0  0
    9.2686    1.5594   25.4037 C   0  0  0  0  0  0  0  0  0  0  0  0
    8.3602    2.6955   24.9284 C   0  0  2  0  0  0  0  0  0  0  0  0
    6.9377    2.3343   25.2740 C   0  0  1  0  0  0  0  0  0  0  0  0
    7.3822    2.4046   23.8189 C   0  0  2  0  0  0  0  0  0  0  0  0
    7.5673    1.3271   22.8195 C   0  0  0  0  0  0  0  0  0  0  0  0
    6.5965    0.5331   22.3922 N   0  0  0  0  0  0  0  0  0  0  0  0
    7.1603   -0.1113   21.3441 C   0  0  0  0  0  0  0  0  0  0  0  0
    6.4175   -1.0056   20.4042 C   0  0  0  0  0  0  0  0  0  0  0  0
    5.9717   -0.2177   19.1787 C   0  0  0  0  0  0  0  0  0  0  0  0
    5.0425    0.8176   19.3425 C   0  0  0  0  0  0  0  0  0  0  0  0
    4.6600    1.5641   18.2297 C   0  0  0  0  0  0  0  0  0  0  0  0
    5.2800    1.2987   17.0087 C   0  0  0  0  0  0  0  0  0  0  0  0
    6.2112    0.3529   16.8352 N   0  0  0  0  0  0  0  0  0  0  0  0
    6.5354   -0.3876   17.9040 C   0  0  0  0  0  0  0  0  0  0  0  0
    7.3086   -1.1410   17.7533 H   0  0  0  0  0  0  0  0  0  0  0  0
    5.0122    1.8963   16.1424 H   0  0  0  0  0  0  0  0  0  0  0  0
    3.9116    2.3460   18.2899 H   0  0  0  0  0  0  0  0  0  0  0  0
    4.6575    1.0490   20.3369 H   0  0  0  0  0  0  0  0  0  0  0  0
    5.5646   -1.3934   20.9650 H   0  0  0  0  0  0  0  0  0  0  0  0
    7.0711   -1.8395   20.1287 H   0  0  0  0  0  0  0  0  0  0  0  0
    8.4030    0.2120   21.0874 N   0  0  0  0  0  0  0  0  0  0  0  0
    8.6724    1.1592   22.0250 N   0  0  0  0  0  0  0  0  0  0  0  0
   10.0275    1.5722   22.1837 C   0  0  0  0  0  0  0  0  0  0  0  0
   10.3530    2.9335   22.4621 C   0  0  0  0  0  0  0  0  0  0  0  0
   11.6606    3.2972   22.7378 C   0  0  0  0  0  0  0  0  0  0  0  0
   12.6373    2.2715   22.7576 C   0  0  0  0  0  0  0  0  0  0  0  0
   13.9646    2.2771   23.0444 N   0  0  0  0  0  0  0  0  0  0  0  0
   14.5397    1.0560   22.9528 N   0  0  0  0  0  0  0  0  0  0  0  0
   13.5738    0.2370   22.5964 C   0  0  0  0  0  0  0  0  0  0  0  0
   12.3304    0.9280   22.4500 C   0  0  0  0  0  0  0  0  0  0  0  0
   11.0084    0.5872   22.1005 C   0  0  0  0  0  0  0  0  0  0  0  0
   10.7356   -0.4177   21.7893 H   0  0  0  0  0  0  0  0  0  0  0  0
   13.7871   -0.8096   22.4293 H   0  0  0  0  0  0  0  0  0  0  0  0
   14.5323    3.0827   23.2547 H   0  0  0  0  0  0  0  0  0  0  0  0
   11.9207    4.3315   22.9346 H   0  0  0  0  0  0  0  0  0  0  0  0
    9.5654    3.6868   22.4344 H   0  0  0  0  0  0  0  0  0  0  0  0
    6.9408    3.2697   23.3272 H   0  0  0  0  0  0  0  0  0  0  0  0
    6.2099    3.0813   25.5766 H   0  0  0  0  0  0  0  0  0  0  0  0
    8.7187    3.7195   25.0346 H   0  0  0  0  0  0  0  0  0  0  0  0
    9.8516    1.8939   26.2700 H   0  0  0  0  0  0  0  0  0  0  0  0
    9.9805    1.2508   24.6303 H   0  0  0  0  0  0  0  0  0  0  0  0
    8.1302   -0.2615   24.9275 H   0  0  0  0  0  0  0  0  0  0  0  0
    8.6548   -0.2134   26.6253 H   0  0  0  0  0  0  0  0  0  0  0  0
  1  2  1  0
  2  3  1  0
  2  4  1  0
  4  5  1  0
  5  6  1  0
  6  7  1  0
  7  8  1  0
  8  9  1  0
  9 10  2  0
 10 11  1  0
 11 12  1  0
 12 13  1  0
 13 14  2  0
 14 15  1  0
 15 16  2  0
 16 17  1  0
 17 18  2  0
 18 19  1  0
 16 20  1  0
 15 21  1  0
 14 22  1  0
 12 23  1  0
 12 24  1  0
 11 25  2  0
 25 26  1  0
 26 27  1  0
 27 28  2  0
 28 29  1  0
 29 30  2  0
 30 31  1  0
 31 32  1  0
 32 33  2  0
 33 34  1  0
 34 35  2  0
 35 36  1  0
 33 37  1  0
 31 38  1  0
 29 39  1  0
 28 40  1  0
  8 41  1  6
  7 42  1  6
  6 43  1  6
  5 44  1  0
  5 45  1  0
  4 46  1  0
  4 47  1  0
  7  2  1  0
 26  9  1  0
 35 27  1  0
  8  6  1  0
 18 13  1  0
 34 30  1  0
M  END
>  <cnnaffinity>  (1) 
-6.60693

>  <filename>  (1) 
FC1(F)CC[C@H]2[C@@H](c3nc(Cc4cccnc4)nn3-c3ccc4[nH]ncc4c3)[C@H]21

$$$$
