
     RDKit          3D

 46 50  0  0  0  0  0  0  0  0999 V2000
    6.8544    7.9018   22.3057 F   0  0  0  0  0  0  0  0  0  0  0  0
    7.3215    6.7115   22.7198 C   0  0  0  0  0  0  0  0  0  0  0  0
    8.5469    6.6576   23.3790 C   0  0  0  0  0  0  0  0  0  0  0  0
    9.0180    5.4146   23.8241 C   0  0  0  0  0  0  0  0  0  0  0  0
    8.2688    4.2433   23.6218 C   0  0  0  0  0  0  0  0  0  0  0  0
    8.7301    2.8817   24.1273 C   0  0  0  0  0  0  0  0  0  0  0  0
    8.8547    1.8730   23.0721 N   0  0  0  0  0  0  0  0  0  0  0  0
    7.7980    1.1043   22.7160 N   0  0  0  0  0  0  0  0  0  0  0  0
    8.2722    0.3734   21.7249 C   0  0  0  0  0  0  0  0  0  0  0  0
    7.4227   -0.6205   20.9867 C   0  0  0  0  0  0  0  0  0  0  0  0
    6.6351   -0.0157   19.8335 C   0  0  0  0  0  0  0  0  0  0  0  0
    5.4260    0.6438   20.0771 C   0  0  0  0  0  0  0  0  0  0  0  0
    4.7989    1.3165   19.0257 C   0  0  0  0  0  0  0  0  0  0  0  0
    5.4064    1.3017   17.7662 C   0  0  0  0  0  0  0  0  0  0  0  0
    6.5451    0.6433   17.4994 N   0  0  0  0  0  0  0  0  0  0  0  0
    7.1296    0.0000   18.5182 C   0  0  0  0  0  0  0  0  0  0  0  0
    8.0510   -0.5344   18.2852 H   0  0  0  0  0  0  0  0  0  0  0  0
    4.9554    1.8340   16.9308 H   0  0  0  0  0  0  0  0  0  0  0  0
    3.8684    1.8522   19.1745 H   0  0  0  0  0  0  0  0  0  0  0  0
    5.0001    0.6335   21.0828 H   0  0  0  0  0  0  0  0  0  0  0  0
    6.7347   -1.0525   21.7193 H   0  0  0  0  0  0  0  0  0  0  0  0
    8.0737   -1.4225   20.6277 H   0  0  0  0  0  0  0  0  0  0  0  0
    9.5714    0.6122   21.4228 N   0  0  0  0  0  0  0  0  0  0  0  0
    9.9119    1.5601   22.2809 C   0  0  0  0  0  0  0  0  0  0  0  0
   11.2322    2.1434   22.4375 C   0  0  0  0  0  0  0  0  0  0  0  0
   11.4052    3.5270   22.4374 C   0  0  0  0  0  0  0  0  0  0  0  0
   12.5897    4.1464   22.5975 N   0  0  0  0  0  0  0  0  0  0  0  0
   13.6868    3.4039   22.7387 C   0  0  0  0  0  0  0  0  0  0  0  0
   13.6159    1.9902   22.7603 C   0  0  0  0  0  0  0  0  0  0  0  0
   12.3763    1.3418   22.5868 C   0  0  0  0  0  0  0  0  0  0  0  0
   12.6318   -0.0671   22.5911 C   0  0  0  0  0  0  0  0  0  0  0  0
   13.9786   -0.2315   22.7398 C   0  0  0  0  0  0  0  0  0  0  0  0
   14.5780    1.0095   22.8473 N   0  0  0  0  0  0  0  0  0  0  0  0
   15.5655    1.1960   22.7883 H   0  0  0  0  0  0  0  0  0  0  0  0
   14.5586   -1.1410   22.8446 H   0  0  0  0  0  0  0  0  0  0  0  0
   11.8568   -0.8111   22.4524 H   0  0  0  0  0  0  0  0  0  0  0  0
   14.6345    3.9353   22.8115 H   0  0  0  0  0  0  0  0  0  0  0  0
   10.5469    4.1771   22.3151 H   0  0  0  0  0  0  0  0  0  0  0  0
    8.0145    2.4889   24.8585 H   0  0  0  0  0  0  0  0  0  0  0  0
    9.6981    2.9698   24.6268 H   0  0  0  0  0  0  0  0  0  0  0  0
    7.0513    4.3353   22.9303 C   0  0  0  0  0  0  0  0  0  0  0  0
    6.5680    5.5649   22.4780 C   0  0  0  0  0  0  0  0  0  0  0  0
    5.6276    5.6464   21.9433 H   0  0  0  0  0  0  0  0  0  0  0  0
    6.4860    3.4266   22.7351 H   0  0  0  0  0  0  0  0  0  0  0  0
    9.9992    5.3569   24.2960 H   0  0  0  0  0  0  0  0  0  0  0  0
    9.1111    7.5717   23.5257 H   0  0  0  0  0  0  0  0  0  0  0  0
  1  2  1  0
  2  3  2  0
  3  4  1  0
  4  5  2  0
  5  6  1  0
  6  7  1  0
  7  8  1  0
  8  9  2  0
  9 10  1  0
 10 11  1  0
 11 12  2  0
 12 13  1  0
 13 14  2  0
 14 15  1  0
 15 16  2  0
 16 17  1  0
 14 18  1  0
 13 19  1  0
 12 20  1  0
 10 21  1  0
 10 22  1  0
  9 23  1  0
 23 24  2  0
 24 25  1  0
 25 26  2  0
 26 27  1  0
 27 28  2  0
 28 29  1  0
 29 30  2  0
 30 31  1  0
 31 32  2  0
 32 33  1  0
 33 34  1  0
 32 35  1  0
 31 36  1  0
 28 37  1  0
 26 38  1  0
  6 39  1  0
  6 40  1  0
  5 41  1  0
 41 42  2  0
 42 43  1  0
 41 44  1  0
  4 45  1  0
  3 46  1  0
 42  2  1  0
 24  7  1  0
 30 25  1  0
 16 11  1  0
 33 29  1  0
M  END
>  <cnnaffinity>  (1) 
-6.81897

>  <filename>  (1) 
Fc1ccc(Cn2nc(Cc3cccnc3)nc2-c2cncc3[nH]ccc23)cc1

$$$$
