
     RDKit          3D

 31 33  0  0  0  0  0  0  0  0999 V2000
    4.9415    1.8395   16.9484 H   0  0  0  0  0  0  0  0  0  0  0  0
    5.4148    1.3214   17.7769 C   0  0  0  0  0  0  0  0  0  0  0  0
    6.5609    0.6794   17.5009 N   0  0  0  0  0  0  0  0  0  0  0  0
    7.1660    0.0581   18.5179 C   0  0  0  0  0  0  0  0  0  0  0  0
    8.0803   -0.4886   18.2885 H   0  0  0  0  0  0  0  0  0  0  0  0
    6.6877    0.0395   19.8391 C   0  0  0  0  0  0  0  0  0  0  0  0
    7.4266   -0.6756   20.9091 C   0  0  0  0  0  0  0  0  0  0  0  0
    8.8224   -0.5704   21.1110 C   0  0  0  0  0  0  0  0  0  0  0  0
    9.4326    0.0737   20.4762 H   0  0  0  0  0  0  0  0  0  0  0  0
    9.4762   -1.2231   22.0801 N   0  0  0  0  0  0  0  0  0  0  0  0
    8.7671   -2.0053   22.9130 C   0  0  0  0  0  0  0  0  0  0  0  0
    9.3063   -2.5341   23.6973 H   0  0  0  0  0  0  0  0  0  0  0  0
    7.3718   -2.1507   22.8054 C   0  0  0  0  0  0  0  0  0  0  0  0
    6.5652   -2.9247   23.5931 O   0  0  0  0  0  0  0  0  0  0  0  0
    6.8844   -3.3161   24.8705 C   0  0  0  0  0  0  0  0  0  0  0  0
    7.5245   -2.4952   25.8106 C   0  0  0  0  0  0  0  0  0  0  0  0
    7.8241   -1.4869   25.5361 H   0  0  0  0  0  0  0  0  0  0  0  0
    7.7774   -3.0002   27.0970 C   0  0  0  0  0  0  0  0  0  0  0  0
    8.3250   -2.4023   27.8215 H   0  0  0  0  0  0  0  0  0  0  0  0
    7.3637   -4.2906   27.4250 C   0  0  0  0  0  0  0  0  0  0  0  0
    7.6021   -4.7912   28.6485 F   0  0  0  0  0  0  0  0  0  0  0  0
    6.7083   -5.1008   26.4958 C   0  0  0  0  0  0  0  0  0  0  0  0
    6.4154   -6.1104   26.7682 H   0  0  0  0  0  0  0  0  0  0  0  0
    6.4571   -4.6011   25.2201 C   0  0  0  0  0  0  0  0  0  0  0  0
    5.9434   -5.1947   24.4712 H   0  0  0  0  0  0  0  0  0  0  0  0
    6.7064   -1.5011   21.7722 C   0  0  0  0  0  0  0  0  0  0  0  0
    5.6335   -1.6353   21.6488 H   0  0  0  0  0  0  0  0  0  0  0  0
    5.4630    0.6783   20.0929 C   0  0  0  0  0  0  0  0  0  0  0  0
    5.0296    0.6637   21.0960 H   0  0  0  0  0  0  0  0  0  0  0  0
    4.8240    1.3366   19.0456 C   0  0  0  0  0  0  0  0  0  0  0  0
    3.8872    1.8601   19.1985 H   0  0  0  0  0  0  0  0  0  0  0  0
  1  2  1  0
  2  3  2  0
  3  4  1  0
  4  5  1  0
  4  6  2  0
  6  7  1  0
  7  8  2  0
  8  9  1  0
  8 10  1  0
 10 11  2  0
 11 12  1  0
 11 13  1  0
 13 14  1  0
 14 15  1  0
 15 16  2  0
 16 17  1  0
 16 18  1  0
 18 19  1  0
 18 20  2  0
 20 21  1  0
 20 22  1  0
 22 23  1  0
 22 24  2  0
 24 25  1  0
 13 26  2  0
 26 27  1  0
  6 28  1  0
 28 29  1  0
 28 30  2  0
 30 31  1  0
 30  2  1  0
 26  7  1  0
 24 15  1  0
M  END
>  <cnnaffinity>  (1) 
-5.25516

>  <filename>  (1) 
Fc1ccc(Oc2cncc(-c3cccnc3)c2)cc1

$$$$
