
     RDKit          3D

 26 27  0  0  0  0  0  0  0  0999 V2000
    4.9098    1.7753   17.0012 H   0  0  0  0  0  0  0  0  0  0  0  0
    5.4013    1.2931   17.8408 C   0  0  0  0  0  0  0  0  0  0  0  0
    6.5680    0.6819   17.5692 N   0  0  0  0  0  0  0  0  0  0  0  0
    7.1784    0.0650   18.5884 C   0  0  0  0  0  0  0  0  0  0  0  0
    8.1252   -0.4299   18.3737 H   0  0  0  0  0  0  0  0  0  0  0  0
    6.6577    0.0120   19.8998 C   0  0  0  0  0  0  0  0  0  0  0  0
    7.3486   -0.6830   20.9390 C   0  0  0  0  0  0  0  0  0  0  0  0
    7.9187   -1.2809   21.8115 C   0  0  0  0  0  0  0  0  0  0  0  0
    8.6476   -1.9562   22.8750 C   0  0  0  0  0  0  0  0  0  0  0  0
    7.9890   -2.0504   23.7435 H   0  0  0  0  0  0  0  0  0  0  0  0
    8.8898   -2.9686   22.5404 H   0  0  0  0  0  0  0  0  0  0  0  0
    9.9097   -1.2032   23.2447 C   0  0  0  0  0  0  0  0  0  0  0  0
   11.1076   -1.4448   22.5599 C   0  0  0  0  0  0  0  0  0  0  0  0
   11.1385   -2.2078   21.7845 H   0  0  0  0  0  0  0  0  0  0  0  0
   12.2600   -0.7081   22.8406 C   0  0  0  0  0  0  0  0  0  0  0  0
   13.1981   -0.9222   22.3398 H   0  0  0  0  0  0  0  0  0  0  0  0
   12.2019    0.2571   23.8456 C   0  0  0  0  0  0  0  0  0  0  0  0
   13.3125    0.9451   24.1525 F   0  0  0  0  0  0  0  0  0  0  0  0
   11.0233    0.5351   24.5360 C   0  0  0  0  0  0  0  0  0  0  0  0
   11.0017    1.3078   25.2972 H   0  0  0  0  0  0  0  0  0  0  0  0
    9.8786   -0.1986   24.2198 C   0  0  0  0  0  0  0  0  0  0  0  0
    8.9447    0.0226   24.7336 H   0  0  0  0  0  0  0  0  0  0  0  0
    5.4374    0.6551   20.1588 C   0  0  0  0  0  0  0  0  0  0  0  0
    5.0084    0.6302   21.1607 H   0  0  0  0  0  0  0  0  0  0  0  0
    4.8003    1.3139   19.1073 C   0  0  0  0  0  0  0  0  0  0  0  0
    3.8662    1.8486   19.2634 H   0  0  0  0  0  0  0  0  0  0  0  0
  1  2  1  0
  2  3  2  0
  3  4  1  0
  4  5  1  0
  4  6  2  0
  6  7  1  0
  7  8  3  0
  8  9  1  0
  9 10  1  0
  9 11  1  0
  9 12  1  0
 12 13  2  0
 13 14  1  0
 13 15  1  0
 15 16  1  0
 15 17  2  0
 17 18  1  0
 17 19  1  0
 19 20  1  0
 19 21  2  0
 21 22  1  0
  6 23  1  0
 23 24  1  0
 23 25  2  0
 25 26  1  0
 25  2  1  0
 21 12  1  0
M  END
>  <cnnaffinity>  (1) 
-4.68697

>  <filename>  (1) 
Fc1ccc(CC#Cc2cccnc2)cc1

$$$$
