
     RDKit          3D

 41 45  0  0  0  0  0  0  0  0999 V2000
   13.3999    3.1960   22.5815 F   0  0  0  0  0  0  0  0  0  0  0  0
   12.5861    2.1356   22.7255 C   0  0  0  0  0  0  0  0  0  0  0  0
   12.0022    1.5663   21.5751 C   0  0  0  0  0  0  0  0  0  0  0  0
   11.2393    0.4041   21.6824 C   0  0  0  0  0  0  0  0  0  0  0  0
   11.0864   -0.1596   22.9651 C   0  0  0  0  0  0  0  0  0  0  0  0
   11.5759    0.4730   24.1281 C   0  0  0  0  0  0  0  0  0  0  0  0
   12.3678    1.6249   23.9946 C   0  0  0  0  0  0  0  0  0  0  0  0
   12.7917    2.0748   24.8701 H   0  0  0  0  0  0  0  0  0  0  0  0
   11.1592   -0.3214   25.2462 C   0  0  0  0  0  0  0  0  0  0  0  0
   10.5216   -1.4109   24.7208 C   0  0  0  0  0  0  0  0  0  0  0  0
   10.5141   -1.3473   23.3511 N   0  0  0  0  0  0  0  0  0  0  0  0
    9.8707   -2.2631   22.4394 C   0  0  0  0  0  0  0  0  0  0  0  0
    8.5742   -1.6979   21.9541 C   0  0  0  0  0  0  0  0  0  0  0  0
    8.3133   -1.2463   20.7484 N   0  0  0  0  0  0  0  0  0  0  0  0
    7.0937   -0.6593   20.9067 C   0  0  0  0  0  0  0  0  0  0  0  0
    6.4389    0.0446   19.8099 C   0  0  0  0  0  0  0  0  0  0  0  0
    5.2387    0.7599   19.9611 C   0  0  0  0  0  0  0  0  0  0  0  0
    4.7369    1.4250   18.8471 C   0  0  0  0  0  0  0  0  0  0  0  0
    5.4362    1.3474   17.6362 C   0  0  0  0  0  0  0  0  0  0  0  0
    6.5778    0.6590   17.4827 N   0  0  0  0  0  0  0  0  0  0  0  0
    7.0672    0.0346   18.5586 C   0  0  0  0  0  0  0  0  0  0  0  0
    8.0087   -0.4948   18.4245 H   0  0  0  0  0  0  0  0  0  0  0  0
    5.0664    1.8666   16.7547 H   0  0  0  0  0  0  0  0  0  0  0  0
    3.8334    2.0220   18.9081 H   0  0  0  0  0  0  0  0  0  0  0  0
    4.7377    0.7978   20.9314 H   0  0  0  0  0  0  0  0  0  0  0  0
    6.6016   -0.7433   22.1250 N   0  0  0  0  0  0  0  0  0  0  0  0
    7.5564   -1.4260   22.7973 N   0  0  0  0  0  0  0  0  0  0  0  0
    7.4709   -1.6509   24.2221 C   0  0  0  0  0  0  0  0  0  0  0  0
    7.5320   -3.0594   24.7473 C   0  0  0  0  0  0  0  0  0  0  0  0
    6.2447   -2.2884   24.7978 C   0  0  0  0  0  0  0  0  0  0  0  0
    5.4567   -2.5586   24.1018 H   0  0  0  0  0  0  0  0  0  0  0  0
    5.8960   -1.9194   25.7586 H   0  0  0  0  0  0  0  0  0  0  0  0
    8.0570   -3.2542   25.6809 H   0  0  0  0  0  0  0  0  0  0  0  0
    7.5863   -3.8674   24.0214 H   0  0  0  0  0  0  0  0  0  0  0  0
    7.9156   -0.8460   24.8058 H   0  0  0  0  0  0  0  0  0  0  0  0
    9.7264   -3.2200   22.9465 H   0  0  0  0  0  0  0  0  0  0  0  0
   10.5229   -2.4253   21.5804 H   0  0  0  0  0  0  0  0  0  0  0  0
   10.0963   -2.2852   25.1997 H   0  0  0  0  0  0  0  0  0  0  0  0
   11.3003   -0.0666   26.2898 H   0  0  0  0  0  0  0  0  0  0  0  0
   10.7321   -0.0444   20.8323 H   0  0  0  0  0  0  0  0  0  0  0  0
   12.1609    2.0671   20.6252 H   0  0  0  0  0  0  0  0  0  0  0  0
  1  2  1  0
  2  3  2  0
  3  4  1  0
  4  5  2  0
  5  6  1  0
  6  7  2  0
  7  8  1  0
  6  9  1  0
  9 10  2  0
 10 11  1  0
 11 12  1  0
 12 13  1  0
 13 14  2  0
 14 15  1  0
 15 16  1  0
 16 17  2  0
 17 18  1  0
 18 19  2  0
 19 20  1  0
 20 21  2  0
 21 22  1  0
 19 23  1  0
 18 24  1  0
 17 25  1  0
 15 26  2  0
 26 27  1  0
 27 28  1  0
 28 29  1  0
 29 30  1  0
 30 31  1  0
 30 32  1  0
 29 33  1  0
 29 34  1  0
 28 35  1  0
 12 36  1  0
 12 37  1  0
 10 38  1  0
  9 39  1  0
  4 40  1  0
  3 41  1  0
  7  2  1  0
 27 13  1  0
 30 28  1  0
 11  5  1  0
 21 16  1  0
M  END
>  <cnnaffinity>  (1) 
-5.50534

>  <filename>  (1) 
Fc1ccc2c(ccn2Cc2nc(-c3cccnc3)nn2C2CC2)c1

$$$$
