
     RDKit          3D

 45 49  0  0  0  0  0  0  0  0999 V2000
   10.6364    4.4428   24.7967 F   0  0  0  0  0  0  0  0  0  0  0  0
    9.7336    4.6992   23.8298 C   0  0  0  0  0  0  0  0  0  0  0  0
    9.8415    5.8797   23.1021 C   0  0  0  0  0  0  0  0  0  0  0  0
    8.8690    6.1163   22.1183 C   0  0  0  0  0  0  0  0  0  0  0  0
    7.8717    5.1656   21.9139 C   0  0  0  0  0  0  0  0  0  0  0  0
    7.7865    4.0262   22.6180 N   0  0  0  0  0  0  0  0  0  0  0  0
    8.6851    3.7886   23.5747 C   0  0  0  0  0  0  0  0  0  0  0  0
    8.5285    2.4750   24.3354 C   0  0  0  0  0  0  0  0  0  0  0  0
    8.5381    1.2970   23.4045 C   0  0  0  0  0  0  0  0  0  0  0  0
    7.4775    0.6512   22.9606 N   0  0  0  0  0  0  0  0  0  0  0  0
    7.9806   -0.1232   21.9582 C   0  0  0  0  0  0  0  0  0  0  0  0
    7.1676   -0.9297   20.9826 C   0  0  0  0  0  0  0  0  0  0  0  0
    6.5799   -0.1329   19.8135 C   0  0  0  0  0  0  0  0  0  0  0  0
    5.4620    0.6882   20.0207 C   0  0  0  0  0  0  0  0  0  0  0  0
    4.9180    1.3832   18.9370 C   0  0  0  0  0  0  0  0  0  0  0  0
    5.5240    1.2517   17.6853 C   0  0  0  0  0  0  0  0  0  0  0  0
    6.6112    0.4965   17.4656 N   0  0  0  0  0  0  0  0  0  0  0  0
    7.1165   -0.1702   18.5127 C   0  0  0  0  0  0  0  0  0  0  0  0
    8.0063   -0.7686   18.3098 H   0  0  0  0  0  0  0  0  0  0  0  0
    5.1226    1.7764   16.8191 H   0  0  0  0  0  0  0  0  0  0  0  0
    4.0454    2.0194   19.0472 H   0  0  0  0  0  0  0  0  0  0  0  0
    5.0402    0.7822   21.0233 H   0  0  0  0  0  0  0  0  0  0  0  0
    7.8214   -1.7250   20.6115 H   0  0  0  0  0  0  0  0  0  0  0  0
    6.3672   -1.4092   21.5516 H   0  0  0  0  0  0  0  0  0  0  0  0
    9.2805   -0.0335   21.7938 N   0  0  0  0  0  0  0  0  0  0  0  0
    9.6556    0.8504   22.7551 N   0  0  0  0  0  0  0  0  0  0  0  0
   10.9023    1.5505   22.6360 C   0  0  0  0  0  0  0  0  0  0  0  0
   11.9132    1.3894   23.6232 C   0  0  0  0  0  0  0  0  0  0  0  0
   13.0337    2.2036   23.5967 C   0  0  0  0  0  0  0  0  0  0  0  0
   13.0946    3.2116   22.6108 C   0  0  0  0  0  0  0  0  0  0  0  0
   13.9903    4.2145   22.4033 N   0  0  0  0  0  0  0  0  0  0  0  0
   13.6698    5.0086   21.3564 N   0  0  0  0  0  0  0  0  0  0  0  0
   12.5569    4.4970   20.8593 C   0  0  0  0  0  0  0  0  0  0  0  0
   12.1231    3.3434   21.5993 C   0  0  0  0  0  0  0  0  0  0  0  0
   11.0252    2.4407   21.5816 C   0  0  0  0  0  0  0  0  0  0  0  0
   10.2457    2.4541   20.8272 H   0  0  0  0  0  0  0  0  0  0  0  0
   12.1048    4.9427   19.9823 H   0  0  0  0  0  0  0  0  0  0  0  0
   14.7821    4.4285   22.9903 H   0  0  0  0  0  0  0  0  0  0  0  0
   13.8385    2.0817   24.3080 H   0  0  0  0  0  0  0  0  0  0  0  0
   11.8076    0.6305   24.3959 H   0  0  0  0  0  0  0  0  0  0  0  0
    9.3253    2.3750   25.0781 H   0  0  0  0  0  0  0  0  0  0  0  0
    7.5571    2.4737   24.8392 H   0  0  0  0  0  0  0  0  0  0  0  0
    7.1098    5.3092   21.1517 H   0  0  0  0  0  0  0  0  0  0  0  0
    8.8765    7.0137   21.5107 H   0  0  0  0  0  0  0  0  0  0  0  0
   10.6422    6.5822   23.3249 H   0  0  0  0  0  0  0  0  0  0  0  0
  1  2  1  0
  2  3  2  0
  3  4  1  0
  4  5  2  0
  5  6  1  0
  6  7  2  0
  7  8  1  0
  8  9  1  0
  9 10  2  0
 10 11  1  0
 11 12  1  0
 12 13  1  0
 13 14  2  0
 14 15  1  0
 15 16  2  0
 16 17  1  0
 17 18  2  0
 18 19  1  0
 16 20  1  0
 15 21  1  0
 14 22  1  0
 12 23  1  0
 12 24  1  0
 11 25  2  0
 25 26  1  0
 26 27  1  0
 27 28  2  0
 28 29  1  0
 29 30  2  0
 30 31  1  0
 31 32  1  0
 32 33  2  0
 33 34  1  0
 34 35  2  0
 35 36  1  0
 33 37  1  0
 31 38  1  0
 29 39  1  0
 28 40  1  0
  8 41  1  0
  8 42  1  0
  5 43  1  0
  4 44  1  0
  3 45  1  0
  7  2  1  0
 26  9  1  0
 35 27  1  0
 18 13  1  0
 34 30  1  0
M  END
>  <cnnaffinity>  (1) 
-6.7834

>  <filename>  (1) 
Fc1cccnc1Cc1nc(Cc2cccnc2)nn1-c1ccc2[nH]ncc2c1

$$$$
