
     RDKit          3D

 29 31  0  0  0  0  0  0  0  0999 V2000
    6.3149   -0.6489   27.2771 F   0  0  0  0  0  0  0  0  0  0  0  0
    7.0788   -1.3698   26.4471 C   0  0  0  0  0  0  0  0  0  0  0  0
    7.8699   -2.3817   26.9647 C   0  0  0  0  0  0  0  0  0  0  0  0
    8.6419   -3.1668   26.1310 C   0  0  0  0  0  0  0  0  0  0  0  0
    8.6573   -2.9367   24.7514 C   0  0  0  0  0  0  0  0  0  0  0  0
    9.5282   -3.8561   23.8991 C   0  0  0  0  0  0  0  0  0  0  0  0
    9.9935   -4.9161   24.5971 F   0  0  0  0  0  0  0  0  0  0  0  0
    8.8348   -4.3529   22.8622 F   0  0  0  0  0  0  0  0  0  0  0  0
   10.6014   -3.2097   23.4231 F   0  0  0  0  0  0  0  0  0  0  0  0
    7.8771   -1.8602   24.2316 C   0  0  0  0  0  0  0  0  0  0  0  0
    7.8413   -1.4700   22.8056 C   0  0  0  0  0  0  0  0  0  0  0  0
    6.9265   -0.7639   22.2139 N   0  0  0  0  0  0  0  0  0  0  0  0
    7.3977   -0.6984   20.9347 C   0  0  0  0  0  0  0  0  0  0  0  0
    6.6547    0.0098   19.9008 C   0  0  0  0  0  0  0  0  0  0  0  0
    5.4340    0.6520   20.1666 C   0  0  0  0  0  0  0  0  0  0  0  0
    4.8089    1.3042   19.1096 C   0  0  0  0  0  0  0  0  0  0  0  0
    5.4073    1.2857   17.8429 C   0  0  0  0  0  0  0  0  0  0  0  0
    6.5670    0.6660   17.5853 N   0  0  0  0  0  0  0  0  0  0  0  0
    7.1755    0.0521   18.6007 C   0  0  0  0  0  0  0  0  0  0  0  0
    8.1232   -0.4240   18.3618 H   0  0  0  0  0  0  0  0  0  0  0  0
    4.9437    1.7840   16.9958 H   0  0  0  0  0  0  0  0  0  0  0  0
    3.8780    1.8389   19.2466 H   0  0  0  0  0  0  0  0  0  0  0  0
    5.0024    0.6394   21.1745 H   0  0  0  0  0  0  0  0  0  0  0  0
    8.5369   -1.3107   20.7479 N   0  0  0  0  0  0  0  0  0  0  0  0
    8.8385   -1.8373   21.9923 O   0  0  0  0  0  0  0  0  0  0  0  0
    7.0681   -1.0890   25.0914 C   0  0  0  0  0  0  0  0  0  0  0  0
    6.4405   -0.2787   24.7229 H   0  0  0  0  0  0  0  0  0  0  0  0
    9.2288   -3.9678   26.5820 H   0  0  0  0  0  0  0  0  0  0  0  0
    7.9202   -2.5433   28.0148 H   0  0  0  0  0  0  0  0  0  0  0  0
  1  2  1  0
  2  3  2  0
  3  4  1  0
  4  5  2  0
  5  6  1  0
  6  7  1  0
  6  8  1  0
  6  9  1  0
  5 10  1  0
 10 11  1  0
 11 12  2  0
 12 13  1  0
 13 14  1  0
 14 15  2  0
 15 16  1  0
 16 17  2  0
 17 18  1  0
 18 19  2  0
 19 20  1  0
 17 21  1  0
 16 22  1  0
 15 23  1  0
 13 24  2  0
 24 25  1  0
 10 26  2  0
 26 27  1  0
  4 28  1  0
  3 29  1  0
 26  2  1  0
 25 11  1  0
 19 14  1  0
M  END
>  <cnnaffinity>  (1) 
-5.38853

>  <filename>  (1) 
Fc1ccc(C(F)(F)F)c(-c2nc(-c3cccnc3)no2)c1

$$$$
