
     RDKit          3D

 40 43  0  0  0  0  0  0  0  0999 V2000
    8.4533   -6.7887   25.6883 F   0  0  0  0  0  0  0  0  0  0  0  0
    8.6632   -5.9098   24.6940 C   0  0  0  0  0  0  0  0  0  0  0  0
    7.8970   -5.9901   23.5220 C   0  0  0  0  0  0  0  0  0  0  0  0
    8.0535   -5.0098   22.5435 C   0  0  0  0  0  0  0  0  0  0  0  0
    8.9980   -4.0089   22.7430 C   0  0  0  0  0  0  0  0  0  0  0  0
    9.8260   -4.0064   23.8613 C   0  0  0  0  0  0  0  0  0  0  0  0
    9.6366   -4.9350   24.8883 C   0  0  0  0  0  0  0  0  0  0  0  0
   10.1932   -4.9284   25.8235 H   0  0  0  0  0  0  0  0  0  0  0  0
   10.8316   -2.8948   23.7670 C   0  0  0  0  0  0  0  0  0  0  0  0
   10.4681   -2.1018   22.4902 C   0  0  0  0  0  0  0  0  0  0  0  0
    9.2314   -2.8138   21.8612 C   0  0  0  0  0  0  0  0  0  0  0  0
    8.0233   -1.9403   21.7127 C   0  0  0  0  0  0  0  0  0  0  0  0
    7.6675   -1.4360   20.5592 N   0  0  0  0  0  0  0  0  0  0  0  0
    6.6407   -0.6056   20.8650 C   0  0  0  0  0  0  0  0  0  0  0  0
    6.0519    0.1869   19.7855 C   0  0  0  0  0  0  0  0  0  0  0  0
    4.9172    1.0055   19.8921 C   0  0  0  0  0  0  0  0  0  0  0  0
    4.5503    1.7373   18.7589 C   0  0  0  0  0  0  0  0  0  0  0  0
    5.3122    1.6265   17.5895 C   0  0  0  0  0  0  0  0  0  0  0  0
    6.3844    0.8310   17.4761 N   0  0  0  0  0  0  0  0  0  0  0  0
    6.7333    0.1310   18.5560 C   0  0  0  0  0  0  0  0  0  0  0  0
    7.6053   -0.5136   18.4599 H   0  0  0  0  0  0  0  0  0  0  0  0
    5.0492    2.1938   16.6970 H   0  0  0  0  0  0  0  0  0  0  0  0
    3.6995    2.4083   18.7695 H   0  0  0  0  0  0  0  0  0  0  0  0
    4.3436    1.0786   20.8208 H   0  0  0  0  0  0  0  0  0  0  0  0
    6.3355   -0.5782   22.1461 N   0  0  0  0  0  0  0  0  0  0  0  0
    7.2164   -1.4581   22.6985 N   0  0  0  0  0  0  0  0  0  0  0  0
    7.2015   -1.6269   24.1454 C   0  0  0  0  0  0  0  0  0  0  0  0
    5.9973   -2.3796   24.6983 C   0  0  0  0  0  0  0  0  0  0  0  0
    6.2360   -2.5711   26.0326 F   0  0  0  0  0  0  0  0  0  0  0  0
    5.8246   -3.6032   24.1363 F   0  0  0  0  0  0  0  0  0  0  0  0
    5.0636   -1.8286   24.6064 H   0  0  0  0  0  0  0  0  0  0  0  0
    8.1035   -2.1360   24.4882 H   0  0  0  0  0  0  0  0  0  0  0  0
    7.1581   -0.6321   24.6011 H   0  0  0  0  0  0  0  0  0  0  0  0
    9.4324   -3.1227   20.8317 H   0  0  0  0  0  0  0  0  0  0  0  0
   11.2979   -2.0600   21.7779 H   0  0  0  0  0  0  0  0  0  0  0  0
   10.2339   -1.0606   22.7275 H   0  0  0  0  0  0  0  0  0  0  0  0
   10.7957   -2.2486   24.6522 H   0  0  0  0  0  0  0  0  0  0  0  0
   11.8235   -3.3511   23.6966 H   0  0  0  0  0  0  0  0  0  0  0  0
    7.4326   -5.0045   21.6501 H   0  0  0  0  0  0  0  0  0  0  0  0
    7.1376   -6.7475   23.3987 H   0  0  0  0  0  0  0  0  0  0  0  0
  1  2  1  0
  2  3  2  0
  3  4  1  0
  4  5  2  0
  5  6  1  0
  6  7  2  0
  7  8  1  0
  6  9  1  0
  9 10  1  0
 10 11  1  0
 11 12  1  0
 12 13  2  0
 13 14  1  0
 14 15  1  0
 15 16  2  0
 16 17  1  0
 17 18  2  0
 18 19  1  0
 19 20  2  0
 20 21  1  0
 18 22  1  0
 17 23  1  0
 16 24  1  0
 14 25  2  0
 25 26  1  0
 26 27  1  0
 27 28  1  0
 28 29  1  0
 28 30  1  0
 28 31  1  0
 27 32  1  0
 27 33  1  0
 11 34  1  0
 10 35  1  0
 10 36  1  0
  9 37  1  0
  9 38  1  0
  4 39  1  0
  3 40  1  0
  7  2  1  0
 26 12  1  0
 11  5  1  0
 20 15  1  0
M  END
>  <cnnaffinity>  (1) 
-5.92077

>  <filename>  (1) 
Fc1ccc2c(c1)CCC2c1nc(-c2cccnc2)nn1CC(F)F

$$$$
