
     RDKit          3D

 27 29  0  0  0  0  0  0  0  0999 V2000
    4.9164    1.7836   16.9963 H   0  0  0  0  0  0  0  0  0  0  0  0
    5.4014    1.2956   17.8387 C   0  0  0  0  0  0  0  0  0  0  0  0
    6.5668    0.6795   17.5749 N   0  0  0  0  0  0  0  0  0  0  0  0
    7.1700    0.0582   18.5932 C   0  0  0  0  0  0  0  0  0  0  0  0
    8.1197   -0.4219   18.3680 H   0  0  0  0  0  0  0  0  0  0  0  0
    6.6627    0.0051   19.9075 C   0  0  0  0  0  0  0  0  0  0  0  0
    7.3729   -0.6928   21.0012 C   0  0  0  0  0  0  0  0  0  0  0  0
    8.0264   -2.2585   20.7694 S   0  0  0  0  0  0  0  0  0  0  0  0
    8.5328   -2.4093   22.3872 C   0  0  0  0  0  0  0  0  0  0  0  0
    9.0403   -3.3067   22.7109 H   0  0  0  0  0  0  0  0  0  0  0  0
    8.2117   -1.3029   23.0992 C   0  0  0  0  0  0  0  0  0  0  0  0
    8.4555   -1.1569   24.1460 H   0  0  0  0  0  0  0  0  0  0  0  0
    7.5593   -0.2991   22.3128 C   0  0  0  0  0  0  0  0  0  0  0  0
    7.1992    1.0306   22.8345 C   0  0  0  0  0  0  0  0  0  0  0  0
    6.5815    1.1636   24.0906 C   0  0  0  0  0  0  0  0  0  0  0  0
    6.3493    0.2732   24.6652 H   0  0  0  0  0  0  0  0  0  0  0  0
    6.2370    2.3336   24.6394 N   0  0  0  0  0  0  0  0  0  0  0  0
    6.5137    3.4429   23.9367 C   0  0  0  0  0  0  0  0  0  0  0  0
    6.2410    4.3946   24.3762 H   0  0  0  0  0  0  0  0  0  0  0  0
    7.1352    3.4054   22.6841 C   0  0  0  0  0  0  0  0  0  0  0  0
    7.3821    4.5509   22.0332 F   0  0  0  0  0  0  0  0  0  0  0  0
    7.4938    2.1976   22.1061 C   0  0  0  0  0  0  0  0  0  0  0  0
    7.9709    2.1578   21.1275 H   0  0  0  0  0  0  0  0  0  0  0  0
    5.4348    0.6426   20.1539 C   0  0  0  0  0  0  0  0  0  0  0  0
    5.0152    0.6331   21.1644 H   0  0  0  0  0  0  0  0  0  0  0  0
    4.8030    1.3070   19.1028 C   0  0  0  0  0  0  0  0  0  0  0  0
    3.8725    1.8437   19.2566 H   0  0  0  0  0  0  0  0  0  0  0  0
  1  2  1  0
  2  3  2  0
  3  4  1  0
  4  5  1  0
  4  6  2  0
  6  7  1  0
  7  8  1  0
  8  9  1  0
  9 10  1  0
  9 11  2  0
 11 12  1  0
 11 13  1  0
 13 14  1  0
 14 15  2  0
 15 16  1  0
 15 17  1  0
 17 18  2  0
 18 19  1  0
 18 20  1  0
 20 21  1  0
 20 22  2  0
 22 23  1  0
  6 24  1  0
 24 25  1  0
 24 26  2  0
 26 27  1  0
 26  2  1  0
 13  7  2  0
 22 14  1  0
M  END
>  <cnnaffinity>  (1) 
-5.01343

>  <filename>  (1) 
Fc1cncc(-c2ccsc2-c2cccnc2)c1

$$$$
