
     RDKit          3D

 37 39  0  0  0  0  0  0  0  0999 V2000
    4.9092    1.7870   16.9893 H   0  0  0  0  0  0  0  0  0  0  0  0
    5.3949    1.3002   17.8311 C   0  0  0  0  0  0  0  0  0  0  0  0
    6.5587    0.6864   17.5637 N   0  0  0  0  0  0  0  0  0  0  0  0
    7.1747    0.0799   18.5820 C   0  0  0  0  0  0  0  0  0  0  0  0
    8.1132   -0.4257   18.3655 H   0  0  0  0  0  0  0  0  0  0  0  0
    6.6728    0.0015   19.9030 C   0  0  0  0  0  0  0  0  0  0  0  0
    7.3819   -0.7486   20.8698 N   0  0  0  0  0  0  0  0  0  0  0  0
    6.6410   -1.5597   21.8345 C   0  0  0  0  0  0  0  0  0  0  0  0
    5.7874   -2.0037   21.3091 H   0  0  0  0  0  0  0  0  0  0  0  0
    6.2385   -0.9945   22.6957 H   0  0  0  0  0  0  0  0  0  0  0  0
    7.5534   -2.6728   22.3502 C   0  0  0  0  0  0  0  0  0  0  0  0
    7.0642   -3.2250   23.1557 H   0  0  0  0  0  0  0  0  0  0  0  0
    7.7717   -3.3694   21.5277 H   0  0  0  0  0  0  0  0  0  0  0  0
    8.7718   -2.1573   22.8680 O   0  0  0  0  0  0  0  0  0  0  0  0
    9.4857   -1.4610   21.8526 C   0  0  0  0  0  0  0  0  0  0  0  0
   10.4393   -1.1432   22.2828 H   0  0  0  0  0  0  0  0  0  0  0  0
    9.6948   -2.1451   21.0163 H   0  0  0  0  0  0  0  0  0  0  0  0
    8.6975   -0.2554   21.3179 C   0  0  2  0  0  0  0  0  0  0  0  0
    9.2181    0.1151   20.4269 H   0  0  0  0  0  0  0  0  0  0  0  0
    8.6182    0.9136   22.3333 C   0  0  0  0  0  0  0  0  0  0  0  0
    7.9051    1.6520   21.9436 H   0  0  0  0  0  0  0  0  0  0  0  0
    8.2012    0.5242   23.2684 H   0  0  0  0  0  0  0  0  0  0  0  0
    9.9603    1.5661   22.5809 C   0  0  0  0  0  0  0  0  0  0  0  0
   10.7163    1.2752   23.7264 C   0  0  0  0  0  0  0  0  0  0  0  0
   10.3189    0.5789   24.4606 H   0  0  0  0  0  0  0  0  0  0  0  0
   11.9668    1.8637   23.9369 C   0  0  0  0  0  0  0  0  0  0  0  0
   12.5538    1.6488   24.8237 H   0  0  0  0  0  0  0  0  0  0  0  0
   12.4564    2.7441   22.9735 C   0  0  0  0  0  0  0  0  0  0  0  0
   13.6509    3.3235   23.1698 F   0  0  0  0  0  0  0  0  0  0  0  0
   11.7458    3.0464   21.8141 C   0  0  0  0  0  0  0  0  0  0  0  0
   12.1597    3.7423   21.0894 H   0  0  0  0  0  0  0  0  0  0  0  0
   10.5002    2.4445   21.6291 C   0  0  0  0  0  0  0  0  0  0  0  0
    9.9210    2.6727   20.7422 H   0  0  0  0  0  0  0  0  0  0  0  0
    5.4456    0.6476   20.1586 C   0  0  0  0  0  0  0  0  0  0  0  0
    5.0221    0.6186   21.1670 H   0  0  0  0  0  0  0  0  0  0  0  0
    4.8099    1.3121   19.1040 C   0  0  0  0  0  0  0  0  0  0  0  0
    3.8740    1.8422   19.2587 H   0  0  0  0  0  0  0  0  0  0  0  0
  1  2  1  0
  2  3  2  0
  3  4  1  0
  4  5  1  0
  4  6  2  0
  6  7  1  0
  7  8  1  0
  8  9  1  0
  8 10  1  0
  8 11  1  0
 11 12  1  0
 11 13  1  0
 11 14  1  0
 14 15  1  0
 15 16  1  0
 15 17  1  0
 15 18  1  0
 18 19  1  6
 18 20  1  0
 20 21  1  0
 20 22  1  0
 20 23  1  0
 23 24  2  0
 24 25  1  0
 24 26  1  0
 26 27  1  0
 26 28  2  0
 28 29  1  0
 28 30  1  0
 30 31  1  0
 30 32  2  0
 32 33  1  0
  6 34  1  0
 34 35  1  0
 34 36  2  0
 36 37  1  0
 36  2  1  0
 18  7  1  0
 32 23  1  0
M  END
>  <cnnaffinity>  (1) 
-4.99447

>  <filename>  (1) 
Fc1ccc(C[C@H]2COCCN2c2cccnc2)cc1

$$$$
