
     RDKit          3D

 35 37  0  0  0  0  0  0  0  0999 V2000
    9.1917    0.3844   20.6834 H   0  0  0  0  0  0  0  0  0  0  0  0
    8.6021   -0.3527   21.2366 C   0  0  0  0  0  0  0  0  0  0  0  0
    7.3547   -0.6351   20.8349 C   0  0  0  0  0  0  0  0  0  0  0  0
    6.6906    0.0946   19.7179 C   0  0  0  0  0  0  0  0  0  0  0  0
    7.2375    0.1645   18.4230 C   0  0  0  0  0  0  0  0  0  0  0  0
    8.1844   -0.3247   18.2003 H   0  0  0  0  0  0  0  0  0  0  0  0
    6.6505    0.7778   17.3844 N   0  0  0  0  0  0  0  0  0  0  0  0
    5.4769    1.3899   17.6082 C   0  0  0  0  0  0  0  0  0  0  0  0
    5.0231    1.9022   16.7600 H   0  0  0  0  0  0  0  0  0  0  0  0
    4.8464    1.4051   18.8560 C   0  0  0  0  0  0  0  0  0  0  0  0
    3.9028    1.9255   18.9854 H   0  0  0  0  0  0  0  0  0  0  0  0
    5.4578    0.7350   19.9168 C   0  0  0  0  0  0  0  0  0  0  0  0
    5.0078    0.7073   20.9090 H   0  0  0  0  0  0  0  0  0  0  0  0
    6.5233   -1.7447   21.4759 C   0  0  0  0  0  0  0  0  0  0  0  0
    6.6550   -2.6516   20.8630 H   0  0  0  0  0  0  0  0  0  0  0  0
    5.4564   -1.5026   21.4244 H   0  0  0  0  0  0  0  0  0  0  0  0
    6.9858   -2.0283   22.9075 C   0  0  0  0  0  0  0  0  0  0  0  0
    6.7651   -1.1686   23.5556 H   0  0  0  0  0  0  0  0  0  0  0  0
    6.4536   -2.8819   23.3399 H   0  0  0  0  0  0  0  0  0  0  0  0
    8.5116   -2.2890   22.8817 C   0  0  2  0  0  0  0  0  0  0  0  0
    8.7088   -3.0004   22.0643 H   0  0  0  0  0  0  0  0  0  0  0  0
    9.0254   -2.9508   24.1528 C   0  0  0  0  0  0  0  0  0  0  0  0
    9.6005   -4.2343   24.1464 C   0  0  0  0  0  0  0  0  0  0  0  0
    9.5914   -4.7872   23.2162 H   0  0  0  0  0  0  0  0  0  0  0  0
   10.0506   -4.8638   25.3104 C   0  0  0  0  0  0  0  0  0  0  0  0
   10.5410   -5.8319   25.2666 H   0  0  0  0  0  0  0  0  0  0  0  0
    9.8129   -4.2330   26.5282 C   0  0  0  0  0  0  0  0  0  0  0  0
   10.1173   -4.8726   27.6659 F   0  0  0  0  0  0  0  0  0  0  0  0
    9.2177   -2.9748   26.6024 C   0  0  0  0  0  0  0  0  0  0  0  0
    9.0039   -2.4704   27.5321 H   0  0  0  0  0  0  0  0  0  0  0  0
    8.8709   -2.3564   25.4074 C   0  0  0  0  0  0  0  0  0  0  0  0
    8.3372   -1.1180   25.4854 F   0  0  0  0  0  0  0  0  0  0  0  0
    9.2228   -0.9676   22.4815 C   0  0  0  0  0  0  0  0  0  0  0  0
    9.1561   -0.2469   23.3082 H   0  0  0  0  0  0  0  0  0  0  0  0
   10.2916   -1.1356   22.3115 H   0  0  0  0  0  0  0  0  0  0  0  0
  1  2  1  0
  2  3  2  0
  3  4  1  0
  4  5  2  0
  5  6  1  0
  5  7  1  0
  7  8  2  0
  8  9  1  0
  8 10  1  0
 10 11  1  0
 10 12  2  0
 12 13  1  0
  3 14  1  0
 14 15  1  0
 14 16  1  0
 14 17  1  0
 17 18  1  0
 17 19  1  0
 17 20  1  0
 20 21  1  6
 20 22  1  0
 22 23  2  0
 23 24  1  0
 23 25  1  0
 25 26  1  0
 25 27  2  0
 27 28  1  0
 27 29  1  0
 29 30  1  0
 29 31  2  0
 31 32  1  0
 20 33  1  0
 33 34  1  0
 33 35  1  0
 33  2  1  0
 12  4  1  0
 31 22  1  0
M  END
>  <cnnaffinity>  (1) 
-4.96283

>  <filename>  (1) 
Fc1ccc([C@@H]2CC=C(c3cccnc3)CC2)c(F)c1

$$$$
