
     RDKit          3D

 37 40  0  0  0  0  0  0  0  0999 V2000
    5.0582    1.7294   17.0422 H   0  0  0  0  0  0  0  0  0  0  0  0
    5.5004    1.2077   17.8908 C   0  0  0  0  0  0  0  0  0  0  0  0
    6.6311    0.5317   17.6496 N   0  0  0  0  0  0  0  0  0  0  0  0
    7.2022   -0.1022   18.6874 C   0  0  0  0  0  0  0  0  0  0  0  0
    8.1143   -0.6512   18.4540 H   0  0  0  0  0  0  0  0  0  0  0  0
    6.7052   -0.1158   20.0053 C   0  0  0  0  0  0  0  0  0  0  0  0
    7.4303   -0.8894   21.1352 C   0  0  2  0  0  0  0  0  0  0  0  0
    6.8965   -2.3564   21.2036 C   0  0  0  0  0  0  0  0  0  0  0  0
    7.7353   -3.4049   21.1014 N   0  0  0  0  0  0  0  0  0  0  0  0
    7.2391   -4.6436   21.2002 C   0  0  0  0  0  0  0  0  0  0  0  0
    7.9156   -5.4847   21.0722 H   0  0  0  0  0  0  0  0  0  0  0  0
    5.8920   -4.8950   21.4647 C   0  0  0  0  0  0  0  0  0  0  0  0
    5.4618   -6.1569   21.5874 F   0  0  0  0  0  0  0  0  0  0  0  0
    4.9951   -3.8448   21.5946 C   0  0  0  0  0  0  0  0  0  0  0  0
    3.9494   -4.0263   21.8311 H   0  0  0  0  0  0  0  0  0  0  0  0
    5.5188   -2.5637   21.4147 C   0  0  0  0  0  0  0  0  0  0  0  0
    4.8917   -1.6885   21.4283 H   0  0  0  0  0  0  0  0  0  0  0  0
    7.2207   -0.1897   22.5502 C   0  0  0  0  0  0  0  0  0  0  0  0
    6.7563    0.7982   22.4352 H   0  0  0  0  0  0  0  0  0  0  0  0
    6.5604   -0.7807   23.1924 H   0  0  0  0  0  0  0  0  0  0  0  0
    8.6314   -0.0386   23.1552 C   0  0  2  0  0  0  0  0  0  0  0  0
    8.6312   -0.0117   24.2514 H   0  0  0  0  0  0  0  0  0  0  0  0
    9.2988    1.1800   22.4900 C   0  0  0  0  0  0  0  0  0  0  0  0
    8.6850    2.0858   22.5491 H   0  0  0  0  0  0  0  0  0  0  0  0
   10.2592    1.4085   22.9706 H   0  0  0  0  0  0  0  0  0  0  0  0
    9.5065    0.6760   21.0291 C   0  0  0  0  0  0  0  0  0  0  0  0
    8.9636    1.2866   20.2980 H   0  0  0  0  0  0  0  0  0  0  0  0
   10.5707    0.7243   20.7853 H   0  0  0  0  0  0  0  0  0  0  0  0
    9.0089   -0.8013   21.0732 C   0  0  1  0  0  0  0  0  0  0  0  0
    9.4409   -1.4350   20.2906 H   0  0  0  0  0  0  0  0  0  0  0  0
    9.4139   -1.1857   22.5078 C   0  0  0  0  0  0  0  0  0  0  0  0
    9.0762   -2.1849   22.7983 H   0  0  0  0  0  0  0  0  0  0  0  0
   10.5000   -1.1251   22.6728 H   0  0  0  0  0  0  0  0  0  0  0  0
    5.4966    0.5813   20.2175 C   0  0  0  0  0  0  0  0  0  0  0  0
    5.0273    0.6116   21.2054 H   0  0  0  0  0  0  0  0  0  0  0  0
    4.8980    1.2564   19.1513 C   0  0  0  0  0  0  0  0  0  0  0  0
    3.9858    1.8261   19.2823 H   0  0  0  0  0  0  0  0  0  0  0  0
  1  2  1  0
  2  3  2  0
  3  4  1  0
  4  5  1  0
  4  6  2  0
  7  6  1  6
  7  8  1  0
  8  9  2  0
  9 10  1  0
 10 11  1  0
 10 12  2  0
 12 13  1  0
 12 14  1  0
 14 15  1  0
 14 16  2  0
 16 17  1  0
  7 18  1  0
 18 19  1  0
 18 20  1  0
 18 21  1  0
 21 22  1  1
 21 23  1  0
 23 24  1  0
 23 25  1  0
 23 26  1  0
 26 27  1  0
 26 28  1  0
 26 29  1  0
 29 30  1  6
 29 31  1  0
 31 32  1  0
 31 33  1  0
  6 34  1  0
 34 35  1  0
 34 36  2  0
 36 37  1  0
 36  2  1  0
 29  7  1  0
 16  8  1  0
 31 21  1  0
M  END
>  <cnnaffinity>  (1) 
-4.70848

>  <filename>  (1) 
Fc1ccc([C@@]2(c3cccnc3)C[C@@H]3CC[C@H]2C3)nc1

$$$$
