
     RDKit          3D

 47 51  0  0  0  0  0  0  0  0999 V2000
   13.0405    5.2832   22.2846 F   0  0  0  0  0  0  0  0  0  0  0  0
   12.8385    3.9609   22.3832 C   0  0  0  0  0  0  0  0  0  0  0  0
   11.5310    3.4774   22.2920 C   0  0  0  0  0  0  0  0  0  0  0  0
   11.2796    2.0919   22.2802 C   0  0  0  0  0  0  0  0  0  0  0  0
    9.9343    1.5162   22.1683 C   0  0  0  0  0  0  0  0  0  0  0  0
    9.5398    0.5302   21.3763 N   0  0  0  0  0  0  0  0  0  0  0  0
    8.2525    0.3402   21.7347 C   0  0  0  0  0  0  0  0  0  0  0  0
    7.4000   -0.6601   21.0302 C   0  0  0  0  0  0  0  0  0  0  0  0
    6.6301   -0.0246   19.8794 C   0  0  0  0  0  0  0  0  0  0  0  0
    5.4262    0.6436   20.1274 C   0  0  0  0  0  0  0  0  0  0  0  0
    4.7872    1.3124   19.0796 C   0  0  0  0  0  0  0  0  0  0  0  0
    5.3867    1.3012   17.8165 C   0  0  0  0  0  0  0  0  0  0  0  0
    6.5462    0.6786   17.5565 N   0  0  0  0  0  0  0  0  0  0  0  0
    7.1478    0.0470   18.5724 C   0  0  0  0  0  0  0  0  0  0  0  0
    8.1035   -0.4216   18.3331 H   0  0  0  0  0  0  0  0  0  0  0  0
    4.9211    1.8137   16.9752 H   0  0  0  0  0  0  0  0  0  0  0  0
    3.8586    1.8543   19.2281 H   0  0  0  0  0  0  0  0  0  0  0  0
    5.0148    0.6461   21.1386 H   0  0  0  0  0  0  0  0  0  0  0  0
    6.7193   -1.1086   21.7614 H   0  0  0  0  0  0  0  0  0  0  0  0
    8.0803   -1.4392   20.6769 H   0  0  0  0  0  0  0  0  0  0  0  0
    7.8180    1.1397   22.6900 N   0  0  0  0  0  0  0  0  0  0  0  0
    8.8964    1.9187   22.9437 N   0  0  0  0  0  0  0  0  0  0  0  0
    8.8005    2.9604   23.9580 C   0  0  0  0  0  0  0  0  0  0  0  0
    8.0622    4.2257   23.4738 C   0  0  0  0  0  0  0  0  0  0  0  0
    6.5474    4.0116   23.3116 C   0  0  0  0  0  0  0  0  0  0  0  0
    5.9013    5.3877   23.1354 C   0  0  0  0  0  0  0  0  0  0  0  0
    6.8790    6.5612   24.1437 S   0  0  0  0  0  0  0  0  0  0  0  0
    8.2309    5.3834   24.4671 C   0  0  0  0  0  0  0  0  0  0  0  0
    8.1666    5.0277   25.5031 H   0  0  0  0  0  0  0  0  0  0  0  0
    9.1903    5.8989   24.3503 H   0  0  0  0  0  0  0  0  0  0  0  0
    5.9202    5.7078   22.0883 H   0  0  0  0  0  0  0  0  0  0  0  0
    4.8600    5.4141   23.4700 H   0  0  0  0  0  0  0  0  0  0  0  0
    6.3214    3.3406   22.4739 H   0  0  0  0  0  0  0  0  0  0  0  0
    6.1548    3.5259   24.2176 H   0  0  0  0  0  0  0  0  0  0  0  0
    8.4768    4.5390   22.5010 H   0  0  0  0  0  0  0  0  0  0  0  0
    9.8119    3.2034   24.3009 H   0  0  0  0  0  0  0  0  0  0  0  0
    8.2579    2.5211   24.8033 H   0  0  0  0  0  0  0  0  0  0  0  0
   12.3840    1.2134   22.3823 C   0  0  0  0  0  0  0  0  0  0  0  0
   12.4563   -0.1719   22.2909 N   0  0  0  0  0  0  0  0  0  0  0  0
   13.7223   -0.4419   22.3600 C   0  0  0  0  0  0  0  0  0  0  0  0
   14.5159    0.6627   22.5420 N   0  0  0  0  0  0  0  0  0  0  0  0
   13.6732    1.7542   22.5497 C   0  0  0  0  0  0  0  0  0  0  0  0
   13.9376    3.1340   22.5352 C   0  0  0  0  0  0  0  0  0  0  0  0
   14.9285    3.5607   22.4676 H   0  0  0  0  0  0  0  0  0  0  0  0
   15.5059    0.7114   22.3800 H   0  0  0  0  0  0  0  0  0  0  0  0
   14.1485   -1.4382   22.2977 H   0  0  0  0  0  0  0  0  0  0  0  0
   10.7445    4.2175   22.2240 H   0  0  0  0  0  0  0  0  0  0  0  0
  1  2  1  0
  2  3  2  0
  3  4  1  0
  4  5  1  0
  5  6  2  0
  6  7  1  0
  7  8  1  0
  8  9  1  0
  9 10  2  0
 10 11  1  0
 11 12  2  0
 12 13  1  0
 13 14  2  0
 14 15  1  0
 12 16  1  0
 11 17  1  0
 10 18  1  0
  8 19  1  0
  8 20  1  0
  7 21  2  0
 21 22  1  0
 22 23  1  0
 23 24  1  0
 24 25  1  0
 25 26  1  0
 26 27  1  0
 27 28  1  0
 28 29  1  0
 28 30  1  0
 26 31  1  0
 26 32  1  0
 25 33  1  0
 25 34  1  0
 24 35  1  0
 23 36  1  0
 23 37  1  0
  4 38  2  0
 38 39  1  0
 39 40  2  0
 40 41  1  0
 41 42  1  0
 42 43  2  0
 43 44  1  0
 41 45  1  0
 40 46  1  0
  3 47  1  0
 43  2  1  0
 22  5  1  0
 28 24  1  0
 42 38  1  0
 14  9  1  0
M  END
>  <cnnaffinity>  (1) 
-6.92757

>  <filename>  (1) 
Fc1cc(-c2nc(Cc3cccnc3)nn2CC2CCSC2)c2nc[nH]c2c1

$$$$
