
     RDKit          3D

 50 54  0  0  0  0  0  0  0  0999 V2000
   12.9647    5.3010   22.6127 F   0  0  0  0  0  0  0  0  0  0  0  0
   12.8015    3.9692   22.5657 C   0  0  0  0  0  0  0  0  0  0  0  0
   11.5188    3.4538   22.3565 C   0  0  0  0  0  0  0  0  0  0  0  0
   11.3096    2.0620   22.3001 C   0  0  0  0  0  0  0  0  0  0  0  0
    9.9737    1.4707   22.1335 C   0  0  0  0  0  0  0  0  0  0  0  0
    9.5754    0.5169   21.3070 N   0  0  0  0  0  0  0  0  0  0  0  0
    8.2625    0.3685   21.6158 C   0  0  0  0  0  0  0  0  0  0  0  0
    7.3739   -0.6343   20.9354 C   0  0  0  0  0  0  0  0  0  0  0  0
    6.5880   -0.0294   19.7829 C   0  0  0  0  0  0  0  0  0  0  0  0
    5.3840    0.6438   20.0254 C   0  0  0  0  0  0  0  0  0  0  0  0
    4.7708    1.3311   18.9760 C   0  0  0  0  0  0  0  0  0  0  0  0
    5.3819    1.3157   17.7195 C   0  0  0  0  0  0  0  0  0  0  0  0
    6.5158    0.6483   17.4553 N   0  0  0  0  0  0  0  0  0  0  0  0
    7.0913   -0.0064   18.4707 C   0  0  0  0  0  0  0  0  0  0  0  0
    8.0107   -0.5428   18.2289 H   0  0  0  0  0  0  0  0  0  0  0  0
    4.9437    1.8587   16.8844 H   0  0  0  0  0  0  0  0  0  0  0  0
    3.8501    1.8850   19.1205 H   0  0  0  0  0  0  0  0  0  0  0  0
    4.9501    0.6360   21.0280 H   0  0  0  0  0  0  0  0  0  0  0  0
    8.0119   -1.4557   20.5951 H   0  0  0  0  0  0  0  0  0  0  0  0
    6.6910   -1.0370   21.6919 H   0  0  0  0  0  0  0  0  0  0  0  0
    7.8265    1.1693   22.5632 N   0  0  0  0  0  0  0  0  0  0  0  0
    8.9232    1.8930   22.8909 N   0  0  0  0  0  0  0  0  0  0  0  0
    8.9275    2.6688   24.1307 C   0  0  0  0  0  0  0  0  0  0  0  0
    9.3098    1.8949   25.4004 C   0  0  0  0  0  0  0  0  0  0  0  0
   10.5899    1.0464   25.2700 C   0  0  0  0  0  0  0  0  0  0  0  0
   10.7654    0.0187   26.3908 C   0  0  0  0  0  0  0  0  0  0  0  0
    9.4382   -0.6788   26.7275 C   0  0  0  0  0  0  0  0  0  0  0  0
    8.3144    0.3455   26.8976 C   0  0  0  0  0  0  0  0  0  0  0  0
    8.1655    1.1075   25.7147 O   0  0  0  0  0  0  0  0  0  0  0  0
    8.4982    1.0123   27.7602 H   0  0  0  0  0  0  0  0  0  0  0  0
    7.3537   -0.1486   27.0738 H   0  0  0  0  0  0  0  0  0  0  0  0
    9.1427   -1.3348   25.9027 H   0  0  0  0  0  0  0  0  0  0  0  0
    9.5273   -1.2948   27.6299 H   0  0  0  0  0  0  0  0  0  0  0  0
   11.5134   -0.6713   26.0035 H   0  0  0  0  0  0  0  0  0  0  0  0
   11.2080    0.4191   27.3026 H   0  0  0  0  0  0  0  0  0  0  0  0
   10.5276    0.4398   24.3605 H   0  0  0  0  0  0  0  0  0  0  0  0
   11.4703    1.6955   25.1651 H   0  0  0  0  0  0  0  0  0  0  0  0
    9.4644    2.6420   26.2002 H   0  0  0  0  0  0  0  0  0  0  0  0
    7.9098    3.0337   24.2590 H   0  0  0  0  0  0  0  0  0  0  0  0
    9.5898    3.5233   24.0069 H   0  0  0  0  0  0  0  0  0  0  0  0
   12.4265    1.2111   22.4749 C   0  0  0  0  0  0  0  0  0  0  0  0
   12.5319   -0.1723   22.4580 N   0  0  0  0  0  0  0  0  0  0  0  0
   13.8066   -0.4190   22.5671 C   0  0  0  0  0  0  0  0  0  0  0  0
   14.5592    0.7112   22.7224 N   0  0  0  0  0  0  0  0  0  0  0  0
   13.6988    1.7845   22.6788 C   0  0  0  0  0  0  0  0  0  0  0  0
   13.9179    3.1703   22.7305 C   0  0  0  0  0  0  0  0  0  0  0  0
   14.8815    3.6547   22.7983 H   0  0  0  0  0  0  0  0  0  0  0  0
   15.5586    0.7690   22.7029 H   0  0  0  0  0  0  0  0  0  0  0  0
   14.2501   -1.4063   22.5117 H   0  0  0  0  0  0  0  0  0  0  0  0
   10.7134    4.1609   22.2039 H   0  0  0  0  0  0  0  0  0  0  0  0
  1  2  1  0
  2  3  2  0
  3  4  1  0
  4  5  1  0
  5  6  2  0
  6  7  1  0
  7  8  1  0
  8  9  1  0
  9 10  2  0
 10 11  1  0
 11 12  2  0
 12 13  1  0
 13 14  2  0
 14 15  1  0
 12 16  1  0
 11 17  1  0
 10 18  1  0
  8 19  1  0
  8 20  1  0
  7 21  2  0
 21 22  1  0
 22 23  1  0
 23 24  1  0
 24 25  1  0
 25 26  1  0
 26 27  1  0
 27 28  1  0
 28 29  1  0
 28 30  1  0
 28 31  1  0
 27 32  1  0
 27 33  1  0
 26 34  1  0
 26 35  1  0
 25 36  1  0
 25 37  1  0
 24 38  1  0
 23 39  1  0
 23 40  1  0
  4 41  2  0
 41 42  1  0
 42 43  2  0
 43 44  1  0
 44 45  1  0
 45 46  2  0
 46 47  1  0
 44 48  1  0
 43 49  1  0
  3 50  1  0
 46  2  1  0
 22  5  1  0
 29 24  1  0
 45 41  1  0
 14  9  1  0
M  END
>  <cnnaffinity>  (1) 
-6.56854

>  <filename>  (1) 
Fc1cc(-c2nc(Cc3cccnc3)nn2CC2CCCCO2)c2nc[nH]c2c1

$$$$
