
     RDKit          3D

 26 27  0  0  0  0  0  0  0  0999 V2000
   10.8817   -1.0381   25.0496 F   0  0  0  0  0  0  0  0  0  0  0  0
   10.1553   -1.7990   24.2214 C   0  0  0  0  0  0  0  0  0  0  0  0
    9.7666   -3.0843   24.5955 C   0  0  0  0  0  0  0  0  0  0  0  0
    8.9822   -3.8046   23.6898 C   0  0  0  0  0  0  0  0  0  0  0  0
    8.4568   -5.4042   24.1146 Cl  0  0  0  0  0  0  0  0  0  0  0  0
    8.6045   -3.2679   22.4579 C   0  0  0  0  0  0  0  0  0  0  0  0
    9.0196   -1.9706   22.1178 C   0  0  0  0  0  0  0  0  0  0  0  0
    8.5888   -1.3372   20.8228 C   0  0  0  0  0  0  0  0  0  0  0  0
    7.3188   -0.6604   20.9582 N   0  0  0  0  0  0  0  0  0  0  0  0
    6.6750   -0.0050   19.9261 C   0  0  0  0  0  0  0  0  0  0  0  0
    5.4463    0.6460   20.1683 C   0  0  0  0  0  0  0  0  0  0  0  0
    4.8145    1.3042   19.1129 C   0  0  0  0  0  0  0  0  0  0  0  0
    5.3995    1.2937   17.8382 C   0  0  0  0  0  0  0  0  0  0  0  0
    6.5641    0.6808   17.5757 N   0  0  0  0  0  0  0  0  0  0  0  0
    7.1783    0.0615   18.5939 C   0  0  0  0  0  0  0  0  0  0  0  0
    8.1241   -0.4263   18.3648 H   0  0  0  0  0  0  0  0  0  0  0  0
    4.9093    1.7807   16.9971 H   0  0  0  0  0  0  0  0  0  0  0  0
    3.8815    1.8376   19.2649 H   0  0  0  0  0  0  0  0  0  0  0  0
    5.0115    0.6267   21.1705 H   0  0  0  0  0  0  0  0  0  0  0  0
    6.8775   -0.6482   21.8700 H   0  0  0  0  0  0  0  0  0  0  0  0
    9.3636   -0.6549   20.4463 H   0  0  0  0  0  0  0  0  0  0  0  0
    8.4966   -2.1106   20.0739 H   0  0  0  0  0  0  0  0  0  0  0  0
    9.8067   -1.2352   23.0031 C   0  0  0  0  0  0  0  0  0  0  0  0
   10.1368   -0.2259   22.7749 H   0  0  0  0  0  0  0  0  0  0  0  0
    7.9819   -3.8493   21.7847 H   0  0  0  0  0  0  0  0  0  0  0  0
   10.0570   -3.5043   25.5521 H   0  0  0  0  0  0  0  0  0  0  0  0
  1  2  1  0
  2  3  2  0
  3  4  1  0
  4  5  1  0
  4  6  2  0
  6  7  1  0
  7  8  1  0
  8  9  1  0
  9 10  1  0
 10 11  2  0
 11 12  1  0
 12 13  2  0
 13 14  1  0
 14 15  2  0
 15 16  1  0
 13 17  1  0
 12 18  1  0
 11 19  1  0
  9 20  1  0
  8 21  1  0
  8 22  1  0
  7 23  2  0
 23 24  1  0
  6 25  1  0
  3 26  1  0
 23  2  1  0
 15 10  1  0
M  END
>  <cnnaffinity>  (1) 
-4.58649

>  <filename>  (1) 
Fc1cc(Cl)cc(CNc2cccnc2)c1

$$$$
