
     RDKit          3D

 45 49  0  0  0  0  0  0  0  0999 V2000
    9.0745    7.7437   23.7472 F   0  0  0  0  0  0  0  0  0  0  0  0
    8.3914    6.6188   23.4718 C   0  0  0  0  0  0  0  0  0  0  0  0
    7.1835    6.7090   22.7866 C   0  0  0  0  0  0  0  0  0  0  0  0
    6.4821    5.5292   22.5218 C   0  0  0  0  0  0  0  0  0  0  0  0
    6.9845    4.2934   22.9380 C   0  0  0  0  0  0  0  0  0  0  0  0
    8.2089    4.2099   23.6200 C   0  0  0  0  0  0  0  0  0  0  0  0
    8.7299    2.8547   24.0997 C   0  0  0  0  0  0  0  0  0  0  0  0
    8.8370    1.8349   23.0525 N   0  0  0  0  0  0  0  0  0  0  0  0
    7.7727    1.0550   22.7450 N   0  0  0  0  0  0  0  0  0  0  0  0
    8.1990    0.3492   21.7147 C   0  0  0  0  0  0  0  0  0  0  0  0
    7.3479   -0.6593   20.9941 C   0  0  0  0  0  0  0  0  0  0  0  0
    6.5780   -0.0410   19.8397 C   0  0  0  0  0  0  0  0  0  0  0  0
    5.3754    0.6351   20.0766 C   0  0  0  0  0  0  0  0  0  0  0  0
    4.7709    1.3164   19.0190 C   0  0  0  0  0  0  0  0  0  0  0  0
    5.3921    1.3075   17.7661 C   0  0  0  0  0  0  0  0  0  0  0  0
    6.5321    0.6473   17.5110 N   0  0  0  0  0  0  0  0  0  0  0  0
    7.0991   -0.0029   18.5348 C   0  0  0  0  0  0  0  0  0  0  0  0
    8.0284   -0.5272   18.3115 H   0  0  0  0  0  0  0  0  0  0  0  0
    4.9576    1.8566   16.9319 H   0  0  0  0  0  0  0  0  0  0  0  0
    3.8494    1.8702   19.1586 H   0  0  0  0  0  0  0  0  0  0  0  0
    4.9268    0.6358   21.0740 H   0  0  0  0  0  0  0  0  0  0  0  0
    7.9971   -1.4667   20.6399 H   0  0  0  0  0  0  0  0  0  0  0  0
    6.6501   -1.0988   21.7123 H   0  0  0  0  0  0  0  0  0  0  0  0
    9.4722    0.6232   21.3368 N   0  0  0  0  0  0  0  0  0  0  0  0
    9.8685    1.5343   22.2170 C   0  0  0  0  0  0  0  0  0  0  0  0
   11.2167    2.1471   22.3865 C   0  0  0  0  0  0  0  0  0  0  0  0
   11.4481    3.5503   22.3779 C   0  0  0  0  0  0  0  0  0  0  0  0
   12.7378    4.0885   22.5404 C   0  0  0  0  0  0  0  0  0  0  0  0
   13.8424    3.3542   22.7442 N   0  0  0  0  0  0  0  0  0  0  0  0
   13.5980    2.0456   22.7465 C   0  0  0  0  0  0  0  0  0  0  0  0
   12.3730    1.3546   22.5688 C   0  0  0  0  0  0  0  0  0  0  0  0
   12.6023   -0.0181   22.5394 N   0  0  0  0  0  0  0  0  0  0  0  0
   13.8948   -0.1259   22.6533 C   0  0  0  0  0  0  0  0  0  0  0  0
   14.5441    1.0680   22.8165 N   0  0  0  0  0  0  0  0  0  0  0  0
   15.5125    1.2947   22.6873 H   0  0  0  0  0  0  0  0  0  0  0  0
   14.4461   -1.0595   22.6322 H   0  0  0  0  0  0  0  0  0  0  0  0
   12.8808    5.1698   22.4933 H   0  0  0  0  0  0  0  0  0  0  0  0
   10.6181    4.2254   22.2264 H   0  0  0  0  0  0  0  0  0  0  0  0
    9.7150    2.9830   24.5574 H   0  0  0  0  0  0  0  0  0  0  0  0
    8.0634    2.4542   24.8701 H   0  0  0  0  0  0  0  0  0  0  0  0
    8.9185    5.3922   23.8823 C   0  0  0  0  0  0  0  0  0  0  0  0
    9.8930    5.3787   24.3633 H   0  0  0  0  0  0  0  0  0  0  0  0
    6.4295    3.3860   22.7203 H   0  0  0  0  0  0  0  0  0  0  0  0
    5.5384    5.5726   21.9808 H   0  0  0  0  0  0  0  0  0  0  0  0
    6.8058    7.6773   22.4771 H   0  0  0  0  0  0  0  0  0  0  0  0
  1  2  1  0
  2  3  2  0
  3  4  1  0
  4  5  2  0
  5  6  1  0
  6  7  1  0
  7  8  1  0
  8  9  1  0
  9 10  2  0
 10 11  1  0
 11 12  1  0
 12 13  2  0
 13 14  1  0
 14 15  2  0
 15 16  1  0
 16 17  2  0
 17 18  1  0
 15 19  1  0
 14 20  1  0
 13 21  1  0
 11 22  1  0
 11 23  1  0
 10 24  1  0
 24 25  2  0
 25 26  1  0
 26 27  2  0
 27 28  1  0
 28 29  2  0
 29 30  1  0
 30 31  2  0
 31 32  1  0
 32 33  2  0
 33 34  1  0
 34 35  1  0
 33 36  1  0
 28 37  1  0
 27 38  1  0
  7 39  1  0
  7 40  1  0
  6 41  2  0
 41 42  1  0
  5 43  1  0
  4 44  1  0
  3 45  1  0
 41  2  1  0
 25  8  1  0
 31 26  1  0
 17 12  1  0
 34 30  1  0
M  END
>  <cnnaffinity>  (1) 
-6.80659

>  <filename>  (1) 
Fc1cccc(Cn2nc(Cc3cccnc3)nc2-c2ccnc3[nH]cnc23)c1

$$$$
