
     RDKit          3D

 24 25  0  0  0  0  0  0  0  0999 V2000
    5.0933    1.8287   17.0031 H   0  0  0  0  0  0  0  0  0  0  0  0
    5.4877    1.2604   17.8426 C   0  0  0  0  0  0  0  0  0  0  0  0
    6.6244    0.5787   17.6214 N   0  0  0  0  0  0  0  0  0  0  0  0
    7.1525   -0.0745   18.6543 C   0  0  0  0  0  0  0  0  0  0  0  0
    8.0812   -0.6143   18.4688 H   0  0  0  0  0  0  0  0  0  0  0  0
    6.6027   -0.0862   19.9543 C   0  0  0  0  0  0  0  0  0  0  0  0
    7.3654   -0.7640   21.0306 C   0  0  0  0  0  0  0  0  0  0  0  0
    8.5240   -1.8684   20.7438 S   0  0  0  0  0  0  0  0  0  0  0  0
    7.1356   -0.1851   22.7113 S   0  0  0  0  0  0  0  0  0  0  0  0
    8.4216    1.0754   22.6879 C   0  0  0  0  0  0  0  0  0  0  0  0
    9.7835    0.7355   22.7620 C   0  0  0  0  0  0  0  0  0  0  0  0
   10.0968   -0.3011   22.8723 H   0  0  0  0  0  0  0  0  0  0  0  0
   10.7469    1.7515   22.6667 C   0  0  0  0  0  0  0  0  0  0  0  0
   11.7995    1.4865   22.6532 H   0  0  0  0  0  0  0  0  0  0  0  0
   10.3678    3.0963   22.5488 C   0  0  0  0  0  0  0  0  0  0  0  0
   11.0827    3.9092   22.4553 H   0  0  0  0  0  0  0  0  0  0  0  0
    9.0090    3.3969   22.4799 C   0  0  0  0  0  0  0  0  0  0  0  0
    8.6276    4.6791   22.3758 F   0  0  0  0  0  0  0  0  0  0  0  0
    8.0309    2.4047   22.5047 C   0  0  0  0  0  0  0  0  0  0  0  0
    6.9925    2.6577   22.3183 H   0  0  0  0  0  0  0  0  0  0  0  0
    5.3948    0.6075   20.1592 C   0  0  0  0  0  0  0  0  0  0  0  0
    4.9258    0.6397   21.1440 H   0  0  0  0  0  0  0  0  0  0  0  0
    4.8322    1.2814   19.0770 C   0  0  0  0  0  0  0  0  0  0  0  0
    3.9235    1.8576   19.1907 H   0  0  0  0  0  0  0  0  0  0  0  0
  1  2  1  0
  2  3  2  0
  3  4  1  0
  4  5  1  0
  4  6  2  0
  6  7  1  0
  7  8  2  0
  7  9  1  0
  9 10  1  0
 10 11  2  0
 11 12  1  0
 11 13  1  0
 13 14  1  0
 13 15  2  0
 15 16  1  0
 15 17  1  0
 17 18  1  0
 17 19  2  0
 19 20  1  0
  6 21  1  0
 21 22  1  0
 21 23  2  0
 23 24  1  0
 23  2  1  0
 19 10  1  0
M  END
>  <cnnaffinity>  (1) 
-4.89518

>  <filename>  (1) 
Fc1cccc(SC(=S)c2cccnc2)c1

$$$$
