
     RDKit          3D

 45 49  0  0  0  0  0  0  0  0999 V2000
    6.1973    3.1106   24.3949 F   0  0  0  0  0  0  0  0  0  0  0  0
    6.7767    4.1574   23.7833 C   0  0  0  0  0  0  0  0  0  0  0  0
    6.0172    5.2474   23.3912 C   0  0  0  0  0  0  0  0  0  0  0  0
    6.6896    6.3002   22.7571 C   0  0  0  0  0  0  0  0  0  0  0  0
    8.0672    6.1985   22.5421 C   0  0  0  0  0  0  0  0  0  0  0  0
    8.7903    5.1298   22.9213 N   0  0  0  0  0  0  0  0  0  0  0  0
    8.1661    4.1305   23.5502 C   0  0  0  0  0  0  0  0  0  0  0  0
    9.0053    2.9583   23.9734 C   0  0  0  0  0  0  0  0  0  0  0  0
    8.9686    1.9164   22.9105 C   0  0  0  0  0  0  0  0  0  0  0  0
    7.9029    1.2038   22.6199 N   0  0  0  0  0  0  0  0  0  0  0  0
    8.3602    0.3185   21.6946 C   0  0  0  0  0  0  0  0  0  0  0  0
    7.4422   -0.6503   21.0024 C   0  0  0  0  0  0  0  0  0  0  0  0
    6.6587   -0.0202   19.8537 C   0  0  0  0  0  0  0  0  0  0  0  0
    5.4503    0.6431   20.1066 C   0  0  0  0  0  0  0  0  0  0  0  0
    4.8082    1.3087   19.0607 C   0  0  0  0  0  0  0  0  0  0  0  0
    5.4016    1.2946   17.7959 C   0  0  0  0  0  0  0  0  0  0  0  0
    6.5475    0.6521   17.5231 N   0  0  0  0  0  0  0  0  0  0  0  0
    7.1491    0.0149   18.5357 C   0  0  0  0  0  0  0  0  0  0  0  0
    8.0842   -0.4909   18.2897 H   0  0  0  0  0  0  0  0  0  0  0  0
    4.9382    1.8224   16.9645 H   0  0  0  0  0  0  0  0  0  0  0  0
    3.8782    1.8444   19.2144 H   0  0  0  0  0  0  0  0  0  0  0  0
    5.0327    0.6514   21.1163 H   0  0  0  0  0  0  0  0  0  0  0  0
    6.7455   -1.0193   21.7628 H   0  0  0  0  0  0  0  0  0  0  0  0
    8.0378   -1.5008   20.6562 H   0  0  0  0  0  0  0  0  0  0  0  0
    9.6508    0.4144   21.4202 N   0  0  0  0  0  0  0  0  0  0  0  0
   10.0263    1.4860   22.1759 N   0  0  0  0  0  0  0  0  0  0  0  0
   11.3350    2.0071   22.2447 C   0  0  0  0  0  0  0  0  0  0  0  0
   11.6012    3.3784   22.1991 C   0  0  0  0  0  0  0  0  0  0  0  0
   12.9107    3.8678   22.3856 C   0  0  0  0  0  0  0  0  0  0  0  0
   13.9548    3.0079   22.6733 C   0  0  0  0  0  0  0  0  0  0  0  0
   13.7009    1.6185   22.7225 C   0  0  0  0  0  0  0  0  0  0  0  0
   12.4127    1.1375   22.4351 C   0  0  0  0  0  0  0  0  0  0  0  0
   12.5342   -0.2311   22.3957 N   0  0  0  0  0  0  0  0  0  0  0  0
   13.8465   -0.5095   22.6370 C   0  0  0  0  0  0  0  0  0  0  0  0
   14.5733    0.5501   22.8489 N   0  0  0  0  0  0  0  0  0  0  0  0
   14.2361   -1.5195   22.6078 H   0  0  0  0  0  0  0  0  0  0  0  0
   11.8067   -0.8416   22.0512 H   0  0  0  0  0  0  0  0  0  0  0  0
   14.9618    3.3990   22.7023 H   0  0  0  0  0  0  0  0  0  0  0  0
   13.1139    4.9266   22.2677 H   0  0  0  0  0  0  0  0  0  0  0  0
   10.7972    4.0879   22.0720 H   0  0  0  0  0  0  0  0  0  0  0  0
   10.0231    3.2965   24.1787 H   0  0  0  0  0  0  0  0  0  0  0  0
    8.6075    2.5115   24.8898 H   0  0  0  0  0  0  0  0  0  0  0  0
    8.6094    7.0066   22.0563 H   0  0  0  0  0  0  0  0  0  0  0  0
    6.1564    7.1834   22.4297 H   0  0  0  0  0  0  0  0  0  0  0  0
    4.9466    5.2495   23.5798 H   0  0  0  0  0  0  0  0  0  0  0  0
  1  2  1  0
  2  3  2  0
  3  4  1  0
  4  5  2  0
  5  6  1  0
  6  7  2  0
  7  8  1  0
  8  9  1  0
  9 10  2  0
 10 11  1  0
 11 12  1  0
 12 13  1  0
 13 14  2  0
 14 15  1  0
 15 16  2  0
 16 17  1  0
 17 18  2  0
 18 19  1  0
 16 20  1  0
 15 21  1  0
 14 22  1  0
 12 23  1  0
 12 24  1  0
 11 25  2  0
 25 26  1  0
 26 27  1  0
 27 28  2  0
 28 29  1  0
 29 30  2  0
 30 31  1  0
 31 32  2  0
 32 33  1  0
 33 34  1  0
 34 35  2  0
 34 36  1  0
 33 37  1  0
 30 38  1  0
 29 39  1  0
 28 40  1  0
  8 41  1  0
  8 42  1  0
  5 43  1  0
  4 44  1  0
  3 45  1  0
  7  2  1  0
 26  9  1  0
 32 27  1  0
 18 13  1  0
 35 31  1  0
M  END
>  <cnnaffinity>  (1) 
-6.85495

>  <filename>  (1) 
Fc1cccnc1Cc1nc(Cc2cccnc2)nn1-c1cccc2nc[nH]c12

$$$$
