
     RDKit          3D

 32 35  0  0  0  0  0  0  0  0999 V2000
    4.9959    1.8333   17.2483 H   0  0  0  0  0  0  0  0  0  0  0  0
    5.4843    1.1970   17.9854 C   0  0  0  0  0  0  0  0  0  0  0  0
    6.5916    0.5584   17.5739 N   0  0  0  0  0  0  0  0  0  0  0  0
    7.2466   -0.1856   18.4726 C   0  0  0  0  0  0  0  0  0  0  0  0
    8.1480   -0.6829   18.1067 H   0  0  0  0  0  0  0  0  0  0  0  0
    6.8350   -0.3419   19.8163 C   0  0  0  0  0  0  0  0  0  0  0  0
    7.7035   -1.0020   20.8025 C   0  0  0  0  0  0  0  0  0  0  0  0
    9.0523   -0.8692   21.0295 C   0  0  0  0  0  0  0  0  0  0  0  0
    9.7222   -0.2704   20.4220 H   0  0  0  0  0  0  0  0  0  0  0  0
    9.4711   -1.5183   22.1634 N   0  0  0  0  0  0  0  0  0  0  0  0
    8.3623   -2.0279   22.6373 C   0  0  0  0  0  0  0  0  0  0  0  0
    7.8865   -2.8506   24.0996 S   0  0  0  0  0  0  0  0  0  0  0  0
    6.2458   -2.7262   23.5038 C   0  0  0  0  0  0  0  0  0  0  0  0
    5.1272   -3.0915   24.1741 N   0  0  0  0  0  0  0  0  0  0  0  0
    4.3684   -2.5563   23.7734 H   0  0  0  0  0  0  0  0  0  0  0  0
    4.8957   -3.9164   25.2883 C   0  0  0  0  0  0  0  0  0  0  0  0
    4.0427   -3.4507   26.2993 C   0  0  0  0  0  0  0  0  0  0  0  0
    3.6485   -2.4426   26.2164 H   0  0  0  0  0  0  0  0  0  0  0  0
    3.7030   -4.2671   27.3876 C   0  0  0  0  0  0  0  0  0  0  0  0
    3.0496   -3.9224   28.1827 H   0  0  0  0  0  0  0  0  0  0  0  0
    4.2204   -5.5600   27.4462 C   0  0  0  0  0  0  0  0  0  0  0  0
    3.9107   -6.3474   28.4931 F   0  0  0  0  0  0  0  0  0  0  0  0
    5.0572   -6.0524   26.4476 C   0  0  0  0  0  0  0  0  0  0  0  0
    5.4268   -7.0708   26.5287 H   0  0  0  0  0  0  0  0  0  0  0  0
    5.4008   -5.2216   25.3700 C   0  0  0  0  0  0  0  0  0  0  0  0
    6.0323   -5.5901   24.5683 H   0  0  0  0  0  0  0  0  0  0  0  0
    6.0581   -2.1567   22.3435 N   0  0  0  0  0  0  0  0  0  0  0  0
    7.2723   -1.7765   21.8653 N   0  0  0  0  0  0  0  0  0  0  0  0
    5.6231    0.2612   20.1962 C   0  0  0  0  0  0  0  0  0  0  0  0
    5.2323    0.0908   21.1999 H   0  0  0  0  0  0  0  0  0  0  0  0
    4.9571    1.0666   19.2751 C   0  0  0  0  0  0  0  0  0  0  0  0
    4.0529    1.6034   19.5416 H   0  0  0  0  0  0  0  0  0  0  0  0
  1  2  1  0
  2  3  2  0
  3  4  1  0
  4  5  1  0
  4  6  2  0
  6  7  1  0
  7  8  2  0
  8  9  1  0
  8 10  1  0
 10 11  2  0
 11 12  1  0
 12 13  1  0
 13 14  1  0
 14 15  1  0
 14 16  1  0
 16 17  2  0
 17 18  1  0
 17 19  1  0
 19 20  1  0
 19 21  2  0
 21 22  1  0
 21 23  1  0
 23 24  1  0
 23 25  2  0
 25 26  1  0
 13 27  2  0
 27 28  1  0
  6 29  1  0
 29 30  1  0
 29 31  2  0
 31 32  1  0
 31  2  1  0
 28  7  1  0
 28 11  1  0
 25 16  1  0
M  END
>  <cnnaffinity>  (1) 
-5.28011

>  <filename>  (1) 
Fc1ccc(Nc2nn3c(-c4cccnc4)cnc3s2)cc1

$$$$
