
     RDKit          3D

 47 51  0  0  0  0  0  0  0  0999 V2000
   10.3080    4.5909   24.6215 F   0  0  0  0  0  0  0  0  0  0  0  0
    8.3267    4.9887   25.1423 C   0  0  0  0  0  0  0  0  0  0  0  0
    8.1408    5.1442   25.2946 C   0  0  0  0  0  0  0  0  0  0  0  0
    7.9363    4.4632   23.6332 C   0  0  0  0  0  0  0  0  0  0  0  0
    7.4535    3.1108   24.1381 C   0  0  0  0  0  0  0  0  0  0  0  0
    7.5049    1.9114   23.2170 C   0  0  0  0  0  0  0  0  0  0  0  0
    6.4249    1.2802   22.7708 N   0  0  0  0  0  0  0  0  0  0  0  0
    6.9256    0.3300   21.9386 C   0  0  0  0  0  0  0  0  0  0  0  0
    6.1323   -0.5255   20.9813 C   0  0  0  0  0  0  0  0  0  0  0  0
    5.8604    0.1975   19.6621 C   0  0  0  0  0  0  0  0  0  0  0  0
    5.0513    1.3432   19.6719 C   0  0  0  0  0  0  0  0  0  0  0  0
    4.8783    2.0563   18.4865 C   0  0  0  0  0  0  0  0  0  0  0  0
    5.5278    1.6081   17.3339 C   0  0  0  0  0  0  0  0  0  0  0  0
    6.3046    0.5152   17.2982 N   0  0  0  0  0  0  0  0  0  0  0  0
    6.4557   -0.1656   18.4434 C   0  0  0  0  0  0  0  0  0  0  0  0
    7.0984   -1.0464   18.3999 H   0  0  0  0  0  0  0  0  0  0  0  0
    5.4242    2.1542   16.3980 H   0  0  0  0  0  0  0  0  0  0  0  0
    4.2751    2.9575   18.4546 H   0  0  0  0  0  0  0  0  0  0  0  0
    4.5996    1.6809   20.6076 H   0  0  0  0  0  0  0  0  0  0  0  0
    5.1893   -0.7882   21.4558 H   0  0  0  0  0  0  0  0  0  0  0  0
    6.6974   -1.4505   20.8196 H   0  0  0  0  0  0  0  0  0  0  0  0
    8.2332    0.3014   21.8683 N   0  0  0  0  0  0  0  0  0  0  0  0
    8.6205    1.3001   22.7027 N   0  0  0  0  0  0  0  0  0  0  0  0
    9.9994    1.6746   22.6274 C   0  0  0  0  0  0  0  0  0  0  0  0
   10.4094    2.4496   21.5539 C   0  0  0  0  0  0  0  0  0  0  0  0
   11.7747    2.7837   21.4204 C   0  0  0  0  0  0  0  0  0  0  0  0
   12.7160    2.3399   22.2304 N   0  0  0  0  0  0  0  0  0  0  0  0
   12.3222    1.5397   23.2660 C   0  0  0  0  0  0  0  0  0  0  0  0
   13.3153    1.0012   24.1305 C   0  0  0  0  0  0  0  0  0  0  0  0
   12.9365    0.2700   25.2302 C   0  0  0  0  0  0  0  0  0  0  0  0
   11.5523    0.0351   25.4745 C   0  0  0  0  0  0  0  0  0  0  0  0
   10.5897    0.4445   24.6687 N   0  0  0  0  0  0  0  0  0  0  0  0
   10.9583    1.1701   23.5594 C   0  0  0  0  0  0  0  0  0  0  0  0
   11.2229   -0.4974   26.3612 H   0  0  0  0  0  0  0  0  0  0  0  0
   13.6871   -0.1239   25.9075 H   0  0  0  0  0  0  0  0  0  0  0  0
   14.3432    1.2048   23.8524 H   0  0  0  0  0  0  0  0  0  0  0  0
   12.1020    3.4189   20.6007 H   0  0  0  0  0  0  0  0  0  0  0  0
    9.6822    2.7963   20.8319 H   0  0  0  0  0  0  0  0  0  0  0  0
    8.2297    3.1051   25.4625 C   0  0  0  0  0  0  0  0  0  0  0  0
    9.2281    2.6734   25.4150 H   0  0  0  0  0  0  0  0  0  0  0  0
    7.6895    2.7700   26.3448 H   0  0  0  0  0  0  0  0  0  0  0  0
    6.3788    3.1808   24.3445 H   0  0  0  0  0  0  0  0  0  0  0  0
    7.2025    5.0088   23.0280 H   0  0  0  0  0  0  0  0  0  0  0  0
    8.8270    4.3957   22.9806 H   0  0  0  0  0  0  0  0  0  0  0  0
    8.8097    6.1866   25.1772 H   0  0  0  0  0  0  0  0  0  0  0  0
    6.9298    5.9481   25.3473 H   0  0  0  0  0  0  0  0  0  0  0  0
    7.8311    5.3138   26.5275 H   0  0  0  0  0  0  0  0  0  0  0  0
  1  2  1  0
  2  3  1  0
  3  4  1  0
  4  5  1  0
  5  6  1  0
  6  7  2  0
  7  8  1  0
  8  9  1  0
  9 10  1  0
 10 11  2  0
 11 12  1  0
 12 13  2  0
 13 14  1  0
 14 15  2  0
 15 16  1  0
 13 17  1  0
 12 18  1  0
 11 19  1  0
  9 20  1  0
  9 21  1  0
  8 22  2  0
 22 23  1  0
 23 24  1  0
 24 25  2  0
 25 26  1  0
 26 27  2  0
 27 28  1  0
 28 29  2  0
 29 30  1  0
 30 31  2  0
 31 32  1  0
 32 33  2  0
 31 34  1  0
 30 35  1  0
 29 36  1  0
 26 37  1  0
 25 38  1  0
  5 39  1  0
 39 40  1  0
 39 41  1  0
  5 42  1  0
  4 43  1  0
  4 44  1  0
  3 45  1  0
  3 46  1  0
  2 47  1  0
 39  2  1  0
 23  6  1  0
 33 24  1  0
 15 10  1  0
 33 28  1  0
M  END
>  <cnnaffinity>  (1) 
-6.50531

>  <filename>  (1) 
FC1CCC(c2nc(Cc3cccnc3)nn2-c2ccnc3cccnc23)C1

$$$$
