
     RDKit          3D

 31 33  0  0  0  0  0  0  0  0999 V2000
    5.2994   -0.8565   25.9834 F   0  0  0  0  0  0  0  0  0  0  0  0
    6.5990   -0.9297   25.6826 C   0  0  0  0  0  0  0  0  0  0  0  0
    6.9634   -1.6426   24.5359 C   0  0  0  0  0  0  0  0  0  0  0  0
    8.3237   -1.7166   24.2140 C   0  0  0  0  0  0  0  0  0  0  0  0
    8.8235   -2.4308   22.9633 C   0  0  0  0  0  0  0  0  0  0  0  0
    9.3699   -1.5109   21.9648 N   0  0  0  0  0  0  0  0  0  0  0  0
   10.6772   -1.1028   21.8696 C   0  0  0  0  0  0  0  0  0  0  0  0
   10.8163   -0.1349   21.0198 N   0  0  0  0  0  0  0  0  0  0  0  0
    9.5647    0.1408   20.5059 N   0  0  0  0  0  0  0  0  0  0  0  0
    8.7256   -0.6713   21.0901 C   0  0  0  0  0  0  0  0  0  0  0  0
    7.3674   -0.7624   20.8951 N   0  0  0  0  0  0  0  0  0  0  0  0
    6.6752   -0.0364   19.8904 C   0  0  0  0  0  0  0  0  0  0  0  0
    5.4609    0.6108   20.1562 C   0  0  0  0  0  0  0  0  0  0  0  0
    4.8144    1.2905   19.1100 C   0  0  0  0  0  0  0  0  0  0  0  0
    5.3860    1.2938   17.8327 C   0  0  0  0  0  0  0  0  0  0  0  0
    6.5464    0.6753   17.5536 N   0  0  0  0  0  0  0  0  0  0  0  0
    7.1721    0.0543   18.5601 C   0  0  0  0  0  0  0  0  0  0  0  0
    8.1389   -0.3941   18.3424 H   0  0  0  0  0  0  0  0  0  0  0  0
    4.9146    1.8137   17.0014 H   0  0  0  0  0  0  0  0  0  0  0  0
    3.8858    1.8284   19.2732 H   0  0  0  0  0  0  0  0  0  0  0  0
    5.0513    0.6026   21.1653 H   0  0  0  0  0  0  0  0  0  0  0  0
    6.8804   -1.0004   21.7502 H   0  0  0  0  0  0  0  0  0  0  0  0
   11.4844   -1.5458   22.4393 H   0  0  0  0  0  0  0  0  0  0  0  0
    8.0193   -3.0298   22.5217 H   0  0  0  0  0  0  0  0  0  0  0  0
    9.6279   -3.1299   23.2283 H   0  0  0  0  0  0  0  0  0  0  0  0
    9.2217   -1.0676   25.0854 C   0  0  0  0  0  0  0  0  0  0  0  0
    8.7278   -0.3898   26.1969 C   0  0  0  0  0  0  0  0  0  0  0  0
    7.4204   -0.3178   26.4985 N   0  0  0  0  0  0  0  0  0  0  0  0
    9.3907    0.1269   26.8905 H   0  0  0  0  0  0  0  0  0  0  0  0
   10.2935   -1.0697   24.9070 H   0  0  0  0  0  0  0  0  0  0  0  0
    6.1664   -2.0991   23.9634 H   0  0  0  0  0  0  0  0  0  0  0  0
  1  2  1  0
  2  3  2  0
  3  4  1  0
  4  5  1  0
  5  6  1  0
  6  7  1  0
  7  8  2  0
  8  9  1  0
  9 10  2  0
 10 11  1  0
 11 12  1  0
 12 13  2  0
 13 14  1  0
 14 15  2  0
 15 16  1  0
 16 17  2  0
 17 18  1  0
 15 19  1  0
 14 20  1  0
 13 21  1  0
 11 22  1  0
  7 23  1  0
  5 24  1  0
  5 25  1  0
  4 26  2  0
 26 27  1  0
 27 28  2  0
 27 29  1  0
 26 30  1  0
  3 31  1  0
 28  2  1  0
 10  6  1  0
 17 12  1  0
M  END
>  <cnnaffinity>  (1) 
-5.38493

>  <filename>  (1) 
Fc1cc(Cn2cnnc2Nc2cccnc2)ccn1

$$$$
