
     RDKit          3D

 42 46  0  0  0  0  0  0  0  0999 V2000
   12.8488    1.7877   24.6958 F   0  0  0  0  0  0  0  0  0  0  0  0
   12.0828    0.8563   24.1218 C   0  0  0  0  0  0  0  0  0  0  0  0
   11.4141   -0.0629   24.9316 C   0  0  0  0  0  0  0  0  0  0  0  0
   10.7374   -1.1094   24.3042 C   0  0  0  0  0  0  0  0  0  0  0  0
   10.6511   -1.1769   22.9058 C   0  0  0  0  0  0  0  0  0  0  0  0
    9.8817   -2.2861   22.2174 C   0  0  0  0  0  0  0  0  0  0  0  0
    8.5080   -1.8783   21.8948 N   0  0  0  0  0  0  0  0  0  0  0  0
    8.2447   -1.3496   20.6775 N   0  0  0  0  0  0  0  0  0  0  0  0
    7.0818   -0.7454   20.8512 C   0  0  0  0  0  0  0  0  0  0  0  0
    6.4244   -0.0054   19.7843 C   0  0  0  0  0  0  0  0  0  0  0  0
    5.2351    0.7156   19.9728 C   0  0  0  0  0  0  0  0  0  0  0  0
    4.7354    1.4249   18.8835 C   0  0  0  0  0  0  0  0  0  0  0  0
    5.4234    1.3750   17.6649 C   0  0  0  0  0  0  0  0  0  0  0  0
    6.5505    0.6719   17.4765 N   0  0  0  0  0  0  0  0  0  0  0  0
    7.0404    0.0098   18.5265 C   0  0  0  0  0  0  0  0  0  0  0  0
    7.9730   -0.5309   18.3691 H   0  0  0  0  0  0  0  0  0  0  0  0
    5.0576    1.9281   16.8028 H   0  0  0  0  0  0  0  0  0  0  0  0
    3.8446    2.0366   18.9710 H   0  0  0  0  0  0  0  0  0  0  0  0
    4.7395    0.7262   20.9470 H   0  0  0  0  0  0  0  0  0  0  0  0
    6.6019   -0.8145   22.1124 N   0  0  0  0  0  0  0  0  0  0  0  0
    7.5125   -1.5274   22.7489 C   0  0  0  0  0  0  0  0  0  0  0  0
    7.5821   -1.8513   24.2054 C   0  0  0  0  0  0  0  0  0  0  0  0
    7.7309   -3.1484   24.7308 C   0  0  0  0  0  0  0  0  0  0  0  0
    7.8733   -3.3519   26.1208 C   0  0  0  0  0  0  0  0  0  0  0  0
    7.9239   -2.3811   27.0407 N   0  0  0  0  0  0  0  0  0  0  0  0
    7.8205   -1.1514   26.5205 C   0  0  0  0  0  0  0  0  0  0  0  0
    7.6263   -0.8079   25.1664 C   0  0  0  0  0  0  0  0  0  0  0  0
    7.6187    0.6194   25.1803 C   0  0  0  0  0  0  0  0  0  0  0  0
    7.7753    1.1121   26.3963 N   0  0  0  0  0  0  0  0  0  0  0  0
    7.8955    0.0207   27.1963 N   0  0  0  0  0  0  0  0  0  0  0  0
    8.0820    0.0780   28.1842 H   0  0  0  0  0  0  0  0  0  0  0  0
    7.4963    1.2834   24.3324 H   0  0  0  0  0  0  0  0  0  0  0  0
    7.9535   -4.3690   26.5009 H   0  0  0  0  0  0  0  0  0  0  0  0
    7.7110   -4.0158   24.0812 H   0  0  0  0  0  0  0  0  0  0  0  0
    9.8473   -3.1781   22.8550 H   0  0  0  0  0  0  0  0  0  0  0  0
   10.3489   -2.5385   21.2592 H   0  0  0  0  0  0  0  0  0  0  0  0
   11.2485   -0.1772   22.1278 C   0  0  0  0  0  0  0  0  0  0  0  0
   11.9984    0.8269   22.7348 C   0  0  0  0  0  0  0  0  0  0  0  0
   12.5150    1.5840   22.1534 H   0  0  0  0  0  0  0  0  0  0  0  0
   11.1191   -0.1861   21.0430 H   0  0  0  0  0  0  0  0  0  0  0  0
   10.3448   -1.9281   24.9043 H   0  0  0  0  0  0  0  0  0  0  0  0
   11.4322    0.0622   26.0112 H   0  0  0  0  0  0  0  0  0  0  0  0
  1  2  1  0
  2  3  2  0
  3  4  1  0
  4  5  2  0
  5  6  1  0
  6  7  1  0
  7  8  1  0
  8  9  2  0
  9 10  1  0
 10 11  2  0
 11 12  1  0
 12 13  2  0
 13 14  1  0
 14 15  2  0
 15 16  1  0
 13 17  1  0
 12 18  1  0
 11 19  1  0
  9 20  1  0
 20 21  2  0
 21 22  1  0
 22 23  2  0
 23 24  1  0
 24 25  2  0
 25 26  1  0
 26 27  2  0
 27 28  1  0
 28 29  2  0
 29 30  1  0
 30 31  1  0
 28 32  1  0
 24 33  1  0
 23 34  1  0
  6 35  1  0
  6 36  1  0
  5 37  1  0
 37 38  2  0
 38 39  1  0
 37 40  1  0
  4 41  1  0
  3 42  1  0
 38  2  1  0
 21  7  1  0
 27 22  1  0
 15 10  1  0
 30 26  1  0
M  END
>  <cnnaffinity>  (1) 
-6.31195

>  <filename>  (1) 
Fc1ccc(Cn2nc(-c3cccnc3)nc2-c2ccnc3[nH]ncc23)cc1

$$$$
