
     RDKit          3D

 45 49  0  0  0  0  0  0  0  0999 V2000
   10.1322    5.3404   24.6311 F   0  0  0  0  0  0  0  0  0  0  0  0
    8.9814    5.3989   23.9256 C   0  0  0  0  0  0  0  0  0  0  0  0
    8.5369    6.6601   23.5217 C   0  0  0  0  0  0  0  0  0  0  0  0
    7.3608    6.7471   22.7711 C   0  0  0  0  0  0  0  0  0  0  0  0
    6.6572    5.5840   22.4384 C   0  0  0  0  0  0  0  0  0  0  0  0
    7.1238    4.3332   22.8574 C   0  0  0  0  0  0  0  0  0  0  0  0
    8.3008    4.2112   23.6154 C   0  0  0  0  0  0  0  0  0  0  0  0
    8.7816    2.8444   24.0992 C   0  0  0  0  0  0  0  0  0  0  0  0
    8.8616    1.8293   23.0467 N   0  0  0  0  0  0  0  0  0  0  0  0
    7.7920    1.0506   22.7540 N   0  0  0  0  0  0  0  0  0  0  0  0
    8.2024    0.3518   21.7128 C   0  0  0  0  0  0  0  0  0  0  0  0
    7.3455   -0.6572   21.0002 C   0  0  0  0  0  0  0  0  0  0  0  0
    6.5758   -0.0417   19.8435 C   0  0  0  0  0  0  0  0  0  0  0  0
    5.3743    0.6374   20.0780 C   0  0  0  0  0  0  0  0  0  0  0  0
    4.7690    1.3180   19.0201 C   0  0  0  0  0  0  0  0  0  0  0  0
    5.3906    1.3067   17.7676 C   0  0  0  0  0  0  0  0  0  0  0  0
    6.5320    0.6474   17.5146 N   0  0  0  0  0  0  0  0  0  0  0  0
    7.0992   -0.0013   18.5396 C   0  0  0  0  0  0  0  0  0  0  0  0
    8.0322   -0.5203   18.3179 H   0  0  0  0  0  0  0  0  0  0  0  0
    4.9578    1.8561   16.9324 H   0  0  0  0  0  0  0  0  0  0  0  0
    3.8478    1.8733   19.1590 H   0  0  0  0  0  0  0  0  0  0  0  0
    4.9271    0.6426   21.0754 H   0  0  0  0  0  0  0  0  0  0  0  0
    7.9950   -1.4658   20.6483 H   0  0  0  0  0  0  0  0  0  0  0  0
    6.6485   -1.0919   21.7228 H   0  0  0  0  0  0  0  0  0  0  0  0
    9.4698    0.6281   21.3159 N   0  0  0  0  0  0  0  0  0  0  0  0
    9.8799    1.5324   22.1955 C   0  0  0  0  0  0  0  0  0  0  0  0
   11.2315    2.1336   22.3610 C   0  0  0  0  0  0  0  0  0  0  0  0
   11.4651    3.5346   22.3641 C   0  0  0  0  0  0  0  0  0  0  0  0
   12.7534    4.0665   22.5464 C   0  0  0  0  0  0  0  0  0  0  0  0
   13.8562    3.3296   22.7495 N   0  0  0  0  0  0  0  0  0  0  0  0
   13.6089    2.0226   22.7360 C   0  0  0  0  0  0  0  0  0  0  0  0
   12.3854    1.3353   22.5443 C   0  0  0  0  0  0  0  0  0  0  0  0
   12.6131   -0.0369   22.5041 N   0  0  0  0  0  0  0  0  0  0  0  0
   13.9050   -0.1461   22.6176 C   0  0  0  0  0  0  0  0  0  0  0  0
   14.5570    1.0451   22.7939 N   0  0  0  0  0  0  0  0  0  0  0  0
   15.5245    1.2762   22.6772 H   0  0  0  0  0  0  0  0  0  0  0  0
   14.4551   -1.0795   22.5816 H   0  0  0  0  0  0  0  0  0  0  0  0
   12.9007    5.1474   22.5183 H   0  0  0  0  0  0  0  0  0  0  0  0
   10.6377    4.2173   22.2272 H   0  0  0  0  0  0  0  0  0  0  0  0
    8.0956    2.4571   24.8590 H   0  0  0  0  0  0  0  0  0  0  0  0
    9.7655    2.9438   24.5629 H   0  0  0  0  0  0  0  0  0  0  0  0
    6.5741    3.4329   22.5842 H   0  0  0  0  0  0  0  0  0  0  0  0
    5.7480    5.6478   21.8446 H   0  0  0  0  0  0  0  0  0  0  0  0
    6.9947    7.7207   22.4496 H   0  0  0  0  0  0  0  0  0  0  0  0
    9.1144    7.5403   23.7884 H   0  0  0  0  0  0  0  0  0  0  0  0
  1  2  1  0
  2  3  2  0
  3  4  1  0
  4  5  2  0
  5  6  1  0
  6  7  2  0
  7  8  1  0
  8  9  1  0
  9 10  1  0
 10 11  2  0
 11 12  1  0
 12 13  1  0
 13 14  2  0
 14 15  1  0
 15 16  2  0
 16 17  1  0
 17 18  2  0
 18 19  1  0
 16 20  1  0
 15 21  1  0
 14 22  1  0
 12 23  1  0
 12 24  1  0
 11 25  1  0
 25 26  2  0
 26 27  1  0
 27 28  2  0
 28 29  1  0
 29 30  2  0
 30 31  1  0
 31 32  2  0
 32 33  1  0
 33 34  2  0
 34 35  1  0
 35 36  1  0
 34 37  1  0
 29 38  1  0
 28 39  1  0
  8 40  1  0
  8 41  1  0
  6 42  1  0
  5 43  1  0
  4 44  1  0
  3 45  1  0
  7  2  1  0
 26  9  1  0
 32 27  1  0
 18 13  1  0
 35 31  1  0
M  END
>  <cnnaffinity>  (1) 
-6.86745

>  <filename>  (1) 
Fc1ccccc1Cn1nc(Cc2cccnc2)nc1-c1ccnc2[nH]cnc12

$$$$
