
     RDKit          3D

 42 46  0  0  0  0  0  0  0  0999 V2000
   14.7064    3.9725   22.6190 F   0  0  0  0  0  0  0  0  0  0  0  0
   13.5026    3.3778   22.6266 C   0  0  0  0  0  0  0  0  0  0  0  0
   12.3694    4.1736   22.5230 C   0  0  0  0  0  0  0  0  0  0  0  0
   11.1205    3.5578   22.4399 C   0  0  0  0  0  0  0  0  0  0  0  0
   11.0124    2.1572   22.4959 C   0  0  0  0  0  0  0  0  0  0  0  0
    9.7243    1.5440   22.4068 N   0  0  0  0  0  0  0  0  0  0  0  0
    9.4743    0.4951   21.5709 N   0  0  0  0  0  0  0  0  0  0  0  0
    8.1647    0.3669   21.6439 C   0  0  0  0  0  0  0  0  0  0  0  0
    7.3872   -0.6699   20.8717 C   0  0  0  0  0  0  0  0  0  0  0  0
    6.5811   -0.0929   19.7070 C   0  0  0  0  0  0  0  0  0  0  0  0
    5.3555    0.5466   19.9432 C   0  0  0  0  0  0  0  0  0  0  0  0
    4.7536    1.2673   18.9091 C   0  0  0  0  0  0  0  0  0  0  0  0
    5.3794    1.2934   17.6610 C   0  0  0  0  0  0  0  0  0  0  0  0
    6.5069    0.6193   17.3856 N   0  0  0  0  0  0  0  0  0  0  0  0
    7.0763   -0.0591   18.3896 C   0  0  0  0  0  0  0  0  0  0  0  0
    7.9947   -0.5932   18.1405 H   0  0  0  0  0  0  0  0  0  0  0  0
    4.9562    1.8766   16.8453 H   0  0  0  0  0  0  0  0  0  0  0  0
    3.8384    1.8284   19.0627 H   0  0  0  0  0  0  0  0  0  0  0  0
    4.8978    0.4937   20.9329 H   0  0  0  0  0  0  0  0  0  0  0  0
    8.0882   -1.4387   20.5321 H   0  0  0  0  0  0  0  0  0  0  0  0
    6.7127   -1.1458   21.5926 H   0  0  0  0  0  0  0  0  0  0  0  0
    7.5490    1.2518   22.4696 N   0  0  0  0  0  0  0  0  0  0  0  0
    8.5472    1.9592   22.9660 C   0  0  0  0  0  0  0  0  0  0  0  0
    8.4066    2.9603   24.0118 C   0  0  0  0  0  0  0  0  0  0  0  0
    9.3113    3.1109   25.0611 C   0  0  0  0  0  0  0  0  0  0  0  0
    9.1936    4.0313   26.0414 N   0  0  0  0  0  0  0  0  0  0  0  0
    8.1418    4.8615   26.0372 C   0  0  0  0  0  0  0  0  0  0  0  0
    7.1398    4.8007   25.0423 C   0  0  0  0  0  0  0  0  0  0  0  0
    7.2974    3.8206   24.0511 C   0  0  0  0  0  0  0  0  0  0  0  0
    6.2239    3.9590   23.2366 N   0  0  0  0  0  0  0  0  0  0  0  0
    5.4663    4.9841   23.7292 C   0  0  0  0  0  0  0  0  0  0  0  0
    5.9651    5.5238   24.8048 N   0  0  0  0  0  0  0  0  0  0  0  0
    4.5518    5.3042   23.2435 H   0  0  0  0  0  0  0  0  0  0  0  0
    6.0199    3.3251   22.4839 H   0  0  0  0  0  0  0  0  0  0  0  0
    8.0953    5.5988   26.8373 H   0  0  0  0  0  0  0  0  0  0  0  0
   10.2017    2.4817   25.1044 H   0  0  0  0  0  0  0  0  0  0  0  0
   12.1635    1.3749   22.6467 C   0  0  0  0  0  0  0  0  0  0  0  0
   13.4200    1.9884   22.7028 C   0  0  0  0  0  0  0  0  0  0  0  0
   14.3437    1.4192   22.7295 H   0  0  0  0  0  0  0  0  0  0  0  0
   12.0586    0.2966   22.7286 H   0  0  0  0  0  0  0  0  0  0  0  0
   10.2250    4.1584   22.3324 H   0  0  0  0  0  0  0  0  0  0  0  0
   12.4777    5.2520   22.5232 H   0  0  0  0  0  0  0  0  0  0  0  0
  1  2  1  0
  2  3  2  0
  3  4  1  0
  4  5  2  0
  5  6  1  0
  6  7  1  0
  7  8  2  0
  8  9  1  0
  9 10  1  0
 10 11  2  0
 11 12  1  0
 12 13  2  0
 13 14  1  0
 14 15  2  0
 15 16  1  0
 13 17  1  0
 12 18  1  0
 11 19  1  0
  9 20  1  0
  9 21  1  0
  8 22  1  0
 22 23  2  0
 23 24  1  0
 24 25  2  0
 25 26  1  0
 26 27  2  0
 27 28  1  0
 28 29  2  0
 29 30  1  0
 30 31  1  0
 31 32  2  0
 31 33  1  0
 30 34  1  0
 27 35  1  0
 25 36  1  0
  5 37  1  0
 37 38  2  0
 38 39  1  0
 37 40  1  0
  4 41  1  0
  3 42  1  0
 38  2  1  0
 23  6  1  0
 29 24  1  0
 15 10  1  0
 32 28  1  0
M  END
>  <cnnaffinity>  (1) 
-5.73974

>  <filename>  (1) 
Fc1ccc(-n2nc(Cc3cccnc3)nc2-c2cncc3nc[nH]c23)cc1

$$$$
