
     RDKit          3D

 43 47  0  0  0  0  0  0  0  0999 V2000
   14.5023    3.5855   22.4396 F   0  0  0  0  0  0  0  0  0  0  0  0
   13.3996    2.9028   22.7256 C   0  0  0  0  0  0  0  0  0  0  0  0
   12.1988    2.8626   21.8210 C   0  0  0  0  0  0  0  0  0  0  0  0
   12.1309    3.2981   20.5659 C   0  0  0  0  0  0  0  0  0  0  0  0
   11.1256    2.0315   22.6952 C   0  0  0  0  0  0  0  0  0  0  0  0
    9.7995    1.6817   22.3591 N   0  0  0  0  0  0  0  0  0  0  0  0
    9.5220    0.7688   21.3864 N   0  0  0  0  0  0  0  0  0  0  0  0
    8.3053    0.3766   21.6905 C   0  0  0  0  0  0  0  0  0  0  0  0
    7.5380   -0.6373   20.8954 C   0  0  0  0  0  0  0  0  0  0  0  0
    6.7823    0.0001   19.7405 C   0  0  0  0  0  0  0  0  0  0  0  0
    5.6464    0.7754   20.0157 C   0  0  0  0  0  0  0  0  0  0  0  0
    4.9852    1.3920   18.9522 C   0  0  0  0  0  0  0  0  0  0  0  0
    5.5073    1.2427   17.6625 C   0  0  0  0  0  0  0  0  0  0  0  0
    6.6169    0.5406   17.3849 N   0  0  0  0  0  0  0  0  0  0  0  0
    7.2344   -0.0557   18.4126 C   0  0  0  0  0  0  0  0  0  0  0  0
    8.1509   -0.6013   18.1776 H   0  0  0  0  0  0  0  0  0  0  0  0
    5.0230    1.7143   16.8098 H   0  0  0  0  0  0  0  0  0  0  0  0
    4.0943    1.9938   19.1074 H   0  0  0  0  0  0  0  0  0  0  0  0
    5.3075    0.8967   21.0494 H   0  0  0  0  0  0  0  0  0  0  0  0
    6.8302   -1.1003   21.5929 H   0  0  0  0  0  0  0  0  0  0  0  0
    8.2238   -1.4184   20.5520 H   0  0  0  0  0  0  0  0  0  0  0  0
    7.7659    0.9586   22.7908 N   0  0  0  0  0  0  0  0  0  0  0  0
    8.7071    1.7899   23.1826 C   0  0  0  0  0  0  0  0  0  0  0  0
    8.6481    2.7553   24.3025 C   0  0  0  0  0  0  0  0  0  0  0  0
    8.3184    2.3844   25.6146 C   0  0  0  0  0  0  0  0  0  0  0  0
    8.4682    3.3023   26.6682 C   0  0  0  0  0  0  0  0  0  0  0  0
    8.8791    4.5743   26.5257 N   0  0  0  0  0  0  0  0  0  0  0  0
    9.0920    4.9288   25.2580 C   0  0  0  0  0  0  0  0  0  0  0  0
    8.9736    4.1161   24.0977 C   0  0  0  0  0  0  0  0  0  0  0  0
    9.1928    4.9784   22.9681 C   0  0  0  0  0  0  0  0  0  0  0  0
    9.5017    6.2150   23.4604 C   0  0  0  0  0  0  0  0  0  0  0  0
    9.4554    6.1762   24.8409 N   0  0  0  0  0  0  0  0  0  0  0  0
    9.6048    6.9175   25.5047 H   0  0  0  0  0  0  0  0  0  0  0  0
    9.7470    7.1263   22.9208 H   0  0  0  0  0  0  0  0  0  0  0  0
    9.0647    4.6822   21.9321 H   0  0  0  0  0  0  0  0  0  0  0  0
    8.2576    2.9819   27.6855 H   0  0  0  0  0  0  0  0  0  0  0  0
    7.9491    1.3885   25.8275 H   0  0  0  0  0  0  0  0  0  0  0  0
   11.7418    1.6773   23.8984 C   0  0  0  0  0  0  0  0  0  0  0  0
   13.1178    2.1605   23.8386 C   0  0  0  0  0  0  0  0  0  0  0  0
   13.8528    1.8887   24.5694 H   0  0  0  0  0  0  0  0  0  0  0  0
   11.2866    1.1483   24.7262 H   0  0  0  0  0  0  0  0  0  0  0  0
   11.2315    3.1051   19.9873 H   0  0  0  0  0  0  0  0  0  0  0  0
   13.0038    3.7891   20.1234 H   0  0  0  0  0  0  0  0  0  0  0  0
  1  2  1  0
  2  3  2  0
  3  4  1  0
  4  5  2  0
  5  6  1  0
  6  7  1  0
  7  8  2  0
  8  9  1  0
  9 10  1  0
 10 11  2  0
 11 12  1  0
 12 13  2  0
 13 14  1  0
 14 15  2  0
 15 16  1  0
 13 17  1  0
 12 18  1  0
 11 19  1  0
  9 20  1  0
  9 21  1  0
  8 22  1  0
 22 23  2  0
 23 24  1  0
 24 25  2  0
 25 26  1  0
 26 27  2  0
 27 28  1  0
 28 29  2  0
 29 30  1  0
 30 31  2  0
 31 32  1  0
 32 33  1  0
 31 34  1  0
 30 35  1  0
 26 36  1  0
 25 37  1  0
  5 38  1  0
 38 39  2  0
 39 40  1  0
 38 41  1  0
  4 42  1  0
  3 43  1  0
 39  2  1  0
 23  6  1  0
 29 24  1  0
 15 10  1  0
 32 28  1  0
M  END
>  <cnnaffinity>  (1) 
-5.99452

>  <filename>  (1) 
Fc1ccc(-n2nc(Cc3cccnc3)nc2-c2ccnc3[nH]ccc23)cc1

$$$$
