
     RDKit          3D

 36 38  0  0  0  0  0  0  0  0999 V2000
    7.3840    4.6621   26.7801 F   0  0  0  0  0  0  0  0  0  0  0  0
    8.2421    4.6448   25.7603 C   0  0  0  0  0  0  0  0  0  0  0  0
    9.4328    5.2786   25.7449 C   0  0  0  0  0  0  0  0  0  0  0  0
   10.3316    4.5982   23.8563 C   0  0  0  0  0  0  0  0  0  0  0  0
    9.9640    4.7419   23.9355 C   0  0  0  0  0  0  0  0  0  0  0  0
    8.6797    3.9333   23.6676 C   0  0  0  0  0  0  0  0  0  0  0  0
    8.2172    3.5094   22.2864 C   0  0  0  0  0  0  0  0  0  0  0  0
    8.1633    1.9751   21.8830 N   0  0  0  0  0  4  0  0  0  0  0  0
    7.3805    0.9234   22.7828 C   0  0  0  0  0  0  0  0  0  0  0  0
    7.6610   -0.4352   22.2410 C   0  0  0  0  0  0  0  0  0  0  0  0
    8.2338   -1.5530   22.8149 C   0  0  0  0  0  0  0  0  0  0  0  0
    8.3971   -2.4584   21.7500 C   0  0  0  0  0  0  0  0  0  0  0  0
    7.9377   -1.9654   20.6148 N   0  0  0  0  0  0  0  0  0  0  0  0
    7.4598   -0.7441   20.9158 N   0  0  0  0  0  0  0  0  0  0  0  0
    6.7611   -0.0313   19.9046 C   0  0  0  0  0  0  0  0  0  0  0  0
    5.5530    0.6461   20.1278 C   0  0  0  0  0  0  0  0  0  0  0  0
    4.9774    1.3322   19.0547 C   0  0  0  0  0  0  0  0  0  0  0  0
    5.5980    1.2905   17.8036 C   0  0  0  0  0  0  0  0  0  0  0  0
    6.7303    0.6036   17.5780 N   0  0  0  0  0  0  0  0  0  0  0  0
    7.2811   -0.0560   18.5984 C   0  0  0  0  0  0  0  0  0  0  0  0
    8.1809   -0.6263   18.3788 H   0  0  0  0  0  0  0  0  0  0  0  0
    5.1710    1.8130   16.9496 H   0  0  0  0  0  0  0  0  0  0  0  0
    4.0610    1.8966   19.1771 H   0  0  0  0  0  0  0  0  0  0  0  0
    5.0684    0.6325   21.1042 H   0  0  0  0  0  0  0  0  0  0  0  0
    8.8345   -3.4490   21.7590 H   0  0  0  0  0  0  0  0  0  0  0  0
    8.5099   -1.6997   23.8480 H   0  0  0  0  0  0  0  0  0  0  0  0
    6.3167    1.1740   22.7899 H   0  0  0  0  0  0  0  0  0  0  0  0
    7.7340    1.0046   23.8127 H   0  0  0  0  0  0  0  0  0  0  0  0
    9.1325    1.5889   21.8273 H   0  0  0  0  0  0  0  0  0  0  0  0
    7.7358    1.8348   20.9259 H   0  0  0  0  0  0  0  0  0  0  0  0
    8.7918    4.0340   21.5228 H   0  0  0  0  0  0  0  0  0  0  0  0
    7.1883    3.8733   22.2249 H   0  0  0  0  0  0  0  0  0  0  0  0
    7.8375    3.9246   24.6231 N   0  0  0  0  0  0  0  0  0  0  0  0
   11.0002    3.7353   23.6334 H   0  0  0  0  0  0  0  0  0  0  0  0
   11.0243    5.5147   24.0620 H   0  0  0  0  0  0  0  0  0  0  0  0
    9.7592    5.9447   26.5562 H   0  0  0  0  0  0  0  0  0  0  0  0
  1  2  1  0
  2  3  2  0
  3  4  1  0
  4  5  2  0
  5  6  1  0
  6  7  1  0
  7  8  1  0
  8  9  1  0
  9 10  1  0
 10 11  2  0
 11 12  1  0
 12 13  2  0
 13 14  1  0
 14 15  1  0
 15 16  2  0
 16 17  1  0
 17 18  2  0
 18 19  1  0
 19 20  2  0
 20 21  1  0
 18 22  1  0
 17 23  1  0
 16 24  1  0
 12 25  1  0
 11 26  1  0
  9 27  1  0
  9 28  1  0
  8 29  1  0
  8 30  1  0
  7 31  1  0
  7 32  1  0
  6 33  2  0
  5 34  1  0
  4 35  1  0
  3 36  1  0
 33  2  1  0
 14 10  1  0
 20 15  1  0
M  CHG  1   8   1
M  END
>  <cnnaffinity>  (1) 
-4.96583

>  <filename>  (1) 
Fc1cccc(C[NH2+]Cc2ccnn2-c2cccnc2)n1

$$$$
