
     RDKit          3D

 32 34  0  0  0  0  0  0  0  0999 V2000
    6.3151    0.0653   24.7704 F   0  0  0  0  0  0  0  0  0  0  0  0
    6.6209    1.1588   24.0601 C   0  0  0  0  0  0  0  0  0  0  0  0
    7.2110    1.0285   22.7960 C   0  0  0  0  0  0  0  0  0  0  0  0
    7.5454   -0.3027   22.2515 C   0  0  0  0  0  0  0  0  0  0  0  0
    8.1997   -1.3371   22.8781 C   0  0  0  0  0  0  0  0  0  0  0  0
    8.3912   -2.2992   21.8690 C   0  0  0  0  0  0  0  0  0  0  0  0
    7.8974   -1.9046   20.7059 N   0  0  0  0  0  0  0  0  0  0  0  0
    7.3665   -0.6869   20.9375 N   0  0  0  0  0  0  0  0  0  0  0  0
    6.6496   -0.0154   19.9126 C   0  0  0  0  0  0  0  0  0  0  0  0
    5.4309    0.6290   20.1664 C   0  0  0  0  0  0  0  0  0  0  0  0
    4.8113    1.2960   19.1077 C   0  0  0  0  0  0  0  0  0  0  0  0
    5.4097    1.2893   17.8432 C   0  0  0  0  0  0  0  0  0  0  0  0
    6.5763    0.6681   17.5967 N   0  0  0  0  0  0  0  0  0  0  0  0
    7.1749    0.0333   18.6082 C   0  0  0  0  0  0  0  0  0  0  0  0
    8.1223   -0.4430   18.3777 H   0  0  0  0  0  0  0  0  0  0  0  0
    4.9353    1.7832   16.9976 H   0  0  0  0  0  0  0  0  0  0  0  0
    3.8835    1.8347   19.2560 H   0  0  0  0  0  0  0  0  0  0  0  0
    5.0085    0.6381   21.1741 H   0  0  0  0  0  0  0  0  0  0  0  0
    8.8638   -3.2684   21.9474 H   0  0  0  0  0  0  0  0  0  0  0  0
    8.5206   -1.3436   23.9086 H   0  0  0  0  0  0  0  0  0  0  0  0
    7.5399    2.2064   22.0965 C   0  0  0  0  0  0  0  0  0  0  0  0
    7.2552    3.4523   22.6429 C   0  0  0  0  0  0  0  0  0  0  0  0
    6.6476    3.5692   23.9002 C   0  0  0  0  0  0  0  0  0  0  0  0
    6.3307    2.4171   24.6162 C   0  0  0  0  0  0  0  0  0  0  0  0
    5.7393    2.4086   25.8765 O   0  0  0  0  0  0  0  0  0  0  0  0
    5.4037    3.5552   26.5262 C   0  0  0  0  0  0  0  0  0  0  0  0
    6.4563    4.3530   26.7710 F   0  0  0  0  0  0  0  0  0  0  0  0
    4.5169    4.3047   25.8512 F   0  0  0  0  0  0  0  0  0  0  0  0
    4.8656    3.1911   27.6799 F   0  0  0  0  0  0  0  0  0  0  0  0
    6.4263    4.5446   24.3173 H   0  0  0  0  0  0  0  0  0  0  0  0
    7.5004    4.3463   22.0791 H   0  0  0  0  0  0  0  0  0  0  0  0
    8.0039    2.1072   21.1194 H   0  0  0  0  0  0  0  0  0  0  0  0
  1  2  1  0
  2  3  2  0
  3  4  1  0
  4  5  2  0
  5  6  1  0
  6  7  2  0
  7  8  1  0
  8  9  1  0
  9 10  2  0
 10 11  1  0
 11 12  2  0
 12 13  1  0
 13 14  2  0
 14 15  1  0
 12 16  1  0
 11 17  1  0
 10 18  1  0
  6 19  1  0
  5 20  1  0
  3 21  1  0
 21 22  2  0
 22 23  1  0
 23 24  2  0
 24 25  1  0
 25 26  1  0
 26 27  1  0
 26 28  1  0
 26 29  1  0
 23 30  1  0
 22 31  1  0
 21 32  1  0
 24  2  1  0
  8  4  1  0
 14  9  1  0
M  END
>  <cnnaffinity>  (1) 
-5.40397

>  <filename>  (1) 
Fc1c(OC(F)(F)F)cccc1-c1ccnn1-c1cccnc1

$$$$
