
     RDKit          3D

 35 37  0  0  0  0  0  0  0  0999 V2000
    7.3973    1.0015   22.3636 H   0  0  0  0  0  0  0  0  0  0  0  0
    7.6177   -0.0367   22.1860 C   0  0  0  0  0  0  0  0  0  0  0  0
    7.3192   -0.6269   21.0095 C   0  0  0  0  0  0  0  0  0  0  0  0
    6.6514    0.0499   19.8998 C   0  0  0  0  0  0  0  0  0  0  0  0
    7.1843    0.0212   18.5993 C   0  0  0  0  0  0  0  0  0  0  0  0
    8.1277   -0.4896   18.4103 H   0  0  0  0  0  0  0  0  0  0  0  0
    6.6096    0.6204   17.5492 N   0  0  0  0  0  0  0  0  0  0  0  0
    5.4528    1.2690   17.7590 C   0  0  0  0  0  0  0  0  0  0  0  0
    5.0053    1.7431   16.8872 H   0  0  0  0  0  0  0  0  0  0  0  0
    4.8291    1.3405   19.0097 C   0  0  0  0  0  0  0  0  0  0  0  0
    3.8909    1.8691   19.1106 H   0  0  0  0  0  0  0  0  0  0  0  0
    5.4480    0.7407   20.1042 C   0  0  0  0  0  0  0  0  0  0  0  0
    5.0027    0.7790   21.0982 H   0  0  0  0  0  0  0  0  0  0  0  0
    7.6581   -1.9662   20.8140 N   0  0  0  0  0  0  0  0  0  0  0  0
    7.2319   -2.5012   20.0720 H   0  0  0  0  0  0  0  0  0  0  0  0
    8.0533   -2.7755   21.8342 C   0  0  0  0  0  0  0  0  0  0  0  0
    7.9825   -4.4294   21.6961 S   0  0  0  0  0  0  0  0  0  0  0  0
    8.5076   -2.1611   22.9450 N   0  0  0  0  0  0  0  0  0  0  0  0
    8.5328   -2.8048   23.7195 H   0  0  0  0  0  0  0  0  0  0  0  0
    8.4151   -0.7206   23.2300 C   0  0  1  0  0  0  0  0  0  0  0  0
    7.9105   -0.6148   24.2068 H   0  0  0  0  0  0  0  0  0  0  0  0
    9.8391   -0.0821   23.3755 C   0  0  0  0  0  0  0  0  0  0  0  0
   10.3757   -0.2218   22.4300 H   0  0  0  0  0  0  0  0  0  0  0  0
   10.3973   -0.6469   24.1266 H   0  0  0  0  0  0  0  0  0  0  0  0
    9.7561    1.3861   23.7378 C   0  0  0  0  0  0  0  0  0  0  0  0
    9.5548    1.7761   25.0706 C   0  0  0  0  0  0  0  0  0  0  0  0
    9.5396    1.0132   25.8497 H   0  0  0  0  0  0  0  0  0  0  0  0
    9.3560    3.1167   25.4136 C   0  0  0  0  0  0  0  0  0  0  0  0
    9.1798    3.4306   26.4352 H   0  0  0  0  0  0  0  0  0  0  0  0
    9.3883    4.0762   24.4051 C   0  0  0  0  0  0  0  0  0  0  0  0
    9.2256    5.3714   24.7289 F   0  0  0  0  0  0  0  0  0  0  0  0
    9.5873    3.7328   23.0729 C   0  0  0  0  0  0  0  0  0  0  0  0
    9.5855    4.5176   22.3257 H   0  0  0  0  0  0  0  0  0  0  0  0
    9.7591    2.3823   22.7442 C   0  0  0  0  0  0  0  0  0  0  0  0
    9.8612    2.0896   21.6993 H   0  0  0  0  0  0  0  0  0  0  0  0
  1  2  1  0
  2  3  2  0
  3  4  1  0
  4  5  2  0
  5  6  1  0
  5  7  1  0
  7  8  2  0
  8  9  1  0
  8 10  1  0
 10 11  1  0
 10 12  2  0
 12 13  1  0
  3 14  1  0
 14 15  1  0
 14 16  1  0
 16 17  2  0
 16 18  1  0
 18 19  1  0
 18 20  1  0
 20 21  1  1
 20 22  1  0
 22 23  1  0
 22 24  1  0
 22 25  1  0
 25 26  2  0
 26 27  1  0
 26 28  1  0
 28 29  1  0
 28 30  2  0
 30 31  1  0
 30 32  1  0
 32 33  1  0
 32 34  2  0
 34 35  1  0
 20  2  1  0
 34 25  1  0
 12  4  1  0
M  END
>  <cnnaffinity>  (1) 
-5.29237

>  <filename>  (1) 
Fc1ccc(C[C@H]2C=C(c3cccnc3)NC(=S)N2)cc1

$$$$
