
     RDKit          3D

 34 36  0  0  0  0  0  0  0  0999 V2000
    9.3132   -1.3679   27.8622 F   0  0  0  0  0  0  0  0  0  0  0  0
    9.2272   -1.7227   26.5618 C   0  0  0  0  0  0  0  0  0  0  0  0
    9.2459   -0.7354   25.5678 C   0  0  0  0  0  0  0  0  0  0  0  0
    9.1991   -1.0133   24.2623 N   0  0  0  0  0  0  0  0  0  0  0  0
    9.0854   -2.2949   23.8877 C   0  0  0  0  0  0  0  0  0  0  0  0
    8.8691   -2.4843   22.5257 N   0  0  0  0  0  0  0  0  0  0  0  0
    9.5705   -1.5431   21.6030 C   0  0  0  0  0  0  0  0  0  0  0  0
    8.7168   -0.3027   21.2626 C   0  0  0  0  0  0  0  0  0  0  0  0
    7.3502   -0.7050   20.8630 N   0  0  0  0  0  0  0  0  0  0  0  0
    6.6717   -0.0158   19.8359 C   0  0  0  0  0  0  0  0  0  0  0  0
    5.4396    0.5896   20.0896 C   0  0  0  0  0  0  0  0  0  0  0  0
    4.8114    1.2773   19.0436 C   0  0  0  0  0  0  0  0  0  0  0  0
    5.4128    1.3346   17.7776 C   0  0  0  0  0  0  0  0  0  0  0  0
    6.5936    0.7484   17.5100 N   0  0  0  0  0  0  0  0  0  0  0  0
    7.2035    0.0985   18.5288 C   0  0  0  0  0  0  0  0  0  0  0  0
    8.1579   -0.3763   18.3223 H   0  0  0  0  0  0  0  0  0  0  0  0
    4.9137    1.8790   16.9828 H   0  0  0  0  0  0  0  0  0  0  0  0
    3.8687    1.7853   19.2013 H   0  0  0  0  0  0  0  0  0  0  0  0
    5.0041    0.5422   21.0867 H   0  0  0  0  0  0  0  0  0  0  0  0
    6.6376   -1.5547   21.8450 C   0  0  0  0  0  0  0  0  0  0  0  0
    7.4698   -2.8219   22.1474 C   0  0  0  0  0  0  0  0  0  0  0  0
    6.9793   -3.3825   22.9521 H   0  0  0  0  0  0  0  0  0  0  0  0
    7.4738   -3.4645   21.2612 H   0  0  0  0  0  0  0  0  0  0  0  0
    6.4930   -0.9980   22.7753 H   0  0  0  0  0  0  0  0  0  0  0  0
    5.6520   -1.8420   21.4642 H   0  0  0  0  0  0  0  0  0  0  0  0
    8.6561    0.3451   22.1445 H   0  0  0  0  0  0  0  0  0  0  0  0
    9.1997    0.2702   20.4623 H   0  0  0  0  0  0  0  0  0  0  0  0
    9.8256   -2.0583   20.6716 H   0  0  0  0  0  0  0  0  0  0  0  0
   10.5060   -1.1976   22.0644 H   0  0  0  0  0  0  0  0  0  0  0  0
    9.0643   -3.3541   24.8176 C   0  0  0  0  0  0  0  0  0  0  0  0
    8.8352   -5.1648   24.2627 Br  0  0  0  0  0  0  0  0  0  0  0  0
    9.1641   -3.0652   26.1803 C   0  0  0  0  0  0  0  0  0  0  0  0
    9.1658   -3.8525   26.9348 H   0  0  0  0  0  0  0  0  0  0  0  0
    9.2746    0.3088   25.8685 H   0  0  0  0  0  0  0  0  0  0  0  0
  1  2  1  0
  2  3  2  0
  3  4  1  0
  4  5  2  0
  5  6  1  0
  6  7  1  0
  7  8  1  0
  8  9  1  0
  9 10  1  0
 10 11  2  0
 11 12  1  0
 12 13  2  0
 13 14  1  0
 14 15  2  0
 15 16  1  0
 13 17  1  0
 12 18  1  0
 11 19  1  0
  9 20  1  0
 20 21  1  0
 21 22  1  0
 21 23  1  0
 20 24  1  0
 20 25  1  0
  8 26  1  0
  8 27  1  0
  7 28  1  0
  7 29  1  0
  5 30  1  0
 30 31  1  0
 30 32  2  0
 32 33  1  0
  3 34  1  0
 32  2  1  0
 21  6  1  0
 15 10  1  0
M  END
>  <cnnaffinity>  (1) 
-5.5243

>  <filename>  (1) 
Fc1cnc(N2CCN(c3cccnc3)CC2)c(Br)c1

$$$$
