
     RDKit          3D

 42 46  0  0  0  0  0  0  0  0999 V2000
   10.3863   -4.1308   24.6601 F   0  0  0  0  0  0  0  0  0  0  0  0
    9.4683   -4.5426   23.7559 C   0  0  0  0  0  0  0  0  0  0  0  0
    8.9920   -5.8509   23.8568 C   0  0  0  0  0  0  0  0  0  0  0  0
    8.0931   -6.3094   22.8869 C   0  0  0  0  0  0  0  0  0  0  0  0
    7.6541   -5.4677   21.8614 C   0  0  0  0  0  0  0  0  0  0  0  0
    8.1342   -4.1597   21.8027 C   0  0  0  0  0  0  0  0  0  0  0  0
    9.0674   -3.6753   22.7348 C   0  0  0  0  0  0  0  0  0  0  0  0
    9.6603   -2.2767   22.5779 C   0  0  0  0  0  0  0  0  0  0  0  0
    8.6430   -1.2594   22.2967 N   0  0  0  0  0  0  0  0  0  0  0  0
    8.4241   -0.8405   21.0314 N   0  0  0  0  0  0  0  0  0  0  0  0
    7.2495   -0.2361   21.1072 C   0  0  0  0  0  0  0  0  0  0  0  0
    6.5929    0.3256   19.9275 C   0  0  0  0  0  0  0  0  0  0  0  0
    5.3429    0.9659   19.9712 C   0  0  0  0  0  0  0  0  0  0  0  0
    4.8064    1.4328   18.7714 C   0  0  0  0  0  0  0  0  0  0  0  0
    5.5339    1.2500   17.5896 C   0  0  0  0  0  0  0  0  0  0  0  0
    6.7227    0.6325   17.5384 N   0  0  0  0  0  0  0  0  0  0  0  0
    7.2360    0.1866   18.6884 C   0  0  0  0  0  0  0  0  0  0  0  0
    8.2046   -0.3073   18.6274 H   0  0  0  0  0  0  0  0  0  0  0  0
    5.1497    1.6168   16.6401 H   0  0  0  0  0  0  0  0  0  0  0  0
    3.8509    1.9469   18.7325 H   0  0  0  0  0  0  0  0  0  0  0  0
    4.8145    1.0936   20.9182 H   0  0  0  0  0  0  0  0  0  0  0  0
    6.6849   -0.2660   22.3386 N   0  0  0  0  0  0  0  0  0  0  0  0
    7.5757   -0.9224   23.0647 C   0  0  0  0  0  0  0  0  0  0  0  0
    7.5018   -1.4509   24.4595 C   0  0  0  0  0  0  0  0  0  0  0  0
    8.4938   -1.1982   25.4202 C   0  0  0  0  0  0  0  0  0  0  0  0
    8.4616   -1.8421   26.6802 C   0  0  0  0  0  0  0  0  0  0  0  0
    7.5441   -2.7305   27.0672 N   0  0  0  0  0  0  0  0  0  0  0  0
    6.6097   -2.9654   26.1366 C   0  0  0  0  0  0  0  0  0  0  0  0
    6.5187   -2.3985   24.8428 C   0  0  0  0  0  0  0  0  0  0  0  0
    5.3940   -3.0649   24.2661 C   0  0  0  0  0  0  0  0  0  0  0  0
    4.8451   -3.9258   25.1058 N   0  0  0  0  0  0  0  0  0  0  0  0
    5.5805   -3.8367   26.2416 N   0  0  0  0  0  0  0  0  0  0  0  0
    5.4597   -4.4419   27.0352 H   0  0  0  0  0  0  0  0  0  0  0  0
    4.9892   -2.9517   23.2664 H   0  0  0  0  0  0  0  0  0  0  0  0
    9.2346   -1.6236   27.4088 H   0  0  0  0  0  0  0  0  0  0  0  0
    9.3118   -0.5157   25.2149 H   0  0  0  0  0  0  0  0  0  0  0  0
   10.1940   -1.9947   23.4902 H   0  0  0  0  0  0  0  0  0  0  0  0
   10.3628   -2.2472   21.7398 H   0  0  0  0  0  0  0  0  0  0  0  0
    7.7743   -3.4920   21.0245 H   0  0  0  0  0  0  0  0  0  0  0  0
    6.9568   -5.8254   21.1044 H   0  0  0  0  0  0  0  0  0  0  0  0
    7.7404   -7.3336   22.9093 H   0  0  0  0  0  0  0  0  0  0  0  0
    9.3784   -6.4961   24.6428 H   0  0  0  0  0  0  0  0  0  0  0  0
  1  2  1  0
  2  3  2  0
  3  4  1  0
  4  5  2  0
  5  6  1  0
  6  7  2  0
  7  8  1  0
  8  9  1  0
  9 10  1  0
 10 11  2  0
 11 12  1  0
 12 13  2  0
 13 14  1  0
 14 15  2  0
 15 16  1  0
 16 17  2  0
 17 18  1  0
 15 19  1  0
 14 20  1  0
 13 21  1  0
 11 22  1  0
 22 23  2  0
 23 24  1  0
 24 25  2  0
 25 26  1  0
 26 27  2  0
 27 28  1  0
 28 29  2  0
 29 30  1  0
 30 31  2  0
 31 32  1  0
 32 33  1  0
 30 34  1  0
 26 35  1  0
 25 36  1  0
  8 37  1  0
  8 38  1  0
  6 39  1  0
  5 40  1  0
  4 41  1  0
  3 42  1  0
  7  2  1  0
 23  9  1  0
 29 24  1  0
 17 12  1  0
 32 28  1  0
M  END
>  <cnnaffinity>  (1) 
-6.43368

>  <filename>  (1) 
Fc1ccccc1Cn1nc(-c2cccnc2)nc1-c1ccnc2[nH]ncc12

$$$$
