
     RDKit          3D

 36 39  0  0  0  0  0  0  0  0999 V2000
    8.7129   -5.5149   22.7727 F   0  0  0  0  0  0  0  0  0  0  0  0
    8.9796   -4.7151   23.8402 C   0  0  0  0  0  0  0  0  0  0  0  0
    9.2856   -5.2986   25.0660 C   0  0  0  0  0  0  0  0  0  0  0  0
    9.4593   -4.4540   26.1628 C   0  0  0  0  0  0  0  0  0  0  0  0
    9.9250   -5.1070   27.8914 Br  0  0  0  0  0  0  0  0  0  0  0  0
    9.3409   -3.0730   25.9926 C   0  0  0  0  0  0  0  0  0  0  0  0
    9.1633   -2.4923   24.8016 N   0  0  0  0  0  0  0  0  0  0  0  0
    8.9947   -3.3015   23.7497 C   0  0  0  0  0  0  0  0  0  0  0  0
    8.8369   -2.6829   22.5197 N   0  0  0  0  0  0  0  0  0  0  0  0
    7.8609   -3.2301   21.5856 C   0  0  0  0  0  0  0  0  0  0  0  0
    6.7966   -2.1826   21.3020 C   0  0  0  0  0  0  0  0  0  0  0  0
    7.3436   -0.7726   21.0255 C   0  0  0  0  0  0  0  0  0  0  0  0
    6.6985   -0.0410   19.8861 C   0  0  0  0  0  0  0  0  0  0  0  0
    5.4861    0.6157   20.0959 C   0  0  0  0  0  0  0  0  0  0  0  0
    4.9096    1.2818   19.0193 C   0  0  0  0  0  0  0  0  0  0  0  0
    5.5454    1.2701   17.7741 C   0  0  0  0  0  0  0  0  0  0  0  0
    6.7070    0.6209   17.5608 N   0  0  0  0  0  0  0  0  0  0  0  0
    7.2703   -0.0171   18.6049 C   0  0  0  0  0  0  0  0  0  0  0  0
    8.2092   -0.5382   18.4432 H   0  0  0  0  0  0  0  0  0  0  0  0
    5.0809    1.8047   16.9532 H   0  0  0  0  0  0  0  0  0  0  0  0
    3.9775    1.8220   19.1385 H   0  0  0  0  0  0  0  0  0  0  0  0
    5.0176    0.6076   21.0791 H   0  0  0  0  0  0  0  0  0  0  0  0
    7.6102    0.0884   22.2660 C   0  0  0  0  0  0  0  0  0  0  0  0
    8.7801   -0.4354   21.4475 C   0  0  0  0  0  0  0  0  0  0  0  0
    9.6482   -1.5157   22.1118 C   0  0  0  0  0  0  0  0  0  0  0  0
   10.1515   -1.0780   22.9814 H   0  0  0  0  0  0  0  0  0  0  0  0
   10.4266   -1.8248   21.3995 H   0  0  0  0  0  0  0  0  0  0  0  0
    9.3072    0.2964   20.8279 H   0  0  0  0  0  0  0  0  0  0  0  0
    7.3813    1.1590   22.2052 H   0  0  0  0  0  0  0  0  0  0  0  0
    7.4516   -0.3639   23.2495 H   0  0  0  0  0  0  0  0  0  0  0  0
    6.1861   -2.5178   20.4575 H   0  0  0  0  0  0  0  0  0  0  0  0
    6.1532   -2.1297   22.1828 H   0  0  0  0  0  0  0  0  0  0  0  0
    7.3505   -4.1042   21.9984 H   0  0  0  0  0  0  0  0  0  0  0  0
    8.3788   -3.5670   20.6941 H   0  0  0  0  0  0  0  0  0  0  0  0
    9.4773   -2.4439   26.8658 H   0  0  0  0  0  0  0  0  0  0  0  0
    9.3894   -6.3802   25.1456 H   0  0  0  0  0  0  0  0  0  0  0  0
  1  2  1  0
  2  3  2  0
  3  4  1  0
  4  5  1  0
  4  6  2  0
  6  7  1  0
  7  8  2  0
  8  9  1  0
  9 10  1  0
 10 11  1  0
 11 12  1  0
 12 13  1  0
 13 14  2  0
 14 15  1  0
 15 16  2  0
 16 17  1  0
 17 18  2  0
 18 19  1  0
 16 20  1  0
 15 21  1  0
 14 22  1  0
 12 23  1  0
 23 24  1  0
 24 25  1  0
 25 26  1  0
 25 27  1  0
 24 28  1  0
 23 29  1  0
 23 30  1  0
 11 31  1  0
 11 32  1  0
 10 33  1  0
 10 34  1  0
  6 35  1  0
  3 36  1  0
  8  2  1  0
 25  9  1  0
 24 12  1  0
 18 13  1  0
M  END
>  <cnnaffinity>  (1) 
-5.66788

>  <filename>  (1) 
Fc1cc(Br)cnc1N1CCC2(c3cccnc3)CC2C1

$$$$
