
     RDKit          3D

 27 28  0  0  0  0  0  0  0  0999 V2000
    4.9652    1.7817   16.8836 H   0  0  0  0  0  0  0  0  0  0  0  0
    5.4104    1.3348   17.7642 C   0  0  0  0  0  0  0  0  0  0  0  0
    6.5921    0.6978   17.6445 N   0  0  0  0  0  0  0  0  0  0  0  0
    7.1247    0.1665   18.7572 C   0  0  0  0  0  0  0  0  0  0  0  0
    8.0731   -0.3576   18.6745 H   0  0  0  0  0  0  0  0  0  0  0  0
    6.5170    0.2407   20.0260 C   0  0  0  0  0  0  0  0  0  0  0  0
    7.1809   -0.3753   21.2343 C   0  0  2  0  0  0  0  0  0  0  0  0
    6.6292   -0.1337   22.1514 H   0  0  0  0  0  0  0  0  0  0  0  0
    9.0229    0.3640   21.3681 Br  0  0  0  0  0  0  0  0  0  0  0  0
    7.2001   -1.8931   21.0348 C   0  0  0  0  0  0  0  0  0  0  0  0
    7.8487   -2.0989   20.1861 H   0  0  0  0  0  0  0  0  0  0  0  0
    6.1861   -2.2331   20.7921 H   0  0  0  0  0  0  0  0  0  0  0  0
    7.7084   -2.6648   22.2331 C   0  0  0  0  0  0  0  0  0  0  0  0
    9.0851   -2.8048   22.4584 C   0  0  0  0  0  0  0  0  0  0  0  0
    9.9649   -2.2231   21.6088 F   0  0  0  0  0  0  0  0  0  0  0  0
    9.5525   -3.5550   23.5433 C   0  0  0  0  0  0  0  0  0  0  0  0
   10.6262   -3.6543   23.7041 H   0  0  0  0  0  0  0  0  0  0  0  0
    8.6507   -4.1652   24.4167 C   0  0  0  0  0  0  0  0  0  0  0  0
    9.0203   -4.7437   25.2620 H   0  0  0  0  0  0  0  0  0  0  0  0
    7.2744   -4.0414   24.1819 C   0  0  0  0  0  0  0  0  0  0  0  0
    6.5617   -4.5282   24.8428 H   0  0  0  0  0  0  0  0  0  0  0  0
    6.8031   -3.3015   23.0945 C   0  0  0  0  0  0  0  0  0  0  0  0
    5.4705   -3.2271   22.8555 F   0  0  0  0  0  0  0  0  0  0  0  0
    5.2804    0.8712   20.1353 C   0  0  0  0  0  0  0  0  0  0  0  0
    4.7665    0.9337   21.0951 H   0  0  0  0  0  0  0  0  0  0  0  0
    4.7276    1.4219   18.9821 C   0  0  0  0  0  0  0  0  0  0  0  0
    3.7727    1.9332   19.0180 H   0  0  0  0  0  0  0  0  0  0  0  0
  1  2  1  0
  2  3  2  0
  3  4  1  0
  4  5  1  0
  4  6  2  0
  6  7  1  0
  7  8  1  1
  7  9  1  0
  7 10  1  0
 10 11  1  0
 10 12  1  0
 10 13  1  0
 13 14  2  0
 14 15  1  0
 14 16  1  0
 16 17  1  0
 16 18  2  0
 18 19  1  0
 18 20  1  0
 20 21  1  0
 20 22  2  0
 22 23  1  0
  6 24  1  0
 24 25  1  0
 24 26  2  0
 26 27  1  0
 26  2  1  0
 22 13  1  0
M  END
>  <cnnaffinity>  (1) 
-4.83742

>  <filename>  (1) 
Fc1cccc(F)c1C[C@@H](Br)c1cccnc1

$$$$
