
     RDKit          3D

 43 47  0  0  0  0  0  0  0  0999 V2000
   12.6894    5.3801   22.5420 F   0  0  0  0  0  0  0  0  0  0  0  0
   12.5084    4.0524   22.5722 C   0  0  0  0  0  0  0  0  0  0  0  0
   13.5989    3.2276   22.8082 C   0  0  0  0  0  0  0  0  0  0  0  0
   13.3965    1.8469   22.8768 C   0  0  0  0  0  0  0  0  0  0  0  0
   12.1192    1.3091   22.7107 C   0  0  0  0  0  0  0  0  0  0  0  0
   11.0383    2.1677   22.4645 C   0  0  0  0  0  0  0  0  0  0  0  0
    9.7258    1.6232   22.3248 N   0  0  0  0  0  0  0  0  0  0  0  0
    9.4793    0.5366   21.5418 N   0  0  0  0  0  0  0  0  0  0  0  0
    8.1781    0.3777   21.6513 C   0  0  0  0  0  0  0  0  0  0  0  0
    7.4206   -0.6808   20.8898 C   0  0  0  0  0  0  0  0  0  0  0  0
    6.6129   -0.0994   19.7305 C   0  0  0  0  0  0  0  0  0  0  0  0
    5.3996    0.5584   19.9822 C   0  0  0  0  0  0  0  0  0  0  0  0
    4.7863    1.2753   18.9539 C   0  0  0  0  0  0  0  0  0  0  0  0
    5.3890    1.2859   17.6943 C   0  0  0  0  0  0  0  0  0  0  0  0
    6.5150    0.6127   17.4136 N   0  0  0  0  0  0  0  0  0  0  0  0
    7.0985   -0.0621   18.4118 C   0  0  0  0  0  0  0  0  0  0  0  0
    8.0186   -0.5883   18.1525 H   0  0  0  0  0  0  0  0  0  0  0  0
    4.9554    1.8615   16.8772 H   0  0  0  0  0  0  0  0  0  0  0  0
    3.8777    1.8426   19.1170 H   0  0  0  0  0  0  0  0  0  0  0  0
    4.9695    0.5300   20.9853 H   0  0  0  0  0  0  0  0  0  0  0  0
    6.7485   -1.1641   21.6061 H   0  0  0  0  0  0  0  0  0  0  0  0
    8.1369   -1.4418   20.5602 H   0  0  0  0  0  0  0  0  0  0  0  0
    7.5662    1.2651   22.4707 N   0  0  0  0  0  0  0  0  0  0  0  0
    8.5491    2.0381   22.8917 C   0  0  0  0  0  0  0  0  0  0  0  0
    8.4137    3.0987   23.8816 C   0  0  0  0  0  0  0  0  0  0  0  0
    9.3845    3.2721   24.8704 C   0  0  0  0  0  0  0  0  0  0  0  0
    9.3223    4.2052   25.8344 N   0  0  0  0  0  0  0  0  0  0  0  0
    8.2703    5.0193   25.8888 C   0  0  0  0  0  0  0  0  0  0  0  0
    7.2140    4.9064   24.9640 C   0  0  0  0  0  0  0  0  0  0  0  0
    7.2695    3.9303   23.9432 C   0  0  0  0  0  0  0  0  0  0  0  0
    6.0595    4.0710   23.1865 C   0  0  0  0  0  0  0  0  0  0  0  0
    5.3378    5.0821   23.7531 C   0  0  0  0  0  0  0  0  0  0  0  0
    6.0287    5.5897   24.8306 N   0  0  0  0  0  0  0  0  0  0  0  0
    5.7196    6.3577   25.4101 H   0  0  0  0  0  0  0  0  0  0  0  0
    4.3815    5.5063   23.4744 H   0  0  0  0  0  0  0  0  0  0  0  0
    5.7980    3.4534   22.3363 H   0  0  0  0  0  0  0  0  0  0  0  0
    8.2588    5.7720   26.6742 H   0  0  0  0  0  0  0  0  0  0  0  0
   10.2678    2.6332   24.8940 H   0  0  0  0  0  0  0  0  0  0  0  0
   11.2272    3.5530   22.3960 C   0  0  0  0  0  0  0  0  0  0  0  0
   10.4039    4.2323   22.2263 H   0  0  0  0  0  0  0  0  0  0  0  0
   11.9234    0.2447   22.7782 H   0  0  0  0  0  0  0  0  0  0  0  0
   14.2492    1.1890   23.0205 H   0  0  0  0  0  0  0  0  0  0  0  0
   14.5671    3.6908   22.9311 H   0  0  0  0  0  0  0  0  0  0  0  0
  1  2  1  0
  2  3  2  0
  3  4  1  0
  4  5  2  0
  5  6  1  0
  6  7  1  0
  7  8  1  0
  8  9  2  0
  9 10  1  0
 10 11  1  0
 11 12  2  0
 12 13  1  0
 13 14  2  0
 14 15  1  0
 15 16  2  0
 16 17  1  0
 14 18  1  0
 13 19  1  0
 12 20  1  0
 10 21  1  0
 10 22  1  0
  9 23  1  0
 23 24  2  0
 24 25  1  0
 25 26  2  0
 26 27  1  0
 27 28  2  0
 28 29  1  0
 29 30  2  0
 30 31  1  0
 31 32  2  0
 32 33  1  0
 33 34  1  0
 32 35  1  0
 31 36  1  0
 28 37  1  0
 26 38  1  0
  6 39  2  0
 39 40  1  0
  5 41  1  0
  4 42  1  0
  3 43  1  0
 39  2  1  0
 24  7  1  0
 30 25  1  0
 16 11  1  0
 33 29  1  0
M  END
>  <cnnaffinity>  (1) 
-6.09084

>  <filename>  (1) 
Fc1cccc(-n2nc(Cc3cccnc3)nc2-c2cncc3[nH]ccc23)c1

$$$$
