
     RDKit          3D

 36 39  0  0  0  0  0  0  0  0999 V2000
    4.9132    1.8842   16.9294 H   0  0  0  0  0  0  0  0  0  0  0  0
    5.3734    1.3217   17.7466 C   0  0  0  0  0  0  0  0  0  0  0  0
    6.5186    0.6798   17.4630 N   0  0  0  0  0  0  0  0  0  0  0  0
    7.1241    0.0278   18.4637 C   0  0  0  0  0  0  0  0  0  0  0  0
    8.0672   -0.4442   18.1834 H   0  0  0  0  0  0  0  0  0  0  0  0
    6.6433   -0.0375   19.7898 C   0  0  0  0  0  0  0  0  0  0  0  0
    7.4113   -0.6416   20.9080 C   0  0  0  0  0  0  0  0  0  0  0  0
    7.5804   -0.1851   22.2009 C   0  0  0  0  0  0  0  0  0  0  0  0
    8.4875   -1.0571   22.8008 C   0  0  0  0  0  0  0  0  0  0  0  0
    8.8768   -2.0256   21.9969 N   0  0  0  0  0  0  0  0  0  0  0  0
    8.2167   -1.7481   20.8442 N   0  0  0  0  0  0  0  0  0  0  0  0
    8.3510   -2.3636   20.0547 H   0  0  0  0  0  0  0  0  0  0  0  0
    8.8157   -0.6928   24.2181 C   0  0  0  0  0  0  0  0  0  0  0  0
    9.8849   -0.6029   24.4212 H   0  0  0  0  0  0  0  0  0  0  0  0
    8.4296   -1.4333   24.9235 H   0  0  0  0  0  0  0  0  0  0  0  0
    8.1136    0.6861   24.3607 C   0  0  2  0  0  0  0  0  0  0  0  0
    8.8810    1.4542   24.2821 H   0  0  0  0  0  0  0  0  0  0  0  0
    7.5463    0.9257   25.6427 O   0  0  0  0  0  0  0  0  0  0  0  0
    6.5172    0.1752   26.1346 C   0  0  0  0  0  0  0  0  0  0  0  0
    6.0842    0.5852   27.4040 C   0  0  0  0  0  0  0  0  0  0  0  0
    6.5942    1.4390   27.8386 H   0  0  0  0  0  0  0  0  0  0  0  0
    5.0528   -0.0776   28.0606 C   0  0  0  0  0  0  0  0  0  0  0  0
    4.7178    0.2323   29.0434 H   0  0  0  0  0  0  0  0  0  0  0  0
    4.4461   -1.1654   27.4344 C   0  0  0  0  0  0  0  0  0  0  0  0
    3.4513   -1.8119   28.0664 F   0  0  0  0  0  0  0  0  0  0  0  0
    4.8493   -1.5872   26.1742 C   0  0  0  0  0  0  0  0  0  0  0  0
    4.3461   -2.4347   25.7246 H   0  0  0  0  0  0  0  0  0  0  0  0
    5.8887   -0.9140   25.5102 C   0  0  0  0  0  0  0  0  0  0  0  0
    6.1886   -1.2417   24.5176 H   0  0  0  0  0  0  0  0  0  0  0  0
    7.1361    0.8780   23.1622 C   0  0  0  0  0  0  0  0  0  0  0  0
    7.1943    1.8955   22.7666 H   0  0  0  0  0  0  0  0  0  0  0  0
    6.0997    0.7382   23.4889 H   0  0  0  0  0  0  0  0  0  0  0  0
    5.4241    0.6173   20.0482 C   0  0  0  0  0  0  0  0  0  0  0  0
    4.9837    0.5900   21.0480 H   0  0  0  0  0  0  0  0  0  0  0  0
    4.7864    1.3050   19.0136 C   0  0  0  0  0  0  0  0  0  0  0  0
    3.8667    1.8501   19.1853 H   0  0  0  0  0  0  0  0  0  0  0  0
  1  2  1  0
  2  3  2  0
  3  4  1  0
  4  5  1  0
  4  6  2  0
  6  7  1  0
  7  8  2  0
  8  9  1  0
  9 10  2  0
 10 11  1  0
 11 12  1  0
  9 13  1  0
 13 14  1  0
 13 15  1  0
 13 16  1  0
 16 17  1  6
 16 18  1  0
 18 19  1  0
 19 20  2  0
 20 21  1  0
 20 22  1  0
 22 23  1  0
 22 24  2  0
 24 25  1  0
 24 26  1  0
 26 27  1  0
 26 28  2  0
 28 29  1  0
 16 30  1  0
 30 31  1  0
 30 32  1  0
  6 33  1  0
 33 34  1  0
 33 35  2  0
 35 36  1  0
 35  2  1  0
 11  7  1  0
 28 19  1  0
 30  8  1  0
M  END
>  <cnnaffinity>  (1) 
-5.39444

>  <filename>  (1) 
Fc1ccc(O[C@H]2Cc3n[nH]c(-c4cccnc4)c3C2)cc1

$$$$
