
     RDKit          3D

 46 49  0  0  0  0  0  0  0  0999 V2000
   10.4820    4.2158   22.4608 F   0  0  0  0  0  0  0  0  0  0  0  0
   11.4955    3.3405   22.5332 C   0  0  0  0  0  0  0  0  0  0  0  0
   12.7975    3.8350   22.7440 C   0  0  0  0  0  0  0  0  0  0  0  0
   13.0545    5.5464   22.8258 Cl  0  0  0  0  0  0  0  0  0  0  0  0
   13.8529    3.0609   22.9106 N   0  0  0  0  0  0  0  0  0  0  0  0
   13.6610    1.7346   22.8672 C   0  0  0  0  0  0  0  0  0  0  0  0
   12.4168    1.1480   22.6323 C   0  0  0  0  0  0  0  0  0  0  0  0
   11.2717    1.9597   22.4446 C   0  0  0  0  0  0  0  0  0  0  0  0
    9.9193    1.3662   22.1972 C   0  0  0  0  0  0  0  0  0  0  0  0
    9.6275    0.4402   21.2940 N   0  0  0  0  0  0  0  0  0  0  0  0
    8.3203    0.1681   21.5387 C   0  0  0  0  0  0  0  0  0  0  0  0
    7.4811   -0.7985   20.7472 C   0  0  0  0  0  0  0  0  0  0  0  0
    6.6620   -0.1295   19.6405 C   0  0  0  0  0  0  0  0  0  0  0  0
    5.4699    0.5450   19.9519 C   0  0  0  0  0  0  0  0  0  0  0  0
    4.8289    1.2864   18.9569 C   0  0  0  0  0  0  0  0  0  0  0  0
    5.3916    1.3206   17.6791 C   0  0  0  0  0  0  0  0  0  0  0  0
    6.5027    0.6453   17.3440 N   0  0  0  0  0  0  0  0  0  0  0  0
    7.1052   -0.0609   18.3081 C   0  0  0  0  0  0  0  0  0  0  0  0
    7.9967   -0.6112   18.0020 H   0  0  0  0  0  0  0  0  0  0  0  0
    4.9288    1.9079   16.8882 H   0  0  0  0  0  0  0  0  0  0  0  0
    3.9185    1.8417   19.1588 H   0  0  0  0  0  0  0  0  0  0  0  0
    5.0545    0.4877   20.9601 H   0  0  0  0  0  0  0  0  0  0  0  0
    6.7999   -1.2908   21.4543 H   0  0  0  0  0  0  0  0  0  0  0  0
    8.1738   -1.5512   20.3555 H   0  0  0  0  0  0  0  0  0  0  0  0
    7.8061    0.8432   22.5461 N   0  0  0  0  0  0  0  0  0  0  0  0
    8.8245    1.6358   22.9475 N   0  0  0  0  0  0  0  0  0  0  0  0
    8.5759    2.5783   24.0271 C   0  0  0  0  0  0  0  0  0  0  0  0
    9.1843    2.1548   25.3723 C   0  0  0  0  0  0  0  0  0  0  0  0
    8.5467    0.8699   25.9466 C   0  0  0  0  0  0  0  0  0  0  0  0
    7.1782    1.1046   26.6042 C   0  0  0  0  0  0  0  0  0  0  0  0
    7.2237    2.3445   27.5048 C   0  0  0  0  0  0  0  0  0  0  0  0
    7.8047    3.5406   26.7581 C   0  0  0  0  0  0  0  0  0  0  0  0
    9.1047    3.2665   26.2584 O   0  0  0  0  0  0  0  0  0  0  0  0
    7.1144    3.8576   25.9571 H   0  0  0  0  0  0  0  0  0  0  0  0
    7.9219    4.4005   27.4183 H   0  0  0  0  0  0  0  0  0  0  0  0
    7.8628    2.1521   28.3762 H   0  0  0  0  0  0  0  0  0  0  0  0
    6.2228    2.5959   27.8730 H   0  0  0  0  0  0  0  0  0  0  0  0
    6.9112    0.2197   27.1982 H   0  0  0  0  0  0  0  0  0  0  0  0
    6.4020    1.2226   25.8289 H   0  0  0  0  0  0  0  0  0  0  0  0
    9.2375    0.4623   26.6957 H   0  0  0  0  0  0  0  0  0  0  0  0
    8.4617    0.1369   25.1369 H   0  0  0  0  0  0  0  0  0  0  0  0
   10.2598    1.9795   25.2509 H   0  0  0  0  0  0  0  0  0  0  0  0
    7.4903    2.6182   24.1381 H   0  0  0  0  0  0  0  0  0  0  0  0
    8.9312    3.5794   23.7806 H   0  0  0  0  0  0  0  0  0  0  0  0
   12.3295    0.0664   22.6227 H   0  0  0  0  0  0  0  0  0  0  0  0
   14.5449    1.1216   23.0170 H   0  0  0  0  0  0  0  0  0  0  0  0
  1  2  1  0
  2  3  2  0
  3  4  1  0
  3  5  1  0
  5  6  2  0
  6  7  1  0
  7  8  2  0
  8  9  1  0
  9 10  2  0
 10 11  1  0
 11 12  1  0
 12 13  1  0
 13 14  2  0
 14 15  1  0
 15 16  2  0
 16 17  1  0
 17 18  2  0
 18 19  1  0
 16 20  1  0
 15 21  1  0
 14 22  1  0
 12 23  1  0
 12 24  1  0
 11 25  2  0
 25 26  1  0
 26 27  1  0
 27 28  1  0
 28 29  1  0
 29 30  1  0
 30 31  1  0
 31 32  1  0
 32 33  1  0
 32 34  1  0
 32 35  1  0
 31 36  1  0
 31 37  1  0
 30 38  1  0
 30 39  1  0
 29 40  1  0
 29 41  1  0
 28 42  1  0
 27 43  1  0
 27 44  1  0
  7 45  1  0
  6 46  1  0
  8  2  1  0
 26  9  1  0
 33 28  1  0
 18 13  1  0
M  END
>  <cnnaffinity>  (1) 
-6.01574

>  <filename>  (1) 
Fc1c(-c2nc(Cc3cccnc3)nn2CC2CCCCO2)ccnc1Cl

$$$$
