
     RDKit          3D

 42 46  0  0  0  0  0  0  0  0999 V2000
    7.6049   -7.5887   22.4757 F   0  0  0  0  0  0  0  0  0  0  0  0
    8.0396   -6.3255   22.5860 C   0  0  0  0  0  0  0  0  0  0  0  0
    8.8235   -5.9165   23.6606 C   0  0  0  0  0  0  0  0  0  0  0  0
    9.2966   -4.5923   23.6904 C   0  0  0  0  0  0  0  0  0  0  0  0
    8.9573   -3.6908   22.6775 C   0  0  0  0  0  0  0  0  0  0  0  0
    9.5542   -2.2889   22.6487 C   0  0  0  0  0  0  0  0  0  0  0  0
    8.5620   -1.2535   22.3463 N   0  0  0  0  0  0  0  0  0  0  0  0
    8.3936   -0.8317   21.0667 N   0  0  0  0  0  0  0  0  0  0  0  0
    7.1741   -0.3236   21.0748 C   0  0  0  0  0  0  0  0  0  0  0  0
    6.5503    0.2392   19.8756 C   0  0  0  0  0  0  0  0  0  0  0  0
    5.2997    0.8800   19.9078 C   0  0  0  0  0  0  0  0  0  0  0  0
    4.7971    1.4088   18.7197 C   0  0  0  0  0  0  0  0  0  0  0  0
    5.5530    1.2745   17.5491 C   0  0  0  0  0  0  0  0  0  0  0  0
    6.7359    0.6434   17.5020 N   0  0  0  0  0  0  0  0  0  0  0  0
    7.2167    0.1405   18.6444 C   0  0  0  0  0  0  0  0  0  0  0  0
    8.1764   -0.3690   18.5730 H   0  0  0  0  0  0  0  0  0  0  0  0
    5.1889    1.6887   16.6091 H   0  0  0  0  0  0  0  0  0  0  0  0
    3.8491    1.9383   18.6909 H   0  0  0  0  0  0  0  0  0  0  0  0
    4.7512    0.9625   20.8475 H   0  0  0  0  0  0  0  0  0  0  0  0
    6.5282   -0.4306   22.2686 N   0  0  0  0  0  0  0  0  0  0  0  0
    7.4192   -1.0072   23.0424 C   0  0  0  0  0  0  0  0  0  0  0  0
    7.3090   -1.4704   24.4232 C   0  0  0  0  0  0  0  0  0  0  0  0
    6.4165   -2.4637   24.8140 C   0  0  0  0  0  0  0  0  0  0  0  0
    6.5118   -3.1423   25.9784 N   0  0  0  0  0  0  0  0  0  0  0  0
    7.5001   -2.8424   26.8353 C   0  0  0  0  0  0  0  0  0  0  0  0
    8.4099   -1.7855   26.5945 C   0  0  0  0  0  0  0  0  0  0  0  0
    8.2547   -1.1013   25.3847 C   0  0  0  0  0  0  0  0  0  0  0  0
    9.2125   -0.1371   25.3796 N   0  0  0  0  0  0  0  0  0  0  0  0
    9.8965   -0.2532   26.5655 C   0  0  0  0  0  0  0  0  0  0  0  0
    9.4676   -1.2277   27.3149 N   0  0  0  0  0  0  0  0  0  0  0  0
   10.7117    0.4151   26.8044 H   0  0  0  0  0  0  0  0  0  0  0  0
    9.2614    0.6036   24.7064 H   0  0  0  0  0  0  0  0  0  0  0  0
    7.5807   -3.4366   27.7455 H   0  0  0  0  0  0  0  0  0  0  0  0
    5.6003   -2.7585   24.1532 H   0  0  0  0  0  0  0  0  0  0  0  0
   10.3353   -2.2247   21.8885 H   0  0  0  0  0  0  0  0  0  0  0  0
   10.0150   -2.0578   23.6081 H   0  0  0  0  0  0  0  0  0  0  0  0
    8.1073   -4.1021   21.6395 C   0  0  0  0  0  0  0  0  0  0  0  0
    7.6741   -5.4176   21.5854 C   0  0  0  0  0  0  0  0  0  0  0  0
    6.9222   -5.8367   20.5587 F   0  0  0  0  0  0  0  0  0  0  0  0
    7.7666   -3.4004   20.8829 H   0  0  0  0  0  0  0  0  0  0  0  0
    9.9831   -4.2763   24.4747 H   0  0  0  0  0  0  0  0  0  0  0  0
    9.0936   -6.6390   24.4285 H   0  0  0  0  0  0  0  0  0  0  0  0
  1  2  1  0
  2  3  2  0
  3  4  1  0
  4  5  2  0
  5  6  1  0
  6  7  1  0
  7  8  1  0
  8  9  2  0
  9 10  1  0
 10 11  2  0
 11 12  1  0
 12 13  2  0
 13 14  1  0
 14 15  2  0
 15 16  1  0
 13 17  1  0
 12 18  1  0
 11 19  1  0
  9 20  1  0
 20 21  2  0
 21 22  1  0
 22 23  2  0
 23 24  1  0
 24 25  2  0
 25 26  1  0
 26 27  2  0
 27 28  1  0
 28 29  1  0
 29 30  2  0
 29 31  1  0
 28 32  1  0
 25 33  1  0
 23 34  1  0
  6 35  1  0
  6 36  1  0
  5 37  1  0
 37 38  2  0
 38 39  1  0
 37 40  1  0
  4 41  1  0
  3 42  1  0
 38  2  1  0
 21  7  1  0
 27 22  1  0
 15 10  1  0
 30 26  1  0
M  END
>  <cnnaffinity>  (1) 
-6.73074

>  <filename>  (1) 
Fc1ccc(Cn2nc(-c3cccnc3)nc2-c2cncc3nc[nH]c23)cc1F

$$$$
