
     RDKit          3D

 35 37  0  0  0  0  0  0  0  0999 V2000
    8.3631    1.0949   26.2129 F   0  0  0  0  0  0  0  0  0  0  0  0
    7.8442   -0.0154   25.6722 C   0  0  0  0  0  0  0  0  0  0  0  0
    6.6205   -0.4828   26.1325 C   0  0  0  0  0  0  0  0  0  0  0  0
    6.1057   -1.6477   25.5673 C   0  0  0  0  0  0  0  0  0  0  0  0
    6.8062   -2.3315   24.5582 C   0  0  0  0  0  0  0  0  0  0  0  0
    6.2279   -3.6191   23.9948 C   0  0  0  0  0  0  0  0  0  0  0  0
    5.8256   -3.4679   22.7074 F   0  0  0  0  0  0  0  0  0  0  0  0
    5.1602   -4.0618   24.6798 F   0  0  0  0  0  0  0  0  0  0  0  0
    7.1303   -4.6252   23.9856 F   0  0  0  0  0  0  0  0  0  0  0  0
    8.0225   -1.8084   24.0677 C   0  0  0  0  0  0  0  0  0  0  0  0
    8.8042   -2.4651   22.9318 C   0  0  0  0  0  0  0  0  0  0  0  0
    9.3643   -1.5014   21.9964 N   0  0  0  0  0  0  0  0  0  0  0  0
   10.6763   -1.1226   21.8622 C   0  0  0  0  0  0  0  0  0  0  0  0
   10.8095   -0.1790   20.9854 N   0  0  0  0  0  0  0  0  0  0  0  0
    9.5531    0.0990   20.4874 N   0  0  0  0  0  0  0  0  0  0  0  0
    8.7109   -0.6733   21.1181 C   0  0  0  0  0  0  0  0  0  0  0  0
    7.3532   -0.7135   20.9324 N   0  0  0  0  0  0  0  0  0  0  0  0
    6.6728   -0.0104   19.9052 C   0  0  0  0  0  0  0  0  0  0  0  0
    5.4515    0.6250   20.1659 C   0  0  0  0  0  0  0  0  0  0  0  0
    4.8149    1.3011   19.1130 C   0  0  0  0  0  0  0  0  0  0  0  0
    5.3921    1.2965   17.8385 C   0  0  0  0  0  0  0  0  0  0  0  0
    6.5518    0.6775   17.5641 N   0  0  0  0  0  0  0  0  0  0  0  0
    7.1747    0.0625   18.5769 C   0  0  0  0  0  0  0  0  0  0  0  0
    8.1296   -0.4129   18.3711 H   0  0  0  0  0  0  0  0  0  0  0  0
    4.9121    1.7904   16.9966 H   0  0  0  0  0  0  0  0  0  0  0  0
    3.8858    1.8339   19.2672 H   0  0  0  0  0  0  0  0  0  0  0  0
    5.0301    0.6150   21.1725 H   0  0  0  0  0  0  0  0  0  0  0  0
    6.8174   -1.0965   21.6968 H   0  0  0  0  0  0  0  0  0  0  0  0
   11.4876   -1.5481   22.4341 H   0  0  0  0  0  0  0  0  0  0  0  0
    9.6402   -3.0264   23.3563 H   0  0  0  0  0  0  0  0  0  0  0  0
    8.1918   -3.1795   22.3816 H   0  0  0  0  0  0  0  0  0  0  0  0
    8.5531   -0.6558   24.6636 C   0  0  0  0  0  0  0  0  0  0  0  0
    9.4989   -0.2346   24.3382 H   0  0  0  0  0  0  0  0  0  0  0  0
    5.1553   -2.0410   25.9216 H   0  0  0  0  0  0  0  0  0  0  0  0
    6.1037    0.0545   26.9203 H   0  0  0  0  0  0  0  0  0  0  0  0
  1  2  1  0
  2  3  2  0
  3  4  1  0
  4  5  2  0
  5  6  1  0
  6  7  1  0
  6  8  1  0
  6  9  1  0
  5 10  1  0
 10 11  1  0
 11 12  1  0
 12 13  1  0
 13 14  2  0
 14 15  1  0
 15 16  2  0
 16 17  1  0
 17 18  1  0
 18 19  2  0
 19 20  1  0
 20 21  2  0
 21 22  1  0
 22 23  2  0
 23 24  1  0
 21 25  1  0
 20 26  1  0
 19 27  1  0
 17 28  1  0
 13 29  1  0
 11 30  1  0
 11 31  1  0
 10 32  2  0
 32 33  1  0
  4 34  1  0
  3 35  1  0
 32  2  1  0
 16 12  1  0
 23 18  1  0
M  END
>  <cnnaffinity>  (1) 
-5.71723

>  <filename>  (1) 
Fc1ccc(C(F)(F)F)c(Cn2cnnc2Nc2cccnc2)c1

$$$$
