
     RDKit          3D

 37 40  0  0  0  0  0  0  0  0999 V2000
    9.8011   -1.4852   27.2218 F   0  0  0  0  0  0  0  0  0  0  0  0
    8.7927   -1.8173   26.4012 C   0  0  0  0  0  0  0  0  0  0  0  0
    8.7785   -1.3020   25.0924 C   0  0  0  0  0  0  0  0  0  0  0  0
    7.7085   -1.6035   24.2302 C   0  0  0  0  0  0  0  0  0  0  0  0
    7.6992   -1.2326   22.8015 C   0  0  0  0  0  0  0  0  0  0  0  0
    6.7054   -0.7040   22.1055 N   0  0  0  0  0  0  0  0  0  0  0  0
    7.2274   -0.5421   20.8682 C   0  0  0  0  0  0  0  0  0  0  0  0
    6.4979    0.0938   19.7668 C   0  0  0  0  0  0  0  0  0  0  0  0
    5.2751    0.7667   19.9310 C   0  0  0  0  0  0  0  0  0  0  0  0
    4.7312    1.4083   18.8200 C   0  0  0  0  0  0  0  0  0  0  0  0
    5.4129    1.3493   17.5984 C   0  0  0  0  0  0  0  0  0  0  0  0
    6.5659    0.6840   17.4261 N   0  0  0  0  0  0  0  0  0  0  0  0
    7.0882    0.0749   18.4937 C   0  0  0  0  0  0  0  0  0  0  0  0
    8.0297   -0.4482   18.3292 H   0  0  0  0  0  0  0  0  0  0  0  0
    5.0119    1.8614   16.7261 H   0  0  0  0  0  0  0  0  0  0  0  0
    3.8126    1.9814   18.9005 H   0  0  0  0  0  0  0  0  0  0  0  0
    4.7857    0.8080   20.9077 H   0  0  0  0  0  0  0  0  0  0  0  0
    8.4606   -1.0017   20.7341 N   0  0  0  0  0  0  0  0  0  0  0  0
    8.7655   -1.4413   21.9780 N   0  0  0  0  0  0  0  0  0  0  0  0
    9.9959   -2.2045   22.1344 C   0  0  0  0  0  0  0  0  0  0  0  0
   11.2555   -1.3559   22.0949 C   0  0  0  0  0  0  0  0  0  0  0  0
   12.3110   -2.2034   22.2391 F   0  0  0  0  0  0  0  0  0  0  0  0
   11.2836   -0.5044   23.1614 F   0  0  0  0  0  0  0  0  0  0  0  0
   11.3986   -0.7800   21.1754 H   0  0  0  0  0  0  0  0  0  0  0  0
    9.9990   -2.7633   23.0753 H   0  0  0  0  0  0  0  0  0  0  0  0
   10.0450   -2.8932   21.2912 H   0  0  0  0  0  0  0  0  0  0  0  0
    6.6215   -2.3236   24.7908 C   0  0  0  0  0  0  0  0  0  0  0  0
    5.3988   -2.6356   24.2766 N   0  0  0  0  0  0  0  0  0  0  0  0
    4.6598   -3.3413   25.1983 C   0  0  0  0  0  0  0  0  0  0  0  0
    5.4246   -3.5468   26.3133 C   0  0  0  0  0  0  0  0  0  0  0  0
    6.6816   -2.8881   26.0924 C   0  0  0  0  0  0  0  0  0  0  0  0
    7.8125   -2.6578   26.8964 C   0  0  0  0  0  0  0  0  0  0  0  0
    7.9510   -3.1023   27.8703 H   0  0  0  0  0  0  0  0  0  0  0  0
    5.1348   -4.0719   27.2094 H   0  0  0  0  0  0  0  0  0  0  0  0
    3.6281   -3.6063   25.0054 H   0  0  0  0  0  0  0  0  0  0  0  0
    5.0669   -2.2072   23.4246 H   0  0  0  0  0  0  0  0  0  0  0  0
    9.6170   -0.6816   24.7865 H   0  0  0  0  0  0  0  0  0  0  0  0
  1  2  1  0
  2  3  2  0
  3  4  1  0
  4  5  1  0
  5  6  2  0
  6  7  1  0
  7  8  1  0
  8  9  2  0
  9 10  1  0
 10 11  2  0
 11 12  1  0
 12 13  2  0
 13 14  1  0
 11 15  1  0
 10 16  1  0
  9 17  1  0
  7 18  2  0
 18 19  1  0
 19 20  1  0
 20 21  1  0
 21 22  1  0
 21 23  1  0
 21 24  1  0
 20 25  1  0
 20 26  1  0
  4 27  2  0
 27 28  1  0
 28 29  1  0
 29 30  2  0
 30 31  1  0
 31 32  2  0
 32 33  1  0
 30 34  1  0
 29 35  1  0
 28 36  1  0
  3 37  1  0
 32  2  1  0
 19  5  1  0
 31 27  1  0
 13  8  1  0
M  END
>  <cnnaffinity>  (1) 
-5.77572

>  <filename>  (1) 
Fc1cc(-c2nc(-c3cccnc3)nn2CC(F)F)c2[nH]ccc2c1

$$$$
