
     RDKit          3D

 46 50  0  0  0  0  0  0  0  0999 V2000
   14.6973    4.4018   22.4583 F   0  0  0  0  0  0  0  0  0  0  0  0
   12.1481    3.4003   21.9868 C   0  0  0  0  0  0  0  0  0  0  0  0
   12.6789    1.1448   23.3163 C   0  0  0  0  0  0  0  0  0  0  0  0
   12.5868    1.1743   23.0833 C   0  0  0  0  0  0  0  0  0  0  0  0
   11.4531    2.0898   23.0571 C   0  0  0  0  0  0  0  0  0  0  0  0
   10.1470    1.5159   22.5991 C   0  0  0  0  0  0  0  0  0  0  0  0
    9.9410    0.4978   21.7774 N   0  0  0  0  0  0  0  0  0  0  0  0
    8.5903    0.4392   21.6615 C   0  0  0  0  0  0  0  0  0  0  0  0
    7.8718   -0.5671   20.7995 C   0  0  0  0  0  0  0  0  0  0  0  0
    7.0522    0.0095   19.6394 C   0  0  0  0  0  0  0  0  0  0  0  0
    6.0588    0.9754   19.8656 C   0  0  0  0  0  0  0  0  0  0  0  0
    5.3385    1.4689   18.7755 C   0  0  0  0  0  0  0  0  0  0  0  0
    5.6321    0.9877   17.4981 C   0  0  0  0  0  0  0  0  0  0  0  0
    6.5700    0.0624   17.2588 N   0  0  0  0  0  0  0  0  0  0  0  0
    7.2528   -0.4071   18.3113 C   0  0  0  0  0  0  0  0  0  0  0  0
    8.0141   -1.1553   18.0864 H   0  0  0  0  0  0  0  0  0  0  0  0
    5.0940    1.3590   16.6289 H   0  0  0  0  0  0  0  0  0  0  0  0
    4.5716    2.2255   18.9018 H   0  0  0  0  0  0  0  0  0  0  0  0
    5.8801    1.3423   20.8769 H   0  0  0  0  0  0  0  0  0  0  0  0
    7.2024   -1.1315   21.4633 H   0  0  0  0  0  0  0  0  0  0  0  0
    8.6180   -1.2737   20.4277 H   0  0  0  0  0  0  0  0  0  0  0  0
    7.9422    1.3187   22.3999 N   0  0  0  0  0  0  0  0  0  0  0  0
    8.9335    2.0681   22.9355 N   0  0  0  0  0  0  0  0  0  0  0  0
    8.5744    3.0702   23.9079 C   0  0  0  0  0  0  0  0  0  0  0  0
    8.5855    4.4491   23.6827 C   0  0  0  0  0  0  0  0  0  0  0  0
    8.2719    5.3549   24.7372 C   0  0  0  0  0  0  0  0  0  0  0  0
    7.9309    4.9045   26.0101 C   0  0  0  0  0  0  0  0  0  0  0  0
    7.8577    3.5145   26.2287 C   0  0  0  0  0  0  0  0  0  0  0  0
    8.1411    2.6329   25.1749 C   0  0  0  0  0  0  0  0  0  0  0  0
    7.9584    1.3796   25.7015 N   0  0  0  0  0  0  0  0  0  0  0  0
    7.5872    1.5461   27.0030 C   0  0  0  0  0  0  0  0  0  0  0  0
    7.5168    2.7959   27.3657 N   0  0  0  0  0  0  0  0  0  0  0  0
    7.3821    0.6993   27.6465 H   0  0  0  0  0  0  0  0  0  0  0  0
    8.0002    0.5270   25.1726 H   0  0  0  0  0  0  0  0  0  0  0  0
    7.6986    5.5764   26.8301 H   0  0  0  0  0  0  0  0  0  0  0  0
    8.3102    6.4230   24.5374 H   0  0  0  0  0  0  0  0  0  0  0  0
    8.7576    4.8400   22.6828 H   0  0  0  0  0  0  0  0  0  0  0  0
   11.8240    3.4065   22.0403 C   0  0  0  0  0  0  0  0  0  0  0  0
   11.9270    2.8658   20.9504 H   0  0  0  0  0  0  0  0  0  0  0  0
   12.2729    4.1959   22.8358 H   0  0  0  0  0  0  0  0  0  0  0  0
   11.0151    2.5471   24.0611 H   0  0  0  0  0  0  0  0  0  0  0  0
   12.5275    0.6682   21.9495 H   0  0  0  0  0  0  0  0  0  0  0  0
   12.0577    0.0600   23.2312 H   0  0  0  0  0  0  0  0  0  0  0  0
   13.0368    1.1396   24.9242 H   0  0  0  0  0  0  0  0  0  0  0  0
   13.6822    1.7568   22.8623 H   0  0  0  0  0  0  0  0  0  0  0  0
   14.0157    3.8021   22.1668 H   0  0  0  0  0  0  0  0  0  0  0  0
  1  2  1  0
  2  3  1  0
  3  4  1  0
  4  5  1  0
  5  6  1  0
  6  7  2  0
  7  8  1  0
  8  9  1  0
  9 10  1  0
 10 11  2  0
 11 12  1  0
 12 13  2  0
 13 14  1  0
 14 15  2  0
 15 16  1  0
 13 17  1  0
 12 18  1  0
 11 19  1  0
  9 20  1  0
  9 21  1  0
  8 22  2  0
 22 23  1  0
 23 24  1  0
 24 25  2  0
 25 26  1  0
 26 27  2  0
 27 28  1  0
 28 29  2  0
 29 30  1  0
 30 31  1  0
 31 32  2  0
 31 33  1  0
 30 34  1  0
 27 35  1  0
 26 36  1  0
 25 37  1  0
  5 38  1  0
 38 39  1  0
 38 40  1  0
  5 41  1  0
  4 42  1  0
  4 43  1  0
  3 44  1  0
  3 45  1  0
  2 46  1  0
 38  2  1  0
 23  6  1  0
 29 24  1  0
 15 10  1  0
 32 28  1  0
M  END
>  <cnnaffinity>  (1) 
-5.80532

>  <filename>  (1) 
FC1CCC(c2nc(Cc3cccnc3)nn2-c2cccc3nc[nH]c23)C1

$$$$
