
     RDKit          3D

 28 30  0  0  0  0  0  0  0  0999 V2000
    4.9293    1.8181   16.9580 H   0  0  0  0  0  0  0  0  0  0  0  0
    5.3811    1.3179   17.8082 C   0  0  0  0  0  0  0  0  0  0  0  0
    6.5432    0.6936   17.5644 N   0  0  0  0  0  0  0  0  0  0  0  0
    7.1380    0.0897   18.5969 C   0  0  0  0  0  0  0  0  0  0  0  0
    8.0903   -0.3881   18.3665 H   0  0  0  0  0  0  0  0  0  0  0  0
    6.6328    0.0564   19.9134 C   0  0  0  0  0  0  0  0  0  0  0  0
    7.4046   -0.6424   20.9513 C   0  0  0  0  0  0  0  0  0  0  0  0
    8.3763   -1.6118   20.8165 C   0  0  0  0  0  0  0  0  0  0  0  0
    8.8405   -1.8863   19.8834 H   0  0  0  0  0  0  0  0  0  0  0  0
    8.7346   -2.0594   22.1051 C   0  0  0  0  0  0  0  0  0  0  0  0
    9.3769   -2.8878   22.3707 H   0  0  0  0  0  0  0  0  0  0  0  0
    8.0446   -1.2927   23.0180 C   0  0  0  0  0  0  0  0  0  0  0  0
    8.1487   -1.2332   24.4801 C   0  0  0  0  0  0  0  0  0  0  0  0
    9.2630   -1.8189   25.1078 C   0  0  0  0  0  0  0  0  0  0  0  0
   10.0556   -2.2679   24.5094 H   0  0  0  0  0  0  0  0  0  0  0  0
    9.4409   -1.8343   26.4311 N   0  0  0  0  0  0  0  0  0  0  0  0
    8.5439   -1.2335   27.2155 C   0  0  0  0  0  0  0  0  0  0  0  0
    8.7541   -1.2248   28.2786 H   0  0  0  0  0  0  0  0  0  0  0  0
    7.4017   -0.6203   26.6901 C   0  0  0  0  0  0  0  0  0  0  0  0
    6.5133   -0.0501   27.5179 F   0  0  0  0  0  0  0  0  0  0  0  0
    7.1925   -0.6101   25.3170 C   0  0  0  0  0  0  0  0  0  0  0  0
    6.2909   -0.1522   24.9218 H   0  0  0  0  0  0  0  0  0  0  0  0
    7.2191   -0.4607   22.3035 N   0  0  0  0  0  0  0  0  0  0  0  0
    6.8608    0.3801   22.7171 H   0  0  0  0  0  0  0  0  0  0  0  0
    5.3941    0.6986   20.1324 C   0  0  0  0  0  0  0  0  0  0  0  0
    4.9270    0.6892   21.1189 H   0  0  0  0  0  0  0  0  0  0  0  0
    4.7665    1.3414   19.0645 C   0  0  0  0  0  0  0  0  0  0  0  0
    3.8272    1.8696   19.1922 H   0  0  0  0  0  0  0  0  0  0  0  0
  1  2  1  0
  2  3  2  0
  3  4  1  0
  4  5  1  0
  4  6  2  0
  6  7  1  0
  7  8  2  0
  8  9  1  0
  8 10  1  0
 10 11  1  0
 10 12  2  0
 12 13  1  0
 13 14  2  0
 14 15  1  0
 14 16  1  0
 16 17  2  0
 17 18  1  0
 17 19  1  0
 19 20  1  0
 19 21  2  0
 21 22  1  0
 12 23  1  0
 23 24  1  0
  6 25  1  0
 25 26  1  0
 25 27  2  0
 27 28  1  0
 27  2  1  0
 23  7  1  0
 21 13  1  0
M  END
>  <cnnaffinity>  (1) 
-4.69053

>  <filename>  (1) 
Fc1cncc(-c2ccc(-c3cccnc3)[nH]2)c1

$$$$
