
     RDKit          3D

 32 34  0  0  0  0  0  0  0  0999 V2000
    6.7072    7.3430   21.2988 F   0  0  0  0  0  0  0  0  0  0  0  0
    7.3121    6.3899   22.0290 C   0  0  0  0  0  0  0  0  0  0  0  0
    6.5387    5.5147   22.7875 C   0  0  0  0  0  0  0  0  0  0  0  0
    7.1642    4.4716   23.4794 C   0  0  0  0  0  0  0  0  0  0  0  0
    8.5608    4.2938   23.4394 C   0  0  0  0  0  0  0  0  0  0  0  0
    9.1792    3.0016   23.9655 C   0  0  0  0  0  0  0  0  0  0  0  0
    9.0902    1.8909   22.9586 C   0  0  0  0  0  0  0  0  0  0  0  0
   10.0560    1.5553   22.1538 N   0  0  0  0  0  0  0  0  0  0  0  0
    9.5128    0.5519   21.3784 O   0  0  0  0  0  0  0  0  0  0  0  0
    8.2559    0.3675   21.7938 C   0  0  0  0  0  0  0  0  0  0  0  0
    7.4317   -0.6507   20.9619 C   0  0  0  0  0  0  0  0  0  0  0  0
    6.6004   -1.3372   21.7953 F   0  0  0  0  0  0  0  0  0  0  0  0
    8.2939   -1.5685   20.4387 F   0  0  0  0  0  0  0  0  0  0  0  0
    6.6137   -0.0278   19.8435 C   0  0  0  0  0  0  0  0  0  0  0  0
    5.4126    0.6473   20.1026 C   0  0  0  0  0  0  0  0  0  0  0  0
    4.8078    1.3236   19.0416 C   0  0  0  0  0  0  0  0  0  0  0  0
    5.4142    1.2952   17.7822 C   0  0  0  0  0  0  0  0  0  0  0  0
    6.5329    0.6070   17.5170 N   0  0  0  0  0  0  0  0  0  0  0  0
    7.1072   -0.0456   18.5318 C   0  0  0  0  0  0  0  0  0  0  0  0
    8.0149   -0.5976   18.2991 H   0  0  0  0  0  0  0  0  0  0  0  0
    4.9842    1.8504   16.9490 H   0  0  0  0  0  0  0  0  0  0  0  0
    3.8897    1.8814   19.1773 H   0  0  0  0  0  0  0  0  0  0  0  0
    4.9540    0.6497   21.0934 H   0  0  0  0  0  0  0  0  0  0  0  0
    7.9288    1.1566   22.7800 N   0  0  0  0  0  0  0  0  0  0  0  0
    8.6350    2.6505   24.8454 H   0  0  0  0  0  0  0  0  0  0  0  0
   10.2231    3.1567   24.2528 H   0  0  0  0  0  0  0  0  0  0  0  0
    9.3047    5.2754   22.7538 C   0  0  0  0  0  0  0  0  0  0  0  0
   11.0450    5.2982   22.8115 Cl  0  0  0  0  0  0  0  0  0  0  0  0
    8.6951    6.2899   22.0094 C   0  0  0  0  0  0  0  0  0  0  0  0
    9.2801    6.9596   21.3993 H   0  0  0  0  0  0  0  0  0  0  0  0
    6.5496    3.7488   24.0221 H   0  0  0  0  0  0  0  0  0  0  0  0
    5.4662    5.6570   22.8134 H   0  0  0  0  0  0  0  0  0  0  0  0
  1  2  1  0
  2  3  2  0
  3  4  1  0
  4  5  2  0
  5  6  1  0
  6  7  1  0
  7  8  2  0
  8  9  1  0
  9 10  1  0
 10 11  1  0
 11 12  1  0
 11 13  1  0
 11 14  1  0
 14 15  2  0
 15 16  1  0
 16 17  2  0
 17 18  1  0
 18 19  2  0
 19 20  1  0
 17 21  1  0
 16 22  1  0
 15 23  1  0
 10 24  2  0
  6 25  1  0
  6 26  1  0
  5 27  1  0
 27 28  1  0
 27 29  2  0
 29 30  1  0
  4 31  1  0
  3 32  1  0
 29  2  1  0
 24  7  1  0
 19 14  1  0
M  END
>  <cnnaffinity>  (1) 
-5.58994

>  <filename>  (1) 
Fc1ccc(Cc2noc(C(F)(F)c3cccnc3)n2)c(Cl)c1

$$$$
