
     RDKit          3D

 33 35  0  0  0  0  0  0  0  0999 V2000
    9.7950    4.7495   26.8024 F   0  0  0  0  0  0  0  0  0  0  0  0
    8.7821    4.1340   26.1530 C   0  0  0  0  0  0  0  0  0  0  0  0
    7.5379    4.7552   26.2490 C   0  0  0  0  0  0  0  0  0  0  0  0
    6.4417    4.2472   25.5620 C   0  0  0  0  0  0  0  0  0  0  0  0
    6.6146    3.1131   24.7620 C   0  0  0  0  0  0  0  0  0  0  0  0
    7.8421    2.4650   24.6729 C   0  0  0  0  0  0  0  0  0  0  0  0
    7.9791    1.3584   23.8399 N   0  0  0  0  0  0  0  0  0  0  0  0
    6.9651    0.8978   22.8922 C   0  0  0  0  0  0  0  0  0  0  0  0
    7.4910   -0.3752   22.3077 C   0  0  0  0  0  0  0  0  0  0  0  0
    8.2340   -1.3604   22.8928 C   0  0  0  0  0  0  0  0  0  0  0  0
    8.5436   -2.2546   21.8816 N   0  0  0  0  0  0  0  0  0  0  0  0
    8.0300   -1.8578   20.6849 N   0  0  0  0  0  0  0  0  0  0  0  0
    7.3707   -0.7477   20.9226 C   0  0  0  0  0  0  0  0  0  0  0  0
    6.6559   -0.0133   19.8981 C   0  0  0  0  0  0  0  0  0  0  0  0
    5.4814    0.6935   20.1635 C   0  0  0  0  0  0  0  0  0  0  0  0
    4.8709    1.3454   19.0969 C   0  0  0  0  0  0  0  0  0  0  0  0
    5.4467    1.2923   17.8236 C   0  0  0  0  0  0  0  0  0  0  0  0
    6.5852    0.6182   17.5763 N   0  0  0  0  0  0  0  0  0  0  0  0
    7.1695   -0.0243   18.6003 C   0  0  0  0  0  0  0  0  0  0  0  0
    8.0959   -0.5546   18.4031 H   0  0  0  0  0  0  0  0  0  0  0  0
    4.9440    1.8025   17.0084 H   0  0  0  0  0  0  0  0  0  0  0  0
    3.9526    1.9010   19.2464 H   0  0  0  0  0  0  0  0  0  0  0  0
    5.0505    0.7263   21.1628 H   0  0  0  0  0  0  0  0  0  0  0  0
    9.0874   -3.1109   22.0149 H   0  0  0  0  0  0  0  0  0  0  0  0
    8.5438   -1.4070   23.9297 H   0  0  0  0  0  0  0  0  0  0  0  0
    6.0093    0.7111   23.3940 H   0  0  0  0  0  0  0  0  0  0  0  0
    6.8108    1.6427   22.0984 H   0  0  0  0  0  0  0  0  0  0  0  0
    8.8993    0.9269   23.7671 H   0  0  0  0  0  0  0  0  0  0  0  0
    8.9403    2.9455   25.3975 C   0  0  0  0  0  0  0  0  0  0  0  0
   10.5896    1.9432   25.2872 Br  0  0  0  0  0  0  0  0  0  0  0  0
    5.7997    2.7097   24.1802 H   0  0  0  0  0  0  0  0  0  0  0  0
    5.4941    4.7724   25.6299 H   0  0  0  0  0  0  0  0  0  0  0  0
    7.4351    5.6493   26.8557 H   0  0  0  0  0  0  0  0  0  0  0  0
  1  2  1  0
  2  3  2  0
  3  4  1  0
  4  5  2  0
  5  6  1  0
  6  7  1  0
  7  8  1  0
  8  9  1  0
  9 10  2  0
 10 11  1  0
 11 12  1  0
 12 13  2  0
 13 14  1  0
 14 15  2  0
 15 16  1  0
 16 17  2  0
 17 18  1  0
 18 19  2  0
 19 20  1  0
 17 21  1  0
 16 22  1  0
 15 23  1  0
 11 24  1  0
 10 25  1  0
  8 26  1  0
  8 27  1  0
  7 28  1  0
  6 29  2  0
 29 30  1  0
  5 31  1  0
  4 32  1  0
  3 33  1  0
 29  2  1  0
 13  9  1  0
 19 14  1  0
M  END
>  <cnnaffinity>  (1) 
-5.48971

>  <filename>  (1) 
Fc1cccc(NCc2c[nH]nc2-c2cccnc2)c1Br

$$$$
