
     RDKit          3D

 18 19  0  0  0  0  0  0  0  0999 V2000
    4.9434    1.8114   16.9980 H   0  0  0  0  0  0  0  0  0  0  0  0
    5.3974    1.2928   17.8398 C   0  0  0  0  0  0  0  0  0  0  0  0
    6.5476    0.6576   17.5704 N   0  0  0  0  0  0  0  0  0  0  0  0
    7.1649    0.0341   18.5777 C   0  0  0  0  0  0  0  0  0  0  0  0
    8.1262   -0.4169   18.3436 H   0  0  0  0  0  0  0  0  0  0  0  0
    6.6422   -0.0256   19.8884 C   0  0  0  0  0  0  0  0  0  0  0  0
    7.3386   -0.6957   20.9489 N   0  0  0  0  0  0  0  0  0  0  0  0
    6.8236   -1.6551   21.7962 C   0  0  0  0  0  0  0  0  0  0  0  0
    5.6036   -2.1123   21.6460 F   0  0  0  0  0  0  0  0  0  0  0  0
    7.6579   -2.1167   22.6545 N   0  0  0  0  0  0  0  0  0  0  0  0
    8.7980   -1.4091   22.3476 N   0  0  0  0  0  0  0  0  0  0  0  0
    9.6885   -1.5202   22.8188 H   0  0  0  0  0  0  0  0  0  0  0  0
    8.6598   -0.5128   21.3539 C   0  0  0  0  0  0  0  0  0  0  0  0
    9.8338    0.5290   20.8369 S   0  0  0  0  0  0  0  0  0  0  0  0
    5.4378    0.6188   20.1636 C   0  0  0  0  0  0  0  0  0  0  0  0
    5.0355    0.5909   21.1784 H   0  0  0  0  0  0  0  0  0  0  0  0
    4.8135    1.2993   19.1125 C   0  0  0  0  0  0  0  0  0  0  0  0
    3.8881    1.8374   19.2575 H   0  0  0  0  0  0  0  0  0  0  0  0
  1  2  1  0
  2  3  2  0
  3  4  1  0
  4  5  1  0
  4  6  2  0
  6  7  1  0
  7  8  1  0
  8  9  1  0
  8 10  2  0
 10 11  1  0
 11 12  1  0
 11 13  1  0
 13 14  2  0
  6 15  1  0
 15 16  1  0
 15 17  2  0
 17 18  1  0
 17  2  1  0
 13  7  1  0
M  END
>  <cnnaffinity>  (1) 
-4.31217

>  <filename>  (1) 
Fc1n[nH]c(=S)n1-c1cccnc1

$$$$
