
     RDKit          3D

 38 41  0  0  0  0  0  0  0  0999 V2000
   10.5986   -0.8573   23.7994 F   0  0  0  0  0  0  0  0  0  0  0  0
   11.0337   -1.1930   22.5242 C   0  0  0  0  0  0  0  0  0  0  0  0
   10.0706   -2.2035   21.9146 C   0  0  0  0  0  0  0  0  0  0  0  0
    8.7308   -1.6199   21.6220 C   0  0  0  0  0  0  0  0  0  0  0  0
    8.3780   -1.1218   20.4614 N   0  0  0  0  0  0  0  0  0  0  0  0
    7.1854   -0.5155   20.7204 C   0  0  0  0  0  0  0  0  0  0  0  0
    6.4447    0.1688   19.6652 C   0  0  0  0  0  0  0  0  0  0  0  0
    5.2242    0.8474   19.8326 C   0  0  0  0  0  0  0  0  0  0  0  0
    4.6893    1.4890   18.7159 C   0  0  0  0  0  0  0  0  0  0  0  0
    5.3754    1.4267   17.4964 C   0  0  0  0  0  0  0  0  0  0  0  0
    6.5178    0.7485   17.3227 N   0  0  0  0  0  0  0  0  0  0  0  0
    7.0286    0.1387   18.3919 C   0  0  0  0  0  0  0  0  0  0  0  0
    7.9523   -0.4126   18.2448 H   0  0  0  0  0  0  0  0  0  0  0  0
    4.9941    1.9376   16.6170 H   0  0  0  0  0  0  0  0  0  0  0  0
    3.7672    2.0563   18.7694 H   0  0  0  0  0  0  0  0  0  0  0  0
    4.7173    0.8742   20.8007 H   0  0  0  0  0  0  0  0  0  0  0  0
    6.7916   -0.6029   21.9744 N   0  0  0  0  0  0  0  0  0  0  0  0
    7.7799   -1.3435   22.5491 N   0  0  0  0  0  0  0  0  0  0  0  0
    7.7465   -1.7224   23.9245 C   0  0  0  0  0  0  0  0  0  0  0  0
    7.6386   -3.0559   24.2841 C   0  0  0  0  0  0  0  0  0  0  0  0
    7.5486   -3.4226   25.6525 C   0  0  0  0  0  0  0  0  0  0  0  0
    7.5330   -2.4586   26.6338 C   0  0  0  0  0  0  0  0  0  0  0  0
    7.6332   -1.0813   26.2898 C   0  0  0  0  0  0  0  0  0  0  0  0
    7.5779   -0.0392   27.2595 C   0  0  0  0  0  0  0  0  0  0  0  0
    7.8060    1.2553   26.8764 C   0  0  0  0  0  0  0  0  0  0  0  0
    8.0839    1.6330   25.6034 N   0  0  0  0  0  0  0  0  0  0  0  0
    8.0984    0.6877   24.6774 C   0  0  0  0  0  0  0  0  0  0  0  0
    7.8195   -0.6991   24.9248 C   0  0  0  0  0  0  0  0  0  0  0  0
    8.3584    1.0118   23.6723 H   0  0  0  0  0  0  0  0  0  0  0  0
    7.7832    2.0605   27.6110 H   0  0  0  0  0  0  0  0  0  0  0  0
    7.3670   -0.2702   28.2959 H   0  0  0  0  0  0  0  0  0  0  0  0
    7.4577   -2.7253   27.6826 H   0  0  0  0  0  0  0  0  0  0  0  0
    7.4854   -4.4754   25.9199 H   0  0  0  0  0  0  0  0  0  0  0  0
    7.5634   -3.8232   23.5162 H   0  0  0  0  0  0  0  0  0  0  0  0
   10.4790   -2.5460   20.9646 H   0  0  0  0  0  0  0  0  0  0  0  0
    9.9820   -3.0604   22.5885 H   0  0  0  0  0  0  0  0  0  0  0  0
   11.0776   -0.2709   21.9321 H   0  0  0  0  0  0  0  0  0  0  0  0
   12.0440   -1.6043   22.6126 H   0  0  0  0  0  0  0  0  0  0  0  0
  1  2  1  0
  2  3  1  0
  3  4  1  0
  4  5  2  0
  5  6  1  0
  6  7  1  0
  7  8  2  0
  8  9  1  0
  9 10  2  0
 10 11  1  0
 11 12  2  0
 12 13  1  0
 10 14  1  0
  9 15  1  0
  8 16  1  0
  6 17  2  0
 17 18  1  0
 18 19  1  0
 19 20  2  0
 20 21  1  0
 21 22  2  0
 22 23  1  0
 23 24  2  0
 24 25  1  0
 25 26  2  0
 26 27  1  0
 27 28  2  0
 27 29  1  0
 25 30  1  0
 24 31  1  0
 22 32  1  0
 21 33  1  0
 20 34  1  0
  3 35  1  0
  3 36  1  0
  2 37  1  0
  2 38  1  0
 18  4  1  0
 28 19  1  0
 12  7  1  0
 28 23  1  0
M  END
>  <cnnaffinity>  (1) 
-5.9012

>  <filename>  (1) 
FCCc1nc(-c2cccnc2)nn1-c1cccc2ccncc12

$$$$
