
     RDKit          3D

 36 39  0  0  0  0  0  0  0  0999 V2000
   12.3226   -2.1178   22.1737 F   0  0  0  0  0  0  0  0  0  0  0  0
   11.1293   -1.5396   22.4671 C   0  0  0  0  0  0  0  0  0  0  0  0
   10.0073   -2.4284   21.9644 C   0  0  0  0  0  0  0  0  0  0  0  0
    8.7752   -1.6616   21.8105 N   0  0  0  0  0  0  0  0  0  0  0  0
    8.4501   -1.1438   20.6121 N   0  0  0  0  0  0  0  0  0  0  0  0
    7.2935   -0.5861   20.8349 C   0  0  0  0  0  0  0  0  0  0  0  0
    6.5641    0.0814   19.7900 C   0  0  0  0  0  0  0  0  0  0  0  0
    5.3492    0.7280   20.0167 C   0  0  0  0  0  0  0  0  0  0  0  0
    4.7645    1.3812   18.9383 C   0  0  0  0  0  0  0  0  0  0  0  0
    5.3905    1.3579   17.6880 C   0  0  0  0  0  0  0  0  0  0  0  0
    6.5437    0.7017   17.4750 N   0  0  0  0  0  0  0  0  0  0  0  0
    7.1183    0.0782   18.5122 C   0  0  0  0  0  0  0  0  0  0  0  0
    8.0525   -0.4463   18.3348 H   0  0  0  0  0  0  0  0  0  0  0  0
    4.9316    1.8874   16.8591 H   0  0  0  0  0  0  0  0  0  0  0  0
    3.8363    1.9233   19.0627 H   0  0  0  0  0  0  0  0  0  0  0  0
    4.8816    0.7357   21.0022 H   0  0  0  0  0  0  0  0  0  0  0  0
    6.8576   -0.6860   22.1432 N   0  0  0  0  0  0  0  0  0  0  0  0
    7.8093   -1.3484   22.7580 C   0  0  0  0  0  0  0  0  0  0  0  0
    7.8293   -1.6698   24.2036 C   0  0  0  0  0  0  0  0  0  0  0  0
    8.7017   -2.4159   24.8591 N   0  0  0  0  0  0  0  0  0  0  0  0
    8.2825   -2.3973   26.1657 N   0  0  0  0  0  0  0  0  0  0  0  0
    7.1186   -1.6593   26.3649 C   0  0  0  0  0  0  0  0  0  0  0  0
    6.2501   -1.3671   27.4188 C   0  0  0  0  0  0  0  0  0  0  0  0
    5.0813   -0.6203   27.2023 C   0  0  0  0  0  0  0  0  0  0  0  0
    4.7898   -0.1482   25.9144 C   0  0  0  0  0  0  0  0  0  0  0  0
    3.1265    0.7165   25.5161 Br  0  0  0  0  0  0  0  0  0  0  0  0
    5.6976   -0.3894   24.8811 C   0  0  0  0  0  0  0  0  0  0  0  0
    6.8268   -1.1719   25.1202 C   0  0  0  0  0  0  0  0  0  0  0  0
    5.5073   -0.0124   23.8849 H   0  0  0  0  0  0  0  0  0  0  0  0
    4.3912   -0.4454   28.0253 H   0  0  0  0  0  0  0  0  0  0  0  0
    6.4396   -1.7469   28.4044 H   0  0  0  0  0  0  0  0  0  0  0  0
    8.7406   -2.9324   26.9024 H   0  0  0  0  0  0  0  0  0  0  0  0
   10.2617   -2.8005   20.9683 H   0  0  0  0  0  0  0  0  0  0  0  0
    9.8701   -3.2838   22.6307 H   0  0  0  0  0  0  0  0  0  0  0  0
   11.0300   -1.3869   23.5481 H   0  0  0  0  0  0  0  0  0  0  0  0
   11.0690   -0.5608   21.9815 H   0  0  0  0  0  0  0  0  0  0  0  0
  1  2  1  0
  2  3  1  0
  3  4  1  0
  4  5  1  0
  5  6  2  0
  6  7  1  0
  7  8  2  0
  8  9  1  0
  9 10  2  0
 10 11  1  0
 11 12  2  0
 12 13  1  0
 10 14  1  0
  9 15  1  0
  8 16  1  0
  6 17  1  0
 17 18  2  0
 18 19  1  0
 19 20  2  0
 20 21  1  0
 21 22  1  0
 22 23  2  0
 23 24  1  0
 24 25  2  0
 25 26  1  0
 25 27  1  0
 27 28  2  0
 27 29  1  0
 24 30  1  0
 23 31  1  0
 21 32  1  0
  3 33  1  0
  3 34  1  0
  2 35  1  0
  2 36  1  0
 18  4  1  0
 28 19  1  0
 12  7  1  0
 28 22  1  0
M  END
>  <cnnaffinity>  (1) 
-5.6147

>  <filename>  (1) 
FCCn1nc(-c2cccnc2)nc1-c1n[nH]c2ccc(Br)cc12

$$$$
