
     RDKit          3D

 38 41  0  0  0  0  0  0  0  0999 V2000
   12.3207   -2.2867   22.3479 F   0  0  0  0  0  0  0  0  0  0  0  0
   11.2636   -1.4377   22.0758 C   0  0  0  0  0  0  0  0  0  0  0  0
    9.9905   -2.2619   22.0930 C   0  0  0  0  0  0  0  0  0  0  0  0
    8.8087   -1.4205   21.9822 N   0  0  0  0  0  0  0  0  0  0  0  0
    8.5445   -0.8949   20.7634 N   0  0  0  0  0  0  0  0  0  0  0  0
    7.3085   -0.4499   20.8911 C   0  0  0  0  0  0  0  0  0  0  0  0
    6.5729    0.1721   19.7929 C   0  0  0  0  0  0  0  0  0  0  0  0
    5.3285    0.8008   19.9672 C   0  0  0  0  0  0  0  0  0  0  0  0
    4.7472    1.4130   18.8594 C   0  0  0  0  0  0  0  0  0  0  0  0
    5.4096    1.3507   17.6279 C   0  0  0  0  0  0  0  0  0  0  0  0
    6.5655    0.6955   17.4392 N   0  0  0  0  0  0  0  0  0  0  0  0
    7.1272    0.1176   18.5038 C   0  0  0  0  0  0  0  0  0  0  0  0
    8.0549   -0.4243   18.3149 H   0  0  0  0  0  0  0  0  0  0  0  0
    4.9828    1.8375   16.7549 H   0  0  0  0  0  0  0  0  0  0  0  0
    3.7979    1.9326   18.9363 H   0  0  0  0  0  0  0  0  0  0  0  0
    4.8350    0.7949   20.9427 H   0  0  0  0  0  0  0  0  0  0  0  0
    6.7603   -0.6655   22.1097 N   0  0  0  0  0  0  0  0  0  0  0  0
    7.7228   -1.2737   22.7892 C   0  0  0  0  0  0  0  0  0  0  0  0
    7.7490   -1.6956   24.2230 C   0  0  0  0  0  0  0  0  0  0  0  0
    8.7817   -1.2414   25.0378 C   0  0  0  0  0  0  0  0  0  0  0  0
    8.8768   -1.6635   26.3812 C   0  0  0  0  0  0  0  0  0  0  0  0
    9.8697   -1.1752   27.1420 F   0  0  0  0  0  0  0  0  0  0  0  0
    7.9864   -2.5415   26.9365 C   0  0  0  0  0  0  0  0  0  0  0  0
    6.8479   -2.9254   26.1867 C   0  0  0  0  0  0  0  0  0  0  0  0
    5.8025   -3.6865   26.7748 C   0  0  0  0  0  0  0  0  0  0  0  0
    4.7545   -4.0967   25.9926 C   0  0  0  0  0  0  0  0  0  0  0  0
    4.6422   -3.8172   24.6700 N   0  0  0  0  0  0  0  0  0  0  0  0
    5.5859   -3.0716   24.1206 C   0  0  0  0  0  0  0  0  0  0  0  0
    6.7274   -2.5459   24.8125 C   0  0  0  0  0  0  0  0  0  0  0  0
    5.4898   -2.8493   23.0605 H   0  0  0  0  0  0  0  0  0  0  0  0
    3.9505   -4.6964   26.4116 H   0  0  0  0  0  0  0  0  0  0  0  0
    5.8447   -3.9276   27.8326 H   0  0  0  0  0  0  0  0  0  0  0  0
    8.1576   -2.9496   27.9199 H   0  0  0  0  0  0  0  0  0  0  0  0
    9.5426   -0.5505   24.6812 H   0  0  0  0  0  0  0  0  0  0  0  0
    9.9746   -2.9294   21.2333 H   0  0  0  0  0  0  0  0  0  0  0  0
    9.9484   -2.8723   22.9968 H   0  0  0  0  0  0  0  0  0  0  0  0
   11.2332   -0.6602   22.8475 H   0  0  0  0  0  0  0  0  0  0  0  0
   11.4084   -0.9713   21.0965 H   0  0  0  0  0  0  0  0  0  0  0  0
  1  2  1  0
  2  3  1  0
  3  4  1  0
  4  5  1  0
  5  6  2  0
  6  7  1  0
  7  8  2  0
  8  9  1  0
  9 10  2  0
 10 11  1  0
 11 12  2  0
 12 13  1  0
 10 14  1  0
  9 15  1  0
  8 16  1  0
  6 17  1  0
 17 18  2  0
 18 19  1  0
 19 20  2  0
 20 21  1  0
 21 22  1  0
 21 23  2  0
 23 24  1  0
 24 25  2  0
 25 26  1  0
 26 27  2  0
 27 28  1  0
 28 29  2  0
 28 30  1  0
 26 31  1  0
 25 32  1  0
 23 33  1  0
 20 34  1  0
  3 35  1  0
  3 36  1  0
  2 37  1  0
  2 38  1  0
 18  4  1  0
 29 19  1  0
 12  7  1  0
 29 24  1  0
M  END
>  <cnnaffinity>  (1) 
-6.11389

>  <filename>  (1) 
FCCn1nc(-c2cccnc2)nc1-c1cc(F)cc2ccncc12

$$$$
