
     RDKit          3D

 39 42  0  0  0  0  0  0  0  0999 V2000
   11.3238   -0.5184   21.4091 F   0  0  0  0  0  0  0  0  0  0  0  0
   10.9480   -1.2992   22.4847 C   0  0  0  0  0  0  0  0  0  0  0  0
    9.8277   -2.2583   22.1083 C   0  0  0  0  0  0  0  0  0  0  0  0
    8.5335   -1.6550   21.8214 N   0  0  0  0  0  0  0  0  0  0  0  0
    8.3549   -1.0600   20.6173 N   0  0  0  0  0  0  0  0  0  0  0  0
    7.0900   -0.6826   20.6548 C   0  0  0  0  0  0  0  0  0  0  0  0
    6.4513    0.0804   19.5883 C   0  0  0  0  0  0  0  0  0  0  0  0
    5.2508    0.7835   19.7729 C   0  0  0  0  0  0  0  0  0  0  0  0
    4.7260    1.4828   18.6898 C   0  0  0  0  0  0  0  0  0  0  0  0
    5.4133    1.4465   17.4697 C   0  0  0  0  0  0  0  0  0  0  0  0
    6.5700    0.7882   17.2896 N   0  0  0  0  0  0  0  0  0  0  0  0
    7.0821    0.1380   18.3384 C   0  0  0  0  0  0  0  0  0  0  0  0
    8.0437   -0.3540   18.1856 H   0  0  0  0  0  0  0  0  0  0  0  0
    5.0229    1.9867   16.6100 H   0  0  0  0  0  0  0  0  0  0  0  0
    3.8214    2.0742   18.7902 H   0  0  0  0  0  0  0  0  0  0  0  0
    4.7659    0.7854   20.7509 H   0  0  0  0  0  0  0  0  0  0  0  0
    6.4374   -1.0365   21.7901 N   0  0  0  0  0  0  0  0  0  0  0  0
    7.3639   -1.6337   22.5102 C   0  0  0  0  0  0  0  0  0  0  0  0
    7.2134   -2.0668   23.9495 C   0  0  0  0  0  0  0  0  0  0  0  0
    8.1504   -1.3153   24.8608 C   0  0  0  0  0  0  0  0  0  0  0  0
    9.1903   -1.7805   25.6046 C   0  0  0  0  0  0  0  0  0  0  0  0
    9.9597   -0.7260   26.0570 N   0  0  0  0  0  0  0  0  0  0  0  0
    9.4203    0.4456   25.5761 C   0  0  0  0  0  0  0  0  0  0  0  0
    8.2260    0.1152   24.9063 C   0  0  0  0  0  0  0  0  0  0  0  0
    7.4028    1.1505   24.4230 C   0  0  0  0  0  0  0  0  0  0  0  0
    7.9023    2.4418   24.5313 C   0  0  0  0  0  0  0  0  0  0  0  0
    6.9290    3.7801   23.9767 Cl  0  0  0  0  0  0  0  0  0  0  0  0
    9.1017    2.7530   25.0329 N   0  0  0  0  0  0  0  0  0  0  0  0
    9.8596    1.7808   25.5397 C   0  0  0  0  0  0  0  0  0  0  0  0
   10.8472    2.0564   25.8918 H   0  0  0  0  0  0  0  0  0  0  0  0
    6.4181    0.9528   24.0170 H   0  0  0  0  0  0  0  0  0  0  0  0
   10.8083   -0.8302   26.5898 H   0  0  0  0  0  0  0  0  0  0  0  0
    9.4390   -2.8014   25.8617 H   0  0  0  0  0  0  0  0  0  0  0  0
    6.1756   -1.8527   24.2354 H   0  0  0  0  0  0  0  0  0  0  0  0
    7.3730   -3.1496   24.0237 H   0  0  0  0  0  0  0  0  0  0  0  0
    9.7020   -2.9880   22.9156 H   0  0  0  0  0  0  0  0  0  0  0  0
   10.1231   -2.7825   21.1983 H   0  0  0  0  0  0  0  0  0  0  0  0
   10.6614   -0.6348   23.3120 H   0  0  0  0  0  0  0  0  0  0  0  0
   11.8198   -1.9024   22.7710 H   0  0  0  0  0  0  0  0  0  0  0  0
  1  2  1  0
  2  3  1  0
  3  4  1  0
  4  5  1  0
  5  6  2  0
  6  7  1  0
  7  8  2  0
  8  9  1  0
  9 10  2  0
 10 11  1  0
 11 12  2  0
 12 13  1  0
 10 14  1  0
  9 15  1  0
  8 16  1  0
  6 17  1  0
 17 18  2  0
 18 19  1  0
 19 20  1  0
 20 21  2  0
 21 22  1  0
 22 23  1  0
 23 24  2  0
 24 25  1  0
 25 26  2  0
 26 27  1  0
 26 28  1  0
 28 29  2  0
 29 30  1  0
 25 31  1  0
 22 32  1  0
 21 33  1  0
 19 34  1  0
 19 35  1  0
  3 36  1  0
  3 37  1  0
  2 38  1  0
  2 39  1  0
 18  4  1  0
 24 20  1  0
 12  7  1  0
 29 23  1  0
M  END
>  <cnnaffinity>  (1) 
-5.98488

>  <filename>  (1) 
FCCn1nc(-c2cccnc2)nc1Cc1c[nH]c2cnc(Cl)cc12

$$$$
