
     RDKit          3D

 41 44  0  0  0  0  0  0  0  0999 V2000
   12.2828   -2.2581   22.1226 F   0  0  0  0  0  0  0  0  0  0  0  0
   11.1487   -1.5022   22.3587 C   0  0  0  0  0  0  0  0  0  0  0  0
    9.9247   -2.3568   22.0754 C   0  0  0  0  0  0  0  0  0  0  0  0
    8.7124   -1.5595   21.9580 N   0  0  0  0  0  0  0  0  0  0  0  0
    8.4004   -1.1011   20.7251 N   0  0  0  0  0  0  0  0  0  0  0  0
    7.2824   -0.4275   20.9241 C   0  0  0  0  0  0  0  0  0  0  0  0
    6.5352    0.1722   19.8294 C   0  0  0  0  0  0  0  0  0  0  0  0
    5.2962    0.8109   19.9913 C   0  0  0  0  0  0  0  0  0  0  0  0
    4.7333    1.4161   18.8703 C   0  0  0  0  0  0  0  0  0  0  0  0
    5.4080    1.3403   17.6457 C   0  0  0  0  0  0  0  0  0  0  0  0
    6.5591    0.6752   17.4721 N   0  0  0  0  0  0  0  0  0  0  0  0
    7.0999    0.1006   18.5486 C   0  0  0  0  0  0  0  0  0  0  0  0
    8.0255   -0.4508   18.3968 H   0  0  0  0  0  0  0  0  0  0  0  0
    5.0055    1.8312   16.7630 H   0  0  0  0  0  0  0  0  0  0  0  0
    3.7992    1.9627   18.9332 H   0  0  0  0  0  0  0  0  0  0  0  0
    4.7876    0.8341   20.9581 H   0  0  0  0  0  0  0  0  0  0  0  0
    6.8791   -0.3899   22.2131 N   0  0  0  0  0  0  0  0  0  0  0  0
    7.7933   -1.1051   22.8415 C   0  0  0  0  0  0  0  0  0  0  0  0
    7.7088   -1.4656   24.2946 C   0  0  0  0  0  0  0  0  0  0  0  0
    7.2863   -2.9027   24.5319 C   0  0  0  0  0  0  0  0  0  0  0  0
    6.0288   -3.2988   24.1245 C   0  0  0  0  0  0  0  0  0  0  0  0
    5.5238   -4.5498   24.2888 N   0  0  0  0  0  0  0  0  0  0  0  0
    6.2938   -5.4520   24.8632 C   0  0  0  0  0  0  0  0  0  0  0  0
    7.6514   -5.2167   25.2584 C   0  0  0  0  0  0  0  0  0  0  0  0
    8.5358   -6.2415   25.7184 C   0  0  0  0  0  0  0  0  0  0  0  0
    9.8751   -5.9909   25.9005 C   0  0  0  0  0  0  0  0  0  0  0  0
   10.3795   -4.6783   25.7243 C   0  0  0  0  0  0  0  0  0  0  0  0
    9.5308   -3.6432   25.3900 C   0  0  0  0  0  0  0  0  0  0  0  0
    8.1596   -3.8907   25.0821 C   0  0  0  0  0  0  0  0  0  0  0  0
    9.9198   -2.6301   25.3268 H   0  0  0  0  0  0  0  0  0  0  0  0
   11.4402   -4.4982   25.8460 H   0  0  0  0  0  0  0  0  0  0  0  0
   10.5504   -6.7940   26.1905 H   0  0  0  0  0  0  0  0  0  0  0  0
    8.1526   -7.2370   25.8784 H   0  0  0  0  0  0  0  0  0  0  0  0
    5.8503   -6.4384   25.0129 H   0  0  0  0  0  0  0  0  0  0  0  0
    5.3851   -2.5827   23.6127 H   0  0  0  0  0  0  0  0  0  0  0  0
    8.6468   -1.2247   24.8017 H   0  0  0  0  0  0  0  0  0  0  0  0
    6.9474   -0.7875   24.6908 H   0  0  0  0  0  0  0  0  0  0  0  0
   10.0616   -2.8433   21.1104 H   0  0  0  0  0  0  0  0  0  0  0  0
    9.8072   -3.1305   22.8394 H   0  0  0  0  0  0  0  0  0  0  0  0
   11.1807   -1.1850   23.4044 H   0  0  0  0  0  0  0  0  0  0  0  0
   11.1571   -0.6150   21.7184 H   0  0  0  0  0  0  0  0  0  0  0  0
  1  2  1  0
  2  3  1  0
  3  4  1  0
  4  5  1  0
  5  6  2  0
  6  7  1  0
  7  8  2  0
  8  9  1  0
  9 10  2  0
 10 11  1  0
 11 12  2  0
 12 13  1  0
 10 14  1  0
  9 15  1  0
  8 16  1  0
  6 17  1  0
 17 18  2  0
 18 19  1  0
 19 20  1  0
 20 21  2  0
 21 22  1  0
 22 23  2  0
 23 24  1  0
 24 25  2  0
 25 26  1  0
 26 27  2  0
 27 28  1  0
 28 29  2  0
 28 30  1  0
 27 31  1  0
 26 32  1  0
 25 33  1  0
 23 34  1  0
 21 35  1  0
 19 36  1  0
 19 37  1  0
  3 38  1  0
  3 39  1  0
  2 40  1  0
  2 41  1  0
 18  4  1  0
 29 20  1  0
 12  7  1  0
 29 24  1  0
M  END
>  <cnnaffinity>  (1) 
-5.82058

>  <filename>  (1) 
FCCn1nc(-c2cccnc2)nc1Cc1cncc2ccccc12

$$$$
