
     RDKit          3D

 38 41  0  0  0  0  0  0  0  0999 V2000
    8.1420    4.8382   24.9220 F   0  0  0  0  0  0  0  0  0  0  0  0
    8.0137    3.9725   23.8501 C   0  0  0  0  0  0  0  0  0  0  0  0
    8.8371    2.7310   24.1484 C   0  0  0  0  0  0  0  0  0  0  0  0
    8.8515    1.8187   23.0150 N   0  0  0  0  0  0  0  0  0  0  0  0
    7.7595    1.0703   22.7303 N   0  0  0  0  0  0  0  0  0  0  0  0
    8.1732    0.3185   21.7278 C   0  0  0  0  0  0  0  0  0  0  0  0
    7.3089   -0.6754   21.0070 C   0  0  0  0  0  0  0  0  0  0  0  0
    6.5609   -0.0502   19.8365 C   0  0  0  0  0  0  0  0  0  0  0  0
    5.3606    0.6331   20.0600 C   0  0  0  0  0  0  0  0  0  0  0  0
    4.7667    1.3268   19.0051 C   0  0  0  0  0  0  0  0  0  0  0  0
    5.3993    1.3107   17.7579 C   0  0  0  0  0  0  0  0  0  0  0  0
    6.5387    0.6435   17.5118 N   0  0  0  0  0  0  0  0  0  0  0  0
    7.0933   -0.0155   18.5354 C   0  0  0  0  0  0  0  0  0  0  0  0
    8.0242   -0.5430   18.3167 H   0  0  0  0  0  0  0  0  0  0  0  0
    4.9758    1.8542   16.9168 H   0  0  0  0  0  0  0  0  0  0  0  0
    3.8471    1.8888   19.1402 H   0  0  0  0  0  0  0  0  0  0  0  0
    4.9228    0.6262   21.0607 H   0  0  0  0  0  0  0  0  0  0  0  0
    6.6109   -1.0999   21.7366 H   0  0  0  0  0  0  0  0  0  0  0  0
    7.9684   -1.4766   20.6573 H   0  0  0  0  0  0  0  0  0  0  0  0
    9.4570    0.5314   21.3461 N   0  0  0  0  0  0  0  0  0  0  0  0
    9.8586    1.4842   22.1706 C   0  0  0  0  0  0  0  0  0  0  0  0
   11.2199    2.0640   22.3067 C   0  0  0  0  0  0  0  0  0  0  0  0
   11.5008    3.4400   22.4086 C   0  0  0  0  0  0  0  0  0  0  0  0
   12.8145    3.8864   22.6612 C   0  0  0  0  0  0  0  0  0  0  0  0
   13.8661    3.0944   22.7749 N   0  0  0  0  0  0  0  0  0  0  0  0
   13.6102    1.7781   22.6200 C   0  0  0  0  0  0  0  0  0  0  0  0
   12.3362    1.2060   22.4153 C   0  0  0  0  0  0  0  0  0  0  0  0
   12.4470   -0.5246   22.3373 S   0  0  0  0  0  0  0  0  0  0  0  0
   14.1743   -0.4561   22.4347 C   0  0  0  0  0  0  0  0  0  0  0  0
   14.6428    0.8046   22.5569 C   0  0  0  0  0  0  0  0  0  0  0  0
   15.6289    1.2072   22.4263 H   0  0  0  0  0  0  0  0  0  0  0  0
   14.7218   -1.3863   22.3748 H   0  0  0  0  0  0  0  0  0  0  0  0
   13.0120    4.9456   22.7840 H   0  0  0  0  0  0  0  0  0  0  0  0
   10.7347    4.2022   22.3079 H   0  0  0  0  0  0  0  0  0  0  0  0
    8.4362    2.2218   25.0292 H   0  0  0  0  0  0  0  0  0  0  0  0
    9.8601    3.0296   24.3863 H   0  0  0  0  0  0  0  0  0  0  0  0
    8.3831    4.4725   22.9475 H   0  0  0  0  0  0  0  0  0  0  0  0
    6.9587    3.7244   23.7095 H   0  0  0  0  0  0  0  0  0  0  0  0
  1  2  1  0
  2  3  1  0
  3  4  1  0
  4  5  1  0
  5  6  2  0
  6  7  1  0
  7  8  1  0
  8  9  2  0
  9 10  1  0
 10 11  2  0
 11 12  1  0
 12 13  2  0
 13 14  1  0
 11 15  1  0
 10 16  1  0
  9 17  1  0
  7 18  1  0
  7 19  1  0
  6 20  1  0
 20 21  2  0
 21 22  1  0
 22 23  2  0
 23 24  1  0
 24 25  2  0
 25 26  1  0
 26 27  2  0
 27 28  1  0
 28 29  1  0
 29 30  2  0
 30 31  1  0
 29 32  1  0
 24 33  1  0
 23 34  1  0
  3 35  1  0
  3 36  1  0
  2 37  1  0
  2 38  1  0
 21  4  1  0
 27 22  1  0
 13  8  1  0
 30 26  1  0
M  END
>  <cnnaffinity>  (1) 
-6.60242

>  <filename>  (1) 
FCCn1nc(Cc2cccnc2)nc1-c1ccnc2ccsc12

$$$$
