
     RDKit          3D

 39 42  0  0  0  0  0  0  0  0999 V2000
    8.4173    2.2604   26.8449 F   0  0  0  0  0  0  0  0  0  0  0  0
    8.9166    1.4128   25.8670 C   0  0  0  0  0  0  0  0  0  0  0  0
    8.6731    2.1097   24.5287 C   0  0  0  0  0  0  0  0  0  0  0  0
    8.8728    1.2599   23.3537 N   0  0  0  0  0  0  0  0  0  0  0  0
    7.7898    0.6250   22.8351 N   0  0  0  0  0  0  0  0  0  0  0  0
    8.2805   -0.0020   21.7846 C   0  0  0  0  0  0  0  0  0  0  0  0
    7.4641   -0.8287   20.8316 C   0  0  0  0  0  0  0  0  0  0  0  0
    6.7528   -0.0602   19.7159 C   0  0  0  0  0  0  0  0  0  0  0  0
    5.5935    0.6780   19.9917 C   0  0  0  0  0  0  0  0  0  0  0  0
    4.9459    1.3321   18.9385 C   0  0  0  0  0  0  0  0  0  0  0  0
    5.4883    1.2476   17.6536 C   0  0  0  0  0  0  0  0  0  0  0  0
    6.6133    0.5731   17.3718 N   0  0  0  0  0  0  0  0  0  0  0  0
    7.2189   -0.0539   18.3875 C   0  0  0  0  0  0  0  0  0  0  0  0
    8.1416   -0.5791   18.1390 H   0  0  0  0  0  0  0  0  0  0  0  0
    5.0108    1.7445   16.8094 H   0  0  0  0  0  0  0  0  0  0  0  0
    4.0327    1.8955   19.0931 H   0  0  0  0  0  0  0  0  0  0  0  0
    5.2116    0.7266   21.0142 H   0  0  0  0  0  0  0  0  0  0  0  0
    8.1445   -1.5734   20.3983 H   0  0  0  0  0  0  0  0  0  0  0  0
    6.7235   -1.3524   21.4462 H   0  0  0  0  0  0  0  0  0  0  0  0
    9.6126    0.1490   21.6098 N   0  0  0  0  0  0  0  0  0  0  0  0
    9.9675    0.9555   22.5999 C   0  0  0  0  0  0  0  0  0  0  0  0
   11.3136    1.4998   22.7935 C   0  0  0  0  0  0  0  0  0  0  0  0
   12.5192    0.8907   22.9499 C   0  0  0  0  0  0  0  0  0  0  0  0
   13.5493    1.7843   22.9598 O   0  0  0  0  0  0  0  0  0  0  0  0
   12.9963    3.0229   22.8048 C   0  0  0  0  0  0  0  0  0  0  0  0
   13.6507    4.2611   22.7489 C   0  0  0  0  0  0  0  0  0  0  0  0
   12.8433    5.4060   22.6683 C   0  0  0  0  0  0  0  0  0  0  0  0
   11.4437    5.2820   22.5588 C   0  0  0  0  0  0  0  0  0  0  0  0
   10.6847    6.3903   22.4793 F   0  0  0  0  0  0  0  0  0  0  0  0
   10.8009    4.0563   22.5638 C   0  0  0  0  0  0  0  0  0  0  0  0
   11.6057    2.9157   22.7116 C   0  0  0  0  0  0  0  0  0  0  0  0
    9.7255    4.0024   22.4027 H   0  0  0  0  0  0  0  0  0  0  0  0
   13.2702    6.4026   22.6903 H   0  0  0  0  0  0  0  0  0  0  0  0
   14.7353    4.3151   22.7530 H   0  0  0  0  0  0  0  0  0  0  0  0
   12.8335   -0.1396   23.1076 H   0  0  0  0  0  0  0  0  0  0  0  0
    7.6311    2.4400   24.4976 H   0  0  0  0  0  0  0  0  0  0  0  0
    9.3149    2.9946   24.4813 H   0  0  0  0  0  0  0  0  0  0  0  0
    9.9849    1.2595   26.0590 H   0  0  0  0  0  0  0  0  0  0  0  0
    8.3848    0.4594   25.9349 H   0  0  0  0  0  0  0  0  0  0  0  0
  1  2  1  0
  2  3  1  0
  3  4  1  0
  4  5  1  0
  5  6  2  0
  6  7  1  0
  7  8  1  0
  8  9  2  0
  9 10  1  0
 10 11  2  0
 11 12  1  0
 12 13  2  0
 13 14  1  0
 11 15  1  0
 10 16  1  0
  9 17  1  0
  7 18  1  0
  7 19  1  0
  6 20  1  0
 20 21  2  0
 21 22  1  0
 22 23  2  0
 23 24  1  0
 24 25  1  0
 25 26  2  0
 26 27  1  0
 27 28  2  0
 28 29  1  0
 28 30  1  0
 30 31  2  0
 30 32  1  0
 27 33  1  0
 26 34  1  0
 23 35  1  0
  3 36  1  0
  3 37  1  0
  2 38  1  0
  2 39  1  0
 21  4  1  0
 31 22  1  0
 13  8  1  0
 31 25  1  0
M  END
>  <cnnaffinity>  (1) 
-5.94538

>  <filename>  (1) 
FCCn1nc(Cc2cccnc2)nc1-c1coc2ccc(F)cc12

$$$$
