
     RDKit          3D

 38 41  0  0  0  0  0  0  0  0999 V2000
   11.5326   -0.7504   23.0320 F   0  0  0  0  0  0  0  0  0  0  0  0
   11.2300   -1.7319   22.0941 C   0  0  0  0  0  0  0  0  0  0  0  0
    9.9072   -2.3813   22.4502 C   0  0  0  0  0  0  0  0  0  0  0  0
    8.7408   -1.5405   22.1906 N   0  0  0  0  0  0  0  0  0  0  0  0
    8.4917   -1.1145   20.9297 N   0  0  0  0  0  0  0  0  0  0  0  0
    7.2859   -0.5746   21.0295 C   0  0  0  0  0  0  0  0  0  0  0  0
    6.5925    0.0737   19.9098 C   0  0  0  0  0  0  0  0  0  0  0  0
    5.3572    0.7293   20.0641 C   0  0  0  0  0  0  0  0  0  0  0  0
    4.7969    1.3566   18.9538 C   0  0  0  0  0  0  0  0  0  0  0  0
    5.4714    1.2887   17.7309 C   0  0  0  0  0  0  0  0  0  0  0  0
    6.6253    0.6295   17.5606 N   0  0  0  0  0  0  0  0  0  0  0  0
    7.1704    0.0374   18.6293 C   0  0  0  0  0  0  0  0  0  0  0  0
    8.1008   -0.4991   18.4422 H   0  0  0  0  0  0  0  0  0  0  0  0
    5.0616    1.7762   16.8474 H   0  0  0  0  0  0  0  0  0  0  0  0
    3.8553    1.8915   19.0172 H   0  0  0  0  0  0  0  0  0  0  0  0
    4.8432    0.7312   21.0288 H   0  0  0  0  0  0  0  0  0  0  0  0
    6.7303   -0.6752   22.2648 N   0  0  0  0  0  0  0  0  0  0  0  0
    7.6541   -1.2986   22.9647 C   0  0  0  0  0  0  0  0  0  0  0  0
    7.6299   -1.7246   24.4057 C   0  0  0  0  0  0  0  0  0  0  0  0
    8.7366   -1.0427   25.2597 C   0  0  0  0  0  0  0  0  0  0  0  0
    9.0299   -2.1339   26.6951 S   0  0  0  0  0  0  0  0  0  0  0  0
    8.5381   -3.5496   25.7800 C   0  0  0  0  0  0  0  0  0  0  0  0
    8.8760   -4.8711   26.0840 C   0  0  0  0  0  0  0  0  0  0  0  0
    8.4304   -5.8927   25.2413 C   0  0  0  0  0  0  0  0  0  0  0  0
    7.6800   -5.5875   24.0935 C   0  0  0  0  0  0  0  0  0  0  0  0
    7.3829   -4.2535   23.7851 C   0  0  0  0  0  0  0  0  0  0  0  0
    7.8117   -3.2256   24.6306 C   0  0  0  0  0  0  0  0  0  0  0  0
    6.8286   -3.9952   22.8867 H   0  0  0  0  0  0  0  0  0  0  0  0
    7.3228   -6.3827   23.4454 H   0  0  0  0  0  0  0  0  0  0  0  0
    8.6819   -6.9189   25.4890 H   0  0  0  0  0  0  0  0  0  0  0  0
    9.5009   -5.0833   26.9475 H   0  0  0  0  0  0  0  0  0  0  0  0
    9.6775   -0.9244   24.7040 H   0  0  0  0  0  0  0  0  0  0  0  0
    8.4339   -0.0605   25.6285 H   0  0  0  0  0  0  0  0  0  0  0  0
    6.6509   -1.4382   24.8040 H   0  0  0  0  0  0  0  0  0  0  0  0
    9.9520   -2.6527   23.5051 H   0  0  0  0  0  0  0  0  0  0  0  0
    9.7521   -3.3162   21.9161 H   0  0  0  0  0  0  0  0  0  0  0  0
   12.0200   -2.4900   22.1374 H   0  0  0  0  0  0  0  0  0  0  0  0
   11.2104   -1.2743   21.1019 H   0  0  0  0  0  0  0  0  0  0  0  0
  1  2  1  0
  2  3  1  0
  3  4  1  0
  4  5  1  0
  5  6  2  0
  6  7  1  0
  7  8  2  0
  8  9  1  0
  9 10  2  0
 10 11  1  0
 11 12  2  0
 12 13  1  0
 10 14  1  0
  9 15  1  0
  8 16  1  0
  6 17  1  0
 17 18  2  0
 18 19  1  0
 19 20  1  0
 20 21  1  0
 21 22  1  0
 22 23  2  0
 23 24  1  0
 24 25  2  0
 25 26  1  0
 26 27  2  0
 26 28  1  0
 25 29  1  0
 24 30  1  0
 23 31  1  0
 20 32  1  0
 20 33  1  0
 19 34  1  0
  3 35  1  0
  3 36  1  0
  2 37  1  0
  2 38  1  0
 18  4  1  0
 27 19  1  0
 12  7  1  0
 27 22  1  0
M  END
>  <cnnaffinity>  (1) 
-5.87719

>  <filename>  (1) 
FCCn1nc(-c2cccnc2)nc1C1CSc2ccccc21

$$$$
