
     RDKit          3D

 35 38  0  0  0  0  0  0  0  0999 V2000
   12.4038   -1.8545   22.3073 F   0  0  0  0  0  0  0  0  0  0  0  0
   11.1631   -1.2846   22.5298 C   0  0  0  0  0  0  0  0  0  0  0  0
   10.1089   -2.3310   22.1933 C   0  0  0  0  0  0  0  0  0  0  0  0
    8.7848   -1.7593   21.9849 N   0  0  0  0  0  0  0  0  0  0  0  0
    8.4847   -1.3179   20.7408 N   0  0  0  0  0  0  0  0  0  0  0  0
    7.3617   -0.6558   20.9283 C   0  0  0  0  0  0  0  0  0  0  0  0
    6.6442    0.0149   19.8598 C   0  0  0  0  0  0  0  0  0  0  0  0
    5.4291    0.6597   20.1162 C   0  0  0  0  0  0  0  0  0  0  0  0
    4.8037    1.3116   19.0634 C   0  0  0  0  0  0  0  0  0  0  0  0
    5.4160    1.2929   17.8051 C   0  0  0  0  0  0  0  0  0  0  0  0
    6.5764    0.6672   17.5506 N   0  0  0  0  0  0  0  0  0  0  0  0
    7.1812    0.0438   18.5658 C   0  0  0  0  0  0  0  0  0  0  0  0
    8.1331   -0.4431   18.3439 H   0  0  0  0  0  0  0  0  0  0  0  0
    4.9498    1.8064   16.9696 H   0  0  0  0  0  0  0  0  0  0  0  0
    3.8730    1.8429   19.2178 H   0  0  0  0  0  0  0  0  0  0  0  0
    5.0230    0.6440   21.1295 H   0  0  0  0  0  0  0  0  0  0  0  0
    6.9346   -0.6142   22.2120 N   0  0  0  0  0  0  0  0  0  0  0  0
    7.8337   -1.3342   22.8584 C   0  0  0  0  0  0  0  0  0  0  0  0
    7.8055   -1.7333   24.2700 C   0  0  0  0  0  0  0  0  0  0  0  0
    7.6592   -0.8774   25.3340 C   0  0  0  0  0  0  0  0  0  0  0  0
    7.6853   -1.5915   26.5036 N   0  0  0  0  0  0  0  0  0  0  0  0
    7.8114   -2.9141   26.2407 C   0  0  0  0  0  0  0  0  0  0  0  0
    7.8150   -3.8703   27.1695 N   0  0  0  0  0  0  0  0  0  0  0  0
    7.8972   -5.0874   26.6487 C   0  0  0  0  0  0  0  0  0  0  0  0
    7.9843   -5.4207   25.3463 N   0  0  0  0  0  0  0  0  0  0  0  0
    7.9924   -4.4221   24.4651 C   0  0  0  0  0  0  0  0  0  0  0  0
    7.9016   -3.0773   24.8473 C   0  0  0  0  0  0  0  0  0  0  0  0
    8.0638   -4.7257   23.4142 H   0  0  0  0  0  0  0  0  0  0  0  0
    7.8796   -5.9101   27.3588 H   0  0  0  0  0  0  0  0  0  0  0  0
    7.5648   -1.2809   27.4478 H   0  0  0  0  0  0  0  0  0  0  0  0
    7.5607    0.2060   25.3235 H   0  0  0  0  0  0  0  0  0  0  0  0
   10.3660   -2.7778   21.2376 H   0  0  0  0  0  0  0  0  0  0  0  0
   10.0756   -3.1151   22.9540 H   0  0  0  0  0  0  0  0  0  0  0  0
   11.1039   -0.9426   23.5682 H   0  0  0  0  0  0  0  0  0  0  0  0
   11.0533   -0.4248   21.8663 H   0  0  0  0  0  0  0  0  0  0  0  0
  1  2  1  0
  2  3  1  0
  3  4  1  0
  4  5  1  0
  5  6  2  0
  6  7  1  0
  7  8  2  0
  8  9  1  0
  9 10  2  0
 10 11  1  0
 11 12  2  0
 12 13  1  0
 10 14  1  0
  9 15  1  0
  8 16  1  0
  6 17  1  0
 17 18  2  0
 18 19  1  0
 19 20  2  0
 20 21  1  0
 21 22  1  0
 22 23  2  0
 23 24  1  0
 24 25  2  0
 25 26  1  0
 26 27  2  0
 26 28  1  0
 24 29  1  0
 21 30  1  0
 20 31  1  0
  3 32  1  0
  3 33  1  0
  2 34  1  0
  2 35  1  0
 18  4  1  0
 27 19  1  0
 12  7  1  0
 27 22  1  0
M  END
>  <cnnaffinity>  (1) 
-5.84277

>  <filename>  (1) 
FCCn1nc(-c2cccnc2)nc1-c1c[nH]c2ncncc12

$$$$
