
     RDKit          3D

 41 44  0  0  0  0  0  0  0  0999 V2000
   12.2828   -2.4651   22.5197 F   0  0  0  0  0  0  0  0  0  0  0  0
   11.1737   -1.6371   22.5545 C   0  0  0  0  0  0  0  0  0  0  0  0
    9.9989   -2.5311   22.1930 C   0  0  0  0  0  0  0  0  0  0  0  0
    8.7545   -1.8317   22.0011 N   0  0  0  0  0  0  0  0  0  0  0  0
    8.5050   -1.3131   20.7834 N   0  0  0  0  0  0  0  0  0  0  0  0
    7.3602   -0.6821   20.9607 C   0  0  0  0  0  0  0  0  0  0  0  0
    6.6592    0.0157   19.8985 C   0  0  0  0  0  0  0  0  0  0  0  0
    5.4395    0.6565   20.1548 C   0  0  0  0  0  0  0  0  0  0  0  0
    4.8118    1.3035   19.1002 C   0  0  0  0  0  0  0  0  0  0  0  0
    5.4180    1.2809   17.8386 C   0  0  0  0  0  0  0  0  0  0  0  0
    6.5802    0.6590   17.5848 N   0  0  0  0  0  0  0  0  0  0  0  0
    7.1894    0.0453   18.6004 C   0  0  0  0  0  0  0  0  0  0  0  0
    8.1388   -0.4388   18.3683 H   0  0  0  0  0  0  0  0  0  0  0  0
    4.9497    1.7847   16.9982 H   0  0  0  0  0  0  0  0  0  0  0  0
    3.8773    1.8361   19.2456 H   0  0  0  0  0  0  0  0  0  0  0  0
    5.0124    0.6395   21.1599 H   0  0  0  0  0  0  0  0  0  0  0  0
    6.8770   -0.7469   22.2225 N   0  0  0  0  0  0  0  0  0  0  0  0
    7.7655   -1.4922   22.8559 C   0  0  0  0  0  0  0  0  0  0  0  0
    7.7651   -1.9310   24.3016 C   0  0  0  0  0  0  0  0  0  0  0  0
    6.9937   -0.9361   25.1738 C   0  0  0  0  0  0  0  0  0  0  0  0
    6.9554   -1.4238   26.6166 C   0  0  0  0  0  0  0  0  0  0  0  0
    6.5082   -2.8712   26.6679 C   0  0  0  0  0  0  0  0  0  0  0  0
    5.8809   -3.4154   27.7955 C   0  0  0  0  0  0  0  0  0  0  0  0
    5.5620   -4.7735   27.8764 C   0  0  0  0  0  0  0  0  0  0  0  0
    5.7887   -5.5724   26.7530 C   0  0  0  0  0  0  0  0  0  0  0  0
    5.4335   -6.8673   26.7902 F   0  0  0  0  0  0  0  0  0  0  0  0
    6.3445   -5.0672   25.5882 C   0  0  0  0  0  0  0  0  0  0  0  0
    6.7207   -3.7179   25.5579 C   0  0  0  0  0  0  0  0  0  0  0  0
    7.2479   -3.2755   24.3754 O   0  0  0  0  0  0  0  0  0  0  0  0
    6.4665   -5.6963   24.7162 H   0  0  0  0  0  0  0  0  0  0  0  0
    5.1559   -5.2202   28.7757 H   0  0  0  0  0  0  0  0  0  0  0  0
    5.6294   -2.7477   28.6218 H   0  0  0  0  0  0  0  0  0  0  0  0
    7.9525   -1.3258   27.0771 H   0  0  0  0  0  0  0  0  0  0  0  0
    6.2845   -0.7995   27.2186 H   0  0  0  0  0  0  0  0  0  0  0  0
    5.9829   -0.8319   24.7615 H   0  0  0  0  0  0  0  0  0  0  0  0
    7.4932    0.0346   25.0949 H   0  0  0  0  0  0  0  0  0  0  0  0
    8.8022   -1.9779   24.6649 H   0  0  0  0  0  0  0  0  0  0  0  0
    9.8927   -3.3334   22.9329 H   0  0  0  0  0  0  0  0  0  0  0  0
   10.2145   -2.9534   21.2179 H   0  0  0  0  0  0  0  0  0  0  0  0
   11.1103   -1.1933   23.5571 H   0  0  0  0  0  0  0  0  0  0  0  0
   11.2947   -0.8349   21.8189 H   0  0  0  0  0  0  0  0  0  0  0  0
  1  2  1  0
  2  3  1  0
  3  4  1  0
  4  5  1  0
  5  6  2  0
  6  7  1  0
  7  8  2  0
  8  9  1  0
  9 10  2  0
 10 11  1  0
 11 12  2  0
 12 13  1  0
 10 14  1  0
  9 15  1  0
  8 16  1  0
  6 17  1  0
 17 18  2  0
 18 19  1  0
 19 20  1  0
 20 21  1  0
 21 22  1  0
 22 23  2  0
 23 24  1  0
 24 25  2  0
 25 26  1  0
 25 27  1  0
 27 28  2  0
 28 29  1  0
 27 30  1  0
 24 31  1  0
 23 32  1  0
 21 33  1  0
 21 34  1  0
 20 35  1  0
 20 36  1  0
 19 37  1  0
  3 38  1  0
  3 39  1  0
  2 40  1  0
  2 41  1  0
 18  4  1  0
 29 19  1  0
 12  7  1  0
 28 22  1  0
M  END
>  <cnnaffinity>  (1) 
-5.96408

>  <filename>  (1) 
FCCn1nc(-c2cccnc2)nc1C1CCc2ccc(F)cc2O1

$$$$
