
     RDKit          3D

 36 39  0  0  0  0  0  0  0  0999 V2000
   11.4010   -0.8306   21.2383 F   0  0  0  0  0  0  0  0  0  0  0  0
   11.0847   -1.5958   22.3147 C   0  0  0  0  0  0  0  0  0  0  0  0
    9.7891   -2.3703   22.0657 C   0  0  0  0  0  0  0  0  0  0  0  0
    8.6235   -1.5233   21.7616 N   0  0  0  0  0  0  0  0  0  0  0  0
    8.3997   -1.0274   20.5279 N   0  0  0  0  0  0  0  0  0  0  0  0
    7.1409   -0.6644   20.5960 C   0  0  0  0  0  0  0  0  0  0  0  0
    6.4944    0.0422   19.5313 C   0  0  0  0  0  0  0  0  0  0  0  0
    5.2711    0.6953   19.7077 C   0  0  0  0  0  0  0  0  0  0  0  0
    4.7816    1.4117   18.6260 C   0  0  0  0  0  0  0  0  0  0  0  0
    5.5053    1.4524   17.4308 C   0  0  0  0  0  0  0  0  0  0  0  0
    6.6736    0.8049   17.2717 N   0  0  0  0  0  0  0  0  0  0  0  0
    7.1564    0.1156   18.3113 C   0  0  0  0  0  0  0  0  0  0  0  0
    8.1017   -0.4071   18.1865 H   0  0  0  0  0  0  0  0  0  0  0  0
    5.1129    2.0395   16.6089 H   0  0  0  0  0  0  0  0  0  0  0  0
    3.8541    1.9643   18.7044 H   0  0  0  0  0  0  0  0  0  0  0  0
    4.7358    0.6728   20.6596 H   0  0  0  0  0  0  0  0  0  0  0  0
    6.5001   -0.9399   21.7849 N   0  0  0  0  0  0  0  0  0  0  0  0
    7.4505   -1.4572   22.4992 C   0  0  0  0  0  0  0  0  0  0  0  0
    7.3686   -1.8064   23.9035 C   0  0  0  0  0  0  0  0  0  0  0  0
    6.5110   -2.5705   24.6492 C   0  0  0  0  0  0  0  0  0  0  0  0
    6.8907   -2.5480   25.9943 N   0  0  0  0  0  0  0  0  0  0  0  0
    7.9436   -1.7622   26.0497 C   0  0  0  0  0  0  0  0  0  0  0  0
    8.8065   -1.3365   27.1416 C   0  0  0  0  0  0  0  0  0  0  0  0
    9.9392   -0.5856   26.8735 C   0  0  0  0  0  0  0  0  0  0  0  0
   10.2465   -0.1748   25.4938 C   0  0  0  0  0  0  0  0  0  0  0  0
   11.8824    0.6951   25.0095 Br  0  0  0  0  0  0  0  0  0  0  0  0
    9.3221   -0.4505   24.5138 C   0  0  0  0  0  0  0  0  0  0  0  0
    8.2440   -1.2726   24.8000 N   0  0  0  0  0  0  0  0  0  0  0  0
    9.4373   -0.0932   23.4976 H   0  0  0  0  0  0  0  0  0  0  0  0
   10.5752   -0.2799   27.6936 H   0  0  0  0  0  0  0  0  0  0  0  0
    8.5614   -1.6199   28.1431 H   0  0  0  0  0  0  0  0  0  0  0  0
    5.6616   -3.1245   24.2624 H   0  0  0  0  0  0  0  0  0  0  0  0
    9.9302   -3.0126   21.2000 H   0  0  0  0  0  0  0  0  0  0  0  0
    9.5830   -3.0130   22.9290 H   0  0  0  0  0  0  0  0  0  0  0  0
   10.9751   -0.9504   23.1880 H   0  0  0  0  0  0  0  0  0  0  0  0
   11.9010   -2.3032   22.5106 H   0  0  0  0  0  0  0  0  0  0  0  0
  1  2  1  0
  2  3  1  0
  3  4  1  0
  4  5  1  0
  5  6  2  0
  6  7  1  0
  7  8  2  0
  8  9  1  0
  9 10  2  0
 10 11  1  0
 11 12  2  0
 12 13  1  0
 10 14  1  0
  9 15  1  0
  8 16  1  0
  6 17  1  0
 17 18  2  0
 18 19  1  0
 19 20  2  0
 20 21  1  0
 21 22  2  0
 22 23  1  0
 23 24  2  0
 24 25  1  0
 25 26  1  0
 25 27  2  0
 27 28  1  0
 27 29  1  0
 24 30  1  0
 23 31  1  0
 20 32  1  0
  3 33  1  0
  3 34  1  0
  2 35  1  0
  2 36  1  0
 18  4  1  0
 28 19  1  0
 12  7  1  0
 28 22  1  0
M  END
>  <cnnaffinity>  (1) 
-5.47559

>  <filename>  (1) 
FCCn1nc(-c2cccnc2)nc1-c1cnc2ccc(Br)cn12

$$$$
