
     RDKit          3D

 38 41  0  0  0  0  0  0  0  0999 V2000
   11.2738   -0.1899   21.7209 F   0  0  0  0  0  0  0  0  0  0  0  0
   11.0166   -1.3737   22.3797 C   0  0  0  0  0  0  0  0  0  0  0  0
   10.0235   -2.2468   21.6263 C   0  0  0  0  0  0  0  0  0  0  0  0
    8.7139   -1.6667   21.3620 N   0  0  0  0  0  0  0  0  0  0  0  0
    8.4470   -1.1186   20.1526 N   0  0  0  0  0  0  0  0  0  0  0  0
    7.2311   -0.6283   20.3068 C   0  0  0  0  0  0  0  0  0  0  0  0
    6.5098    0.1276   19.2826 C   0  0  0  0  0  0  0  0  0  0  0  0
    5.3160    0.8142   19.5626 C   0  0  0  0  0  0  0  0  0  0  0  0
    4.7185    1.5365   18.5344 C   0  0  0  0  0  0  0  0  0  0  0  0
    5.3266    1.5532   17.2741 C   0  0  0  0  0  0  0  0  0  0  0  0
    6.4560    0.8872   16.9927 N   0  0  0  0  0  0  0  0  0  0  0  0
    7.0330    0.2013   17.9837 C   0  0  0  0  0  0  0  0  0  0  0  0
    7.9612   -0.3091   17.7337 H   0  0  0  0  0  0  0  0  0  0  0  0
    4.8906    2.1302   16.4616 H   0  0  0  0  0  0  0  0  0  0  0  0
    3.8042    2.0967   18.6960 H   0  0  0  0  0  0  0  0  0  0  0  0
    4.8760    0.7890   20.5629 H   0  0  0  0  0  0  0  0  0  0  0  0
    6.6986   -0.8334   21.5346 N   0  0  0  0  0  0  0  0  0  0  0  0
    7.6482   -1.4738   22.1814 C   0  0  0  0  0  0  0  0  0  0  0  0
    7.6925   -1.7464   23.6327 C   0  0  0  0  0  0  0  0  0  0  0  0
    7.8531   -0.6795   24.5009 C   0  0  0  0  0  0  0  0  0  0  0  0
    8.1250   -0.8700   25.8688 C   0  0  0  0  0  0  0  0  0  0  0  0
    8.1504   -2.1483   26.3624 C   0  0  0  0  0  0  0  0  0  0  0  0
    8.4155   -2.3298   27.6592 F   0  0  0  0  0  0  0  0  0  0  0  0
    7.8717   -3.2897   25.5637 C   0  0  0  0  0  0  0  0  0  0  0  0
    7.7740   -4.6268   26.0580 C   0  0  0  0  0  0  0  0  0  0  0  0
    7.4542   -5.6438   25.1951 C   0  0  0  0  0  0  0  0  0  0  0  0
    7.2425   -5.4750   23.8626 N   0  0  0  0  0  0  0  0  0  0  0  0
    7.3306   -4.2468   23.3864 C   0  0  0  0  0  0  0  0  0  0  0  0
    7.6406   -3.0841   24.1644 C   0  0  0  0  0  0  0  0  0  0  0  0
    7.1603   -4.1272   22.3163 H   0  0  0  0  0  0  0  0  0  0  0  0
    7.3480   -6.6548   25.5832 H   0  0  0  0  0  0  0  0  0  0  0  0
    7.9267   -4.8626   27.1061 H   0  0  0  0  0  0  0  0  0  0  0  0
    8.3159   -0.0524   26.5559 H   0  0  0  0  0  0  0  0  0  0  0  0
    7.7462    0.3328   24.1263 H   0  0  0  0  0  0  0  0  0  0  0  0
   10.4154   -2.5127   20.6488 H   0  0  0  0  0  0  0  0  0  0  0  0
    9.8927   -3.1590   22.2196 H   0  0  0  0  0  0  0  0  0  0  0  0
   10.6451   -1.1603   23.3911 H   0  0  0  0  0  0  0  0  0  0  0  0
   11.9637   -1.9208   22.4501 H   0  0  0  0  0  0  0  0  0  0  0  0
  1  2  1  0
  2  3  1  0
  3  4  1  0
  4  5  1  0
  5  6  2  0
  6  7  1  0
  7  8  2  0
  8  9  1  0
  9 10  2  0
 10 11  1  0
 11 12  2  0
 12 13  1  0
 10 14  1  0
  9 15  1  0
  8 16  1  0
  6 17  1  0
 17 18  2  0
 18 19  1  0
 19 20  2  0
 20 21  1  0
 21 22  2  0
 22 23  1  0
 22 24  1  0
 24 25  2  0
 25 26  1  0
 26 27  2  0
 27 28  1  0
 28 29  2  0
 28 30  1  0
 26 31  1  0
 25 32  1  0
 21 33  1  0
 20 34  1  0
  3 35  1  0
  3 36  1  0
  2 37  1  0
  2 38  1  0
 18  4  1  0
 29 19  1  0
 12  7  1  0
 29 24  1  0
M  END
>  <cnnaffinity>  (1) 
-6.1131

>  <filename>  (1) 
FCCn1nc(-c2cccnc2)nc1-c1ccc(F)c2ccncc12

$$$$
