
     RDKit          3D

 32 34  0  0  0  0  0  0  0  0999 V2000
    4.9094    1.7763   16.9998 H   0  0  0  0  0  0  0  0  0  0  0  0
    5.4035    1.2933   17.8379 C   0  0  0  0  0  0  0  0  0  0  0  0
    6.5669    0.6791   17.5674 N   0  0  0  0  0  0  0  0  0  0  0  0
    7.1746    0.0721   18.5942 C   0  0  0  0  0  0  0  0  0  0  0  0
    8.1165   -0.4295   18.3750 H   0  0  0  0  0  0  0  0  0  0  0  0
    6.6582    0.0114   19.9022 C   0  0  0  0  0  0  0  0  0  0  0  0
    7.3861   -0.7026   20.9744 C   0  0  0  0  0  0  0  0  0  0  0  0
    8.7700   -0.5418   21.1239 C   0  0  0  0  0  0  0  0  0  0  0  0
    9.3092    0.1250   20.4564 H   0  0  0  0  0  0  0  0  0  0  0  0
    9.4422   -1.2077   22.1477 C   0  0  0  0  0  0  0  0  0  0  0  0
   10.5097   -1.0728   22.2659 H   0  0  0  0  0  0  0  0  0  0  0  0
    8.7377   -2.0383   23.0191 C   0  0  0  0  0  0  0  0  0  0  0  0
    9.2672   -2.5647   23.8081 H   0  0  0  0  0  0  0  0  0  0  0  0
    7.3549   -2.2231   22.8686 C   0  0  0  0  0  0  0  0  0  0  0  0
    6.6074   -3.1132   23.7977 C   0  0  0  0  0  0  0  0  0  0  0  0
    6.7102   -2.8975   25.1831 C   0  0  0  0  0  0  0  0  0  0  0  0
    7.3263   -2.0765   25.5432 H   0  0  0  0  0  0  0  0  0  0  0  0
    6.0150   -3.6958   26.0869 C   0  0  0  0  0  0  0  0  0  0  0  0
    6.1051   -3.5085   27.1536 H   0  0  0  0  0  0  0  0  0  0  0  0
    5.2148   -4.7432   25.6202 C   0  0  0  0  0  0  0  0  0  0  0  0
    4.6788   -5.3690   26.3270 H   0  0  0  0  0  0  0  0  0  0  0  0
    5.1086   -4.9904   24.2522 C   0  0  0  0  0  0  0  0  0  0  0  0
    4.4897   -5.8085   23.8932 H   0  0  0  0  0  0  0  0  0  0  0  0
    5.7970   -4.1820   23.3310 C   0  0  0  0  0  0  0  0  0  0  0  0
    5.6938   -4.5046   21.9228 C   0  0  0  0  0  0  0  0  0  0  0  0
    5.6168   -4.7547   20.7927 N   0  0  0  0  0  0  0  0  0  0  0  0
    6.6854   -1.5465   21.8448 C   0  0  0  0  0  0  0  0  0  0  0  0
    5.6151   -1.6783   21.7170 H   0  0  0  0  0  0  0  0  0  0  0  0
    5.4367    0.6479   20.1553 C   0  0  0  0  0  0  0  0  0  0  0  0
    5.0129    0.6317   21.1611 H   0  0  0  0  0  0  0  0  0  0  0  0
    4.8038    1.3158   19.1066 C   0  0  0  0  0  0  0  0  0  0  0  0
    3.8660    1.8484   19.2640 H   0  0  0  0  0  0  0  0  0  0  0  0
  1  2  1  0
  2  3  2  0
  3  4  1  0
  4  5  1  0
  4  6  2  0
  6  7  1  0
  7  8  2  0
  8  9  1  0
  8 10  1  0
 10 11  1  0
 10 12  2  0
 12 13  1  0
 12 14  1  0
 14 15  1  0
 15 16  2  0
 16 17  1  0
 16 18  1  0
 18 19  1  0
 18 20  2  0
 20 21  1  0
 20 22  1  0
 22 23  1  0
 22 24  2  0
 24 25  1  0
 25 26  3  0
 14 27  2  0
 27 28  1  0
  6 29  1  0
 29 30  1  0
 29 31  2  0
 31 32  1  0
 31  2  1  0
 27  7  1  0
 24 15  1  0
M  END
>  <cnnaffinity>  (1) 
-4.94346

>  <filename>  (1) 
N#Cc1ccccc1-c1cccc(-c2cccnc2)c1

$$$$
