
     RDKit          3D

 29 31  0  0  0  0  0  0  0  0999 V2000
    4.9126    1.7799   16.9954 H   0  0  0  0  0  0  0  0  0  0  0  0
    5.4018    1.2950   17.8339 C   0  0  0  0  0  0  0  0  0  0  0  0
    6.5651    0.6805   17.5602 N   0  0  0  0  0  0  0  0  0  0  0  0
    7.1716    0.0748   18.5874 C   0  0  0  0  0  0  0  0  0  0  0  0
    8.1101   -0.4260   18.3647 H   0  0  0  0  0  0  0  0  0  0  0  0
    6.6604    0.0176   19.8955 C   0  0  0  0  0  0  0  0  0  0  0  0
    7.3911   -0.6904   20.9564 C   0  0  0  0  0  0  0  0  0  0  0  0
    8.7484   -0.7650   21.0627 C   0  0  0  0  0  0  0  0  0  0  0  0
    9.4635   -0.2957   20.4071 H   0  0  0  0  0  0  0  0  0  0  0  0
    9.2528   -1.6395   22.4523 S   0  0  0  0  0  0  0  0  0  0  0  0
    7.6044   -1.9674   22.9036 C   0  0  0  0  0  0  0  0  0  0  0  0
    7.2425   -2.7361   24.1199 C   0  0  0  0  0  0  0  0  0  0  0  0
    7.9677   -2.5276   25.3094 C   0  0  0  0  0  0  0  0  0  0  0  0
    8.7813   -1.8074   25.3004 H   0  0  0  0  0  0  0  0  0  0  0  0
    7.6446   -3.2048   26.4811 C   0  0  0  0  0  0  0  0  0  0  0  0
    8.2200   -3.0219   27.3857 H   0  0  0  0  0  0  0  0  0  0  0  0
    6.5854   -4.1192   26.4931 C   0  0  0  0  0  0  0  0  0  0  0  0
    6.3378   -4.6490   27.4101 H   0  0  0  0  0  0  0  0  0  0  0  0
    5.8568   -4.3593   25.3298 C   0  0  0  0  0  0  0  0  0  0  0  0
    5.0401   -5.0786   25.3391 H   0  0  0  0  0  0  0  0  0  0  0  0
    6.1749   -3.6786   24.1381 C   0  0  0  0  0  0  0  0  0  0  0  0
    5.4158   -4.0173   22.9506 C   0  0  0  0  0  0  0  0  0  0  0  0
    4.8246   -4.2859   21.9929 N   0  0  0  0  0  0  0  0  0  0  0  0
    6.7489   -1.3878   22.0139 C   0  0  0  0  0  0  0  0  0  0  0  0
    5.6734   -1.4638   22.0592 H   0  0  0  0  0  0  0  0  0  0  0  0
    5.4348    0.6512   20.1520 C   0  0  0  0  0  0  0  0  0  0  0  0
    5.0174    0.6337   21.1631 H   0  0  0  0  0  0  0  0  0  0  0  0
    4.8019    1.3146   19.1030 C   0  0  0  0  0  0  0  0  0  0  0  0
    3.8676    1.8469   19.2608 H   0  0  0  0  0  0  0  0  0  0  0  0
  1  2  1  0
  2  3  2  0
  3  4  1  0
  4  5  1  0
  4  6  2  0
  6  7  1  0
  7  8  2  0
  8  9  1  0
  8 10  1  0
 10 11  1  0
 11 12  1  0
 12 13  2  0
 13 14  1  0
 13 15  1  0
 15 16  1  0
 15 17  2  0
 17 18  1  0
 17 19  1  0
 19 20  1  0
 19 21  2  0
 21 22  1  0
 22 23  3  0
 11 24  2  0
 24 25  1  0
  6 26  1  0
 26 27  1  0
 26 28  2  0
 28 29  1  0
 28  2  1  0
 24  7  1  0
 21 12  1  0
M  END
>  <cnnaffinity>  (1) 
-5.19977

>  <filename>  (1) 
N#Cc1ccccc1-c1cc(-c2cccnc2)cs1

$$$$
