
     RDKit          3D

 31 33  0  0  0  0  0  0  0  0999 V2000
    4.9262    1.7861   16.9948 H   0  0  0  0  0  0  0  0  0  0  0  0
    5.3981    1.2942   17.8435 C   0  0  0  0  0  0  0  0  0  0  0  0
    6.5558    0.6704   17.5863 N   0  0  0  0  0  0  0  0  0  0  0  0
    7.1478    0.0389   18.6013 C   0  0  0  0  0  0  0  0  0  0  0  0
    8.1151   -0.4117   18.3883 H   0  0  0  0  0  0  0  0  0  0  0  0
    6.6089   -0.0333   19.9018 C   0  0  0  0  0  0  0  0  0  0  0  0
    7.3245   -0.7446   21.0004 C   0  0  0  0  0  0  0  0  0  0  0  0
    6.5808   -1.5061   21.7650 N   0  0  0  0  0  0  0  0  0  0  0  0
    7.1556   -2.1937   22.8079 N   0  0  0  0  0  0  0  0  0  0  0  0
    6.2881   -2.9847   23.6308 C   0  0  0  0  0  0  0  0  0  0  0  0
    6.3865   -2.8956   25.0315 C   0  0  0  0  0  0  0  0  0  0  0  0
    7.0959   -2.1780   25.4389 H   0  0  0  0  0  0  0  0  0  0  0  0
    5.5504   -3.6557   25.8491 C   0  0  0  0  0  0  0  0  0  0  0  0
    5.6179   -3.5582   26.9321 H   0  0  0  0  0  0  0  0  0  0  0  0
    4.6290   -4.5447   25.2796 C   0  0  0  0  0  0  0  0  0  0  0  0
    3.9876   -5.1449   25.9232 H   0  0  0  0  0  0  0  0  0  0  0  0
    4.5357   -4.6621   23.8921 C   0  0  0  0  0  0  0  0  0  0  0  0
    3.8375   -5.3721   23.4515 H   0  0  0  0  0  0  0  0  0  0  0  0
    5.3517   -3.8734   23.0520 C   0  0  0  0  0  0  0  0  0  0  0  0
    5.3945   -4.1037   21.6266 C   0  0  0  0  0  0  0  0  0  0  0  0
    5.5607   -4.2906   20.4958 N   0  0  0  0  0  0  0  0  0  0  0  0
    8.5106   -2.1000   23.0269 C   0  0  0  0  0  0  0  0  0  0  0  0
    8.8939   -2.7100   23.8474 H   0  0  0  0  0  0  0  0  0  0  0  0
    9.3354   -1.3590   22.2729 C   0  0  0  0  0  0  0  0  0  0  0  0
   10.3987   -1.2884   22.4515 H   0  0  0  0  0  0  0  0  0  0  0  0
    8.8023   -0.5605   21.1846 C   0  0  0  0  0  0  0  0  0  0  0  0
    9.5074    0.1711   20.4950 O   0  0  0  0  0  0  0  0  0  0  0  0
    5.4068    0.6320   20.1602 C   0  0  0  0  0  0  0  0  0  0  0  0
    4.9970    0.6052   21.1714 H   0  0  0  0  0  0  0  0  0  0  0  0
    4.7984    1.3176   19.1079 C   0  0  0  0  0  0  0  0  0  0  0  0
    3.8695    1.8549   19.2485 H   0  0  0  0  0  0  0  0  0  0  0  0
  1  2  1  0
  2  3  2  0
  3  4  1  0
  4  5  1  0
  4  6  2  0
  6  7  1  0
  7  8  2  0
  8  9  1  0
  9 10  1  0
 10 11  2  0
 11 12  1  0
 11 13  1  0
 13 14  1  0
 13 15  2  0
 15 16  1  0
 15 17  1  0
 17 18  1  0
 17 19  2  0
 19 20  1  0
 20 21  3  0
  9 22  1  0
 22 23  1  0
 22 24  2  0
 24 25  1  0
 24 26  1  0
 26 27  2  0
  6 28  1  0
 28 29  1  0
 28 30  2  0
 30 31  1  0
 30  2  1  0
 26  7  1  0
 19 10  1  0
M  END
>  <cnnaffinity>  (1) 
-5.1169

>  <filename>  (1) 
N#Cc1ccccc1-n1ccc(=O)c(-c2cccnc2)n1

$$$$
