
     RDKit          3D

 45 49  0  0  0  0  0  0  0  0999 V2000
   13.3646    5.9567   22.9950 N   0  0  0  0  0  0  0  0  0  0  0  0
   13.3644    5.9569   22.9945 C   0  0  0  0  0  0  0  0  0  0  0  0
   12.5651    4.1142   22.3318 C   0  0  0  0  0  0  0  0  0  0  0  0
   11.2539    3.6720   22.3115 C   0  0  0  0  0  0  0  0  0  0  0  0
   11.0818    2.2739   22.2079 C   0  0  0  0  0  0  0  0  0  0  0  0
    9.7840    1.6672   22.2052 N   0  0  0  0  0  0  0  0  0  0  0  0
    9.4749    0.6153   21.3823 N   0  0  0  0  0  0  0  0  0  0  0  0
    8.2373    0.3253   21.7280 C   0  0  0  0  0  0  0  0  0  0  0  0
    7.4173   -0.6845   20.9961 C   0  0  0  0  0  0  0  0  0  0  0  0
    6.6396   -0.0277   19.8721 C   0  0  0  0  0  0  0  0  0  0  0  0
    5.4377    0.6416   20.1329 C   0  0  0  0  0  0  0  0  0  0  0  0
    4.7941    1.3122   19.0915 C   0  0  0  0  0  0  0  0  0  0  0  0
    5.3886    1.2996   17.8251 C   0  0  0  0  0  0  0  0  0  0  0  0
    6.5506    0.6833   17.5558 N   0  0  0  0  0  0  0  0  0  0  0  0
    7.1560    0.0496   18.5687 C   0  0  0  0  0  0  0  0  0  0  0  0
    8.1108   -0.4232   18.3397 H   0  0  0  0  0  0  0  0  0  0  0  0
    4.9140    1.8027   16.9843 H   0  0  0  0  0  0  0  0  0  0  0  0
    3.8691    1.8490   19.2443 H   0  0  0  0  0  0  0  0  0  0  0  0
    5.0293    0.6388   21.1499 H   0  0  0  0  0  0  0  0  0  0  0  0
    8.0910   -1.4610   20.6200 H   0  0  0  0  0  0  0  0  0  0  0  0
    6.7355   -1.1438   21.7242 H   0  0  0  0  0  0  0  0  0  0  0  0
    7.7315    1.0647   22.7380 N   0  0  0  0  0  0  0  0  0  0  0  0
    8.7199    1.8830   23.0417 C   0  0  0  0  0  0  0  0  0  0  0  0
    8.7018    2.8446   24.1649 C   0  0  0  0  0  0  0  0  0  0  0  0
    8.0928    4.2217   23.9331 C   0  0  0  0  0  0  0  0  0  0  0  0
    7.5116    4.6196   22.6081 C   0  0  0  0  0  0  0  0  0  0  0  0
    6.6030    4.2882   23.7611 C   0  0  0  0  0  0  0  0  0  0  0  0
    6.1033    3.3209   23.7294 H   0  0  0  0  0  0  0  0  0  0  0  0
    6.0509    5.0826   24.2563 H   0  0  0  0  0  0  0  0  0  0  0  0
    7.5864    3.8834   21.8021 H   0  0  0  0  0  0  0  0  0  0  0  0
    7.5834    5.6595   22.2926 H   0  0  0  0  0  0  0  0  0  0  0  0
    8.5545    5.0225   24.5351 H   0  0  0  0  0  0  0  0  0  0  0  0
    9.8073    2.7993   25.1721 C   0  0  0  0  0  0  0  0  0  0  0  0
    8.4723    2.2645   25.5597 C   0  0  0  0  0  0  0  0  0  0  0  0
    8.3308    1.1863   25.6263 H   0  0  0  0  0  0  0  0  0  0  0  0
    7.8827    2.8511   26.2602 H   0  0  0  0  0  0  0  0  0  0  0  0
    9.9684    3.8037   25.5258 H   0  0  0  0  0  0  0  0  0  0  0  0
   10.6590    2.1262   25.0428 H   0  0  0  0  0  0  0  0  0  0  0  0
   12.1657    1.3539   22.1625 C   0  0  0  0  0  0  0  0  0  0  0  0
   13.4588    1.8733   22.3095 C   0  0  0  0  0  0  0  0  0  0  0  0
   13.6138    3.2546   22.2943 C   0  0  0  0  0  0  0  0  0  0  0  0
   14.5511    3.7719   22.1952 H   0  0  0  0  0  0  0  0  0  0  0  0
   14.3515    1.2120   22.3365 H   0  0  0  0  0  0  0  0  0  0  0  0
   12.0376    0.3104   21.9677 H   0  0  0  0  0  0  0  0  0  0  0  0
   10.3549    4.2626   22.4034 H   0  0  0  0  0  0  0  0  0  0  0  0
  1  2  3  0
  2  3  1  0
  3  4  2  0
  4  5  1  0
  5  6  1  0
  6  7  1  0
  7  8  2  0
  8  9  1  0
  9 10  1  0
 10 11  2  0
 11 12  1  0
 12 13  2  0
 13 14  1  0
 14 15  2  0
 15 16  1  0
 13 17  1  0
 12 18  1  0
 11 19  1  0
  9 20  1  0
  9 21  1  0
  8 22  1  0
 22 23  2  0
 23 24  1  0
 24 25  1  0
 25 26  1  0
 26 27  1  0
 27 28  1  0
 27 29  1  0
 26 30  1  0
 26 31  1  0
 25 32  1  0
 24 33  1  0
 33 34  1  0
 34 35  1  0
 34 36  1  0
 33 37  1  0
 33 38  1  0
  5 39  2  0
 39 40  1  0
 40 41  2  0
 41 42  1  0
 40 43  1  0
 39 44  1  0
  4 45  1  0
 41  3  1  0
 23  6  1  0
 34 24  1  0
 15 10  1  0
 27 25  1  0
M  END
>  <cnnaffinity>  (1) 
-5.57182

>  <filename>  (1) 
N#Cc1cccc(-n2nc(Cc3cccnc3)nc2C2(C3CC3)CC2)c1

$$$$
