
     RDKit          3D

 25 26  0  0  0  0  0  0  0  0999 V2000
    4.9613    1.7979   16.9941 H   0  0  0  0  0  0  0  0  0  0  0  0
    5.4188    1.2941   17.8434 C   0  0  0  0  0  0  0  0  0  0  0  0
    6.5787    0.6608   17.6013 N   0  0  0  0  0  0  0  0  0  0  0  0
    7.1575    0.0165   18.6178 C   0  0  0  0  0  0  0  0  0  0  0  0
    8.1164   -0.4538   18.3963 H   0  0  0  0  0  0  0  0  0  0  0  0
    6.6250   -0.0428   19.9251 C   0  0  0  0  0  0  0  0  0  0  0  0
    7.3615   -0.7565   21.0054 C   0  0  0  0  0  0  0  0  0  0  0  0
    8.4323   -1.9559   20.7751 S   0  0  0  0  0  0  0  0  0  0  0  0
    7.1867   -0.1362   22.6672 S   0  0  0  0  0  0  0  0  0  0  0  0
    8.5171    1.0663   22.5677 C   0  0  0  0  0  0  0  0  0  0  0  0
    8.2056    2.3698   22.1752 C   0  0  0  0  0  0  0  0  0  0  0  0
    7.1838    2.6207   21.9060 H   0  0  0  0  0  0  0  0  0  0  0  0
    9.2078    3.3342   22.0836 C   0  0  0  0  0  0  0  0  0  0  0  0
    8.9350    4.3591   21.8469 H   0  0  0  0  0  0  0  0  0  0  0  0
   10.5451    2.9799   22.2753 C   0  0  0  0  0  0  0  0  0  0  0  0
   11.3333    3.7085   22.1019 H   0  0  0  0  0  0  0  0  0  0  0  0
   10.8660    1.6611   22.6445 C   0  0  0  0  0  0  0  0  0  0  0  0
   12.2382    1.2953   22.9000 C   0  0  0  0  0  0  0  0  0  0  0  0
   13.3318    0.9934   23.1427 N   0  0  0  0  0  0  0  0  0  0  0  0
    9.8495    0.6982   22.7967 C   0  0  0  0  0  0  0  0  0  0  0  0
   10.1065   -0.3194   23.0858 H   0  0  0  0  0  0  0  0  0  0  0  0
    5.4175    0.6441   20.1564 C   0  0  0  0  0  0  0  0  0  0  0  0
    4.9739    0.6723   21.1505 H   0  0  0  0  0  0  0  0  0  0  0  0
    4.8011    1.3135   19.0974 C   0  0  0  0  0  0  0  0  0  0  0  0
    3.8641    1.8533   19.2316 H   0  0  0  0  0  0  0  0  0  0  0  0
  1  2  1  0
  2  3  2  0
  3  4  1  0
  4  5  1  0
  4  6  2  0
  6  7  1  0
  7  8  2  0
  7  9  1  0
  9 10  1  0
 10 11  2  0
 11 12  1  0
 11 13  1  0
 13 14  1  0
 13 15  2  0
 15 16  1  0
 15 17  1  0
 17 18  1  0
 18 19  3  0
 17 20  2  0
 20 21  1  0
  6 22  1  0
 22 23  1  0
 22 24  2  0
 24 25  1  0
 24  2  1  0
 20 10  1  0
M  END
>  <cnnaffinity>  (1) 
-4.97127

>  <filename>  (1) 
N#Cc1cccc(SC(=S)c2cccnc2)c1

$$$$
