
     RDKit          3D

 29 30  0  0  0  0  0  0  0  0999 V2000
   14.2483    4.0959   23.1042 N   0  0  0  0  0  0  0  0  0  0  0  0
   13.1335    3.8044   22.9347 C   0  0  0  0  0  0  0  0  0  0  0  0
   11.7329    3.5680   22.7419 C   0  0  0  0  0  0  0  0  0  0  0  0
   10.8623    4.6537   22.9211 C   0  0  0  0  0  0  0  0  0  0  0  0
    9.4892    4.4930   22.7477 C   0  0  0  0  0  0  0  0  0  0  0  0
    8.9750    3.2407   22.4106 C   0  0  0  0  0  0  0  0  0  0  0  0
    9.8233    2.1375   22.2496 C   0  0  0  0  0  0  0  0  0  0  0  0
    9.3083    0.8911   21.8907 N   0  0  0  0  0  0  0  0  0  0  0  0
    7.9762    0.4986   21.9615 C   0  0  0  0  0  0  0  0  0  0  0  0
    7.2303    1.1534   22.6918 O   0  0  0  0  0  0  0  0  0  0  0  0
    7.4331   -0.6146   21.0059 C   0  0  0  0  0  0  0  0  0  0  0  0
    6.6041   -1.4929   21.6470 F   0  0  0  0  0  0  0  0  0  0  0  0
    8.4760   -1.3454   20.4971 F   0  0  0  0  0  0  0  0  0  0  0  0
    6.6750    0.0269   19.8600 C   0  0  0  0  0  0  0  0  0  0  0  0
    5.4991    0.7454   20.1007 C   0  0  0  0  0  0  0  0  0  0  0  0
    4.8759    1.3423   19.0090 C   0  0  0  0  0  0  0  0  0  0  0  0
    5.4367    1.2259   17.7327 C   0  0  0  0  0  0  0  0  0  0  0  0
    6.5736    0.5444   17.5055 N   0  0  0  0  0  0  0  0  0  0  0  0
    7.1774   -0.0387   18.5513 C   0  0  0  0  0  0  0  0  0  0  0  0
    8.1091   -0.5705   18.3816 H   0  0  0  0  0  0  0  0  0  0  0  0
    4.9461    1.7167   16.8965 H   0  0  0  0  0  0  0  0  0  0  0  0
    3.9638    1.9131   19.1381 H   0  0  0  0  0  0  0  0  0  0  0  0
    5.0820    0.8449   21.1056 H   0  0  0  0  0  0  0  0  0  0  0  0
    9.9546    0.2358   21.4613 H   0  0  0  0  0  0  0  0  0  0  0  0
   11.2113    2.3007   22.4094 C   0  0  0  0  0  0  0  0  0  0  0  0
   12.3686    0.7751   22.2393 Br  0  0  0  0  0  0  0  0  0  0  0  0
    7.9077    3.1167   22.2827 H   0  0  0  0  0  0  0  0  0  0  0  0
    8.8258    5.3403   22.8534 H   0  0  0  0  0  0  0  0  0  0  0  0
   11.2568    5.6349   23.1761 H   0  0  0  0  0  0  0  0  0  0  0  0
  1  2  3  0
  2  3  1  0
  3  4  2  0
  4  5  1  0
  5  6  2  0
  6  7  1  0
  7  8  1  0
  8  9  1  0
  9 10  2  0
  9 11  1  0
 11 12  1  0
 11 13  1  0
 11 14  1  0
 14 15  2  0
 15 16  1  0
 16 17  2  0
 17 18  1  0
 18 19  2  0
 19 20  1  0
 17 21  1  0
 16 22  1  0
 15 23  1  0
  8 24  1  0
  7 25  2  0
 25 26  1  0
  6 27  1  0
  5 28  1  0
  4 29  1  0
 25  3  1  0
 19 14  1  0
M  END
>  <cnnaffinity>  (1) 
-5.3637

>  <filename>  (1) 
N#Cc1cccc(NC(=O)C(F)(F)c2cccnc2)c1Br

$$$$
