
     RDKit          3D

 30 32  0  0  0  0  0  0  0  0999 V2000
    4.9896    1.9902   16.7085 H   0  0  0  0  0  0  0  0  0  0  0  0
    5.4125    1.4119   17.5253 C   0  0  0  0  0  0  0  0  0  0  0  0
    6.5117    0.6931   17.2392 N   0  0  0  0  0  0  0  0  0  0  0  0
    7.0539   -0.0252   18.2302 C   0  0  0  0  0  0  0  0  0  0  0  0
    7.9411   -0.6121   18.0017 H   0  0  0  0  0  0  0  0  0  0  0  0
    6.5339   -0.0635   19.5319 C   0  0  0  0  0  0  0  0  0  0  0  0
    7.2271   -0.8080   20.4683 O   0  0  0  0  0  0  0  0  0  0  0  0
    6.5507   -1.7460   21.2008 C   0  0  0  0  0  0  0  0  0  0  0  0
    5.5719   -2.6716   20.7887 C   0  0  0  0  0  0  0  0  0  0  0  0
    5.1682   -2.8311   19.7972 H   0  0  0  0  0  0  0  0  0  0  0  0
    5.1718   -3.4120   21.8219 N   0  0  0  0  0  0  0  0  0  0  0  0
    5.9353   -3.0142   22.8508 N   0  0  0  0  0  0  0  0  0  0  0  0
    5.7501   -3.3777   23.7779 H   0  0  0  0  0  0  0  0  0  0  0  0
    6.8228   -2.0260   22.5278 C   0  0  0  0  0  0  0  0  0  0  0  0
    7.9873   -1.5834   23.3299 C   0  0  0  0  0  0  0  0  0  0  0  0
    8.2898   -0.2119   23.4044 C   0  0  0  0  0  0  0  0  0  0  0  0
    7.5672    0.5012   23.0164 H   0  0  0  0  0  0  0  0  0  0  0  0
    9.5014    0.2312   23.9368 C   0  0  0  0  0  0  0  0  0  0  0  0
    9.7342    1.2931   23.9634 H   0  0  0  0  0  0  0  0  0  0  0  0
   10.4468   -0.6957   24.3872 C   0  0  0  0  0  0  0  0  0  0  0  0
   11.4227   -0.3613   24.7317 H   0  0  0  0  0  0  0  0  0  0  0  0
   10.1310   -2.0518   24.4038 C   0  0  0  0  0  0  0  0  0  0  0  0
   10.8400   -2.7854   24.7754 H   0  0  0  0  0  0  0  0  0  0  0  0
    8.8834   -2.5006   23.9456 C   0  0  0  0  0  0  0  0  0  0  0  0
    8.6042   -3.9059   24.1343 C   0  0  0  0  0  0  0  0  0  0  0  0
    8.4241   -5.0330   24.3334 N   0  0  0  0  0  0  0  0  0  0  0  0
    5.3838    0.6787   19.8278 C   0  0  0  0  0  0  0  0  0  0  0  0
    4.9533    0.6717   20.8305 H   0  0  0  0  0  0  0  0  0  0  0  0
    4.8218    1.4356   18.7924 C   0  0  0  0  0  0  0  0  0  0  0  0
    3.9402    2.0448   18.9582 H   0  0  0  0  0  0  0  0  0  0  0  0
  1  2  1  0
  2  3  2  0
  3  4  1  0
  4  5  1  0
  4  6  2  0
  6  7  1  0
  7  8  1  0
  8  9  1  0
  9 10  1  0
  9 11  2  0
 11 12  1  0
 12 13  1  0
 12 14  1  0
 14 15  1  0
 15 16  2  0
 16 17  1  0
 16 18  1  0
 18 19  1  0
 18 20  2  0
 20 21  1  0
 20 22  1  0
 22 23  1  0
 22 24  2  0
 24 25  1  0
 25 26  3  0
  6 27  1  0
 27 28  1  0
 27 29  2  0
 29 30  1  0
 29  2  1  0
 14  8  2  0
 24 15  1  0
M  END
>  <cnnaffinity>  (1) 
-5.33743

>  <filename>  (1) 
N#Cc1ccccc1-c1[nH]ncc1Oc1cccnc1

$$$$
