
     RDKit          3D

 22 23  0  0  0  0  0  0  0  0999 V2000
    4.9149    1.8221   16.9622 H   0  0  0  0  0  0  0  0  0  0  0  0
    5.3789    1.3101   17.8056 C   0  0  0  0  0  0  0  0  0  0  0  0
    6.5365    0.6847   17.5400 N   0  0  0  0  0  0  0  0  0  0  0  0
    7.1428    0.0521   18.5517 C   0  0  0  0  0  0  0  0  0  0  0  0
    8.1065   -0.3953   18.3122 H   0  0  0  0  0  0  0  0  0  0  0  0
    6.6445   -0.0047   19.8717 C   0  0  0  0  0  0  0  0  0  0  0  0
    7.3749   -0.6816   20.9508 C   0  0  0  0  0  0  0  0  0  0  0  0
    7.6333   -0.3141   22.2545 C   0  0  0  0  0  0  0  0  0  0  0  0
    7.2774    0.9711   22.9210 C   0  0  0  0  0  0  0  0  0  0  0  0
    7.0919    1.7496   22.1713 H   0  0  0  0  0  0  0  0  0  0  0  0
    8.1116    1.2832   23.5533 H   0  0  0  0  0  0  0  0  0  0  0  0
    6.0774    0.8388   23.7558 C   0  0  0  0  0  0  0  0  0  0  0  0
    5.1356    0.7623   24.4184 N   0  0  0  0  0  0  0  0  0  0  0  0
    8.3470   -1.2868   22.8989 N   0  0  0  0  0  0  0  0  0  0  0  0
    8.5256   -2.2341   22.0162 C   0  0  0  0  0  0  0  0  0  0  0  0
    9.0377   -3.1765   22.1795 H   0  0  0  0  0  0  0  0  0  0  0  0
    7.9789   -1.9084   20.8126 N   0  0  0  0  0  0  0  0  0  0  0  0
    7.9007   -2.4909   19.9947 H   0  0  0  0  0  0  0  0  0  0  0  0
    5.4295    0.6549   20.1232 C   0  0  0  0  0  0  0  0  0  0  0  0
    5.0158    0.6362   21.1348 H   0  0  0  0  0  0  0  0  0  0  0  0
    4.7901    1.3211   19.0745 C   0  0  0  0  0  0  0  0  0  0  0  0
    3.8610    1.8531   19.2284 H   0  0  0  0  0  0  0  0  0  0  0  0
  1  2  1  0
  2  3  2  0
  3  4  1  0
  4  5  1  0
  4  6  2  0
  6  7  1  0
  7  8  2  0
  8  9  1  0
  9 10  1  0
  9 11  1  0
  9 12  1  0
 12 13  3  0
  8 14  1  0
 14 15  2  0
 15 16  1  0
 15 17  1  0
 17 18  1  0
  6 19  1  0
 19 20  1  0
 19 21  2  0
 21 22  1  0
 21  2  1  0
 17  7  1  0
M  END
>  <cnnaffinity>  (1) 
-4.1415

>  <filename>  (1) 
N#CCc1nc[nH]c1-c1cccnc1

$$$$
