
     RDKit          3D

 28 29  0  0  0  0  0  0  0  0999 V2000
    5.0524    1.7223   16.8124 H   0  0  0  0  0  0  0  0  0  0  0  0
    5.4678    1.2655   17.7139 C   0  0  0  0  0  0  0  0  0  0  0  0
    6.6516    0.6474   17.5804 N   0  0  0  0  0  0  0  0  0  0  0  0
    7.2064    0.0932   18.6708 C   0  0  0  0  0  0  0  0  0  0  0  0
    8.1577   -0.4141   18.5103 H   0  0  0  0  0  0  0  0  0  0  0  0
    6.6145    0.1198   19.9535 C   0  0  0  0  0  0  0  0  0  0  0  0
    7.1868   -0.3948   21.1419 N   0  0  0  0  0  0  0  0  0  0  0  0
    6.6517   -1.1621   21.5532 H   0  0  0  0  0  0  0  0  0  0  0  0
    8.5784   -0.6509   21.0782 N   0  0  0  0  0  0  0  0  0  0  0  0
    9.0852    0.1573   20.7475 H   0  0  0  0  0  0  0  0  0  0  0  0
    9.2612   -1.3720   22.0356 C   0  0  0  0  0  0  0  0  0  0  0  0
    8.7626   -2.2362   22.7313 O   0  0  0  0  0  0  0  0  0  0  0  0
   10.7570   -1.0604   22.0629 C   0  0  0  0  0  0  0  0  0  0  0  0
   11.6507   -2.1416   22.1573 C   0  0  0  0  0  0  0  0  0  0  0  0
   11.2529   -3.1449   22.2902 H   0  0  0  0  0  0  0  0  0  0  0  0
   13.0261   -1.9336   22.0598 C   0  0  0  0  0  0  0  0  0  0  0  0
   13.7059   -2.7840   22.0117 H   0  0  0  0  0  0  0  0  0  0  0  0
   13.5375   -0.6347   22.0178 C   0  0  0  0  0  0  0  0  0  0  0  0
   14.6061   -0.4871   21.9202 H   0  0  0  0  0  0  0  0  0  0  0  0
   12.6754    0.4600   22.0373 C   0  0  0  0  0  0  0  0  0  0  0  0
   13.0728    1.4689   21.9599 H   0  0  0  0  0  0  0  0  0  0  0  0
   11.2876    0.2562   22.0145 C   0  0  0  0  0  0  0  0  0  0  0  0
   10.4631    1.4433   22.0011 C   0  0  0  0  0  0  0  0  0  0  0  0
    9.8222    2.4062   21.9455 N   0  0  0  0  0  0  0  0  0  0  0  0
    5.3577    0.7365   20.0630 C   0  0  0  0  0  0  0  0  0  0  0  0
    4.8734    0.7599   21.0384 H   0  0  0  0  0  0  0  0  0  0  0  0
    4.7856    1.3276   18.9349 C   0  0  0  0  0  0  0  0  0  0  0  0
    3.8431    1.8606   18.9934 H   0  0  0  0  0  0  0  0  0  0  0  0
  1  2  1  0
  2  3  2  0
  3  4  1  0
  4  5  1  0
  4  6  2  0
  6  7  1  0
  7  8  1  0
  7  9  1  0
  9 10  1  0
  9 11  1  0
 11 12  2  0
 11 13  1  0
 13 14  2  0
 14 15  1  0
 14 16  1  0
 16 17  1  0
 16 18  2  0
 18 19  1  0
 18 20  1  0
 20 21  1  0
 20 22  2  0
 22 23  1  0
 23 24  3  0
  6 25  1  0
 25 26  1  0
 25 27  2  0
 27 28  1  0
 27  2  1  0
 22 13  1  0
M  END
>  <cnnaffinity>  (1) 
-5.15759

>  <filename>  (1) 
N#Cc1ccccc1C(=O)NNc1cccnc1

$$$$
