
     RDKit          3D

 23 24  0  0  0  0  0  0  0  0999 V2000
   10.1780   -3.8549   25.6989 H   0  0  0  0  0  0  0  0  0  0  0  0
    9.1955   -3.7364   25.4256 N   0  0  0  0  0  0  0  0  0  0  0  0
    9.1209   -3.0284   24.3904 N   0  0  0  0  0  4  0  0  0  0  0  0
    8.0394   -2.8531   23.7409 N   0  0  0  0  0  0  0  0  0  0  0  0
    8.0588   -2.1235   22.6334 N   0  0  0  0  0  0  0  0  0  0  0  0
    6.9615   -1.8786   21.7611 C   0  0  0  0  0  0  0  0  0  0  0  0
    5.8921   -2.4345   21.7938 O   0  0  0  0  0  0  0  0  0  0  0  0
    7.4955   -0.8703   20.7627 C   0  0  0  0  0  0  0  0  0  0  0  0
    6.7349   -0.1121   19.7412 C   0  0  0  0  0  0  0  0  0  0  0  0
    7.2446    0.0828   18.4366 C   0  0  0  0  0  0  0  0  0  0  0  0
    8.2062   -0.3492   18.1510 H   0  0  0  0  0  0  0  0  0  0  0  0
    6.6131    0.7719   17.4822 N   0  0  0  0  0  0  0  0  0  0  0  0
    5.4403    1.3421   17.8054 C   0  0  0  0  0  0  0  0  0  0  0  0
    4.9552    1.9123   17.0153 H   0  0  0  0  0  0  0  0  0  0  0  0
    4.8607    1.2416   19.0706 C   0  0  0  0  0  0  0  0  0  0  0  0
    3.9374    1.7685   19.2790 H   0  0  0  0  0  0  0  0  0  0  0  0
    5.5138    0.4994   20.0552 C   0  0  0  0  0  0  0  0  0  0  0  0
    5.1199    0.4195   21.0681 H   0  0  0  0  0  0  0  0  0  0  0  0
    8.8037   -0.7076   20.9861 C   0  0  0  0  0  0  0  0  0  0  0  0
    9.4310   -0.0332   20.4166 H   0  0  0  0  0  0  0  0  0  0  0  0
    9.2940   -1.4870   22.1480 C   0  0  0  0  0  0  0  0  0  0  0  0
   10.0349   -2.2539   21.8933 H   0  0  0  0  0  0  0  0  0  0  0  0
    9.7338   -0.8482   22.9216 H   0  0  0  0  0  0  0  0  0  0  0  0
  1  2  1  0
  2  3  2  0
  3  4  2  0
  4  5  1  0
  5  6  1  0
  6  7  2  0
  6  8  1  0
  8  9  1  0
  9 10  2  0
 10 11  1  0
 10 12  1  0
 12 13  2  0
 13 14  1  0
 13 15  1  0
 15 16  1  0
 15 17  2  0
 17 18  1  0
  8 19  2  0
 19 20  1  0
 19 21  1  0
 21 22  1  0
 21 23  1  0
 21  5  1  0
 17  9  1  0
M  CHG  1   3   1
M  END
>  <cnnaffinity>  (1) 
-4.31101

>  <filename>  (1) 
N=[N+]=NN1CC=C(c2cccnc2)C1=O

$$$$
