
     RDKit          3D

 23 24  0  0  0  0  0  0  0  0999 V2000
    6.0766   -3.5111   22.8359 H   0  0  0  0  0  0  0  0  0  0  0  0
    6.8207   -4.0367   22.3611 N   0  0  0  0  0  0  0  0  0  0  0  0
    7.8285   -3.3803   22.2784 N   0  0  0  0  0  4  0  0  0  0  0  0
    8.9832   -3.0120   22.2590 N   0  0  0  0  0  0  0  0  0  0  0  0
    9.3380   -1.7961   21.7498 C   0  0  0  0  0  0  0  0  0  0  0  0
    8.6907   -0.7397   21.1085 C   0  0  0  0  0  0  0  0  0  0  0  0
    7.3138   -0.6557   20.8803 N   0  0  0  0  0  0  0  0  0  0  0  0
    6.7246   -0.8597   21.6794 H   0  0  0  0  0  0  0  0  0  0  0  0
    6.6650    0.0019   19.8315 C   0  0  0  0  0  0  0  0  0  0  0  0
    7.1556    0.0534   18.5052 C   0  0  0  0  0  0  0  0  0  0  0  0
    8.0785   -0.4679   18.2472 H   0  0  0  0  0  0  0  0  0  0  0  0
    6.5392    0.7123   17.5197 N   0  0  0  0  0  0  0  0  0  0  0  0
    5.3922    1.3509   17.7996 C   0  0  0  0  0  0  0  0  0  0  0  0
    4.9216    1.8890   16.9796 H   0  0  0  0  0  0  0  0  0  0  0  0
    4.8056    1.3265   19.0686 C   0  0  0  0  0  0  0  0  0  0  0  0
    3.8745    1.8563   19.2376 H   0  0  0  0  0  0  0  0  0  0  0  0
    5.4429    0.6367   20.0963 C   0  0  0  0  0  0  0  0  0  0  0  0
    5.0285    0.6231   21.1038 H   0  0  0  0  0  0  0  0  0  0  0  0
    9.7439    0.1541   20.8112 C   0  0  0  0  0  0  0  0  0  0  0  0
    9.7002    1.1154   20.3182 H   0  0  0  0  0  0  0  0  0  0  0  0
   10.9155   -0.3139   21.2162 N   0  0  0  0  0  0  0  0  0  0  0  0
   10.6412   -1.4858   21.7982 N   0  0  0  0  0  0  0  0  0  0  0  0
   11.3386   -2.1507   22.1141 H   0  0  0  0  0  0  0  0  0  0  0  0
  1  2  1  0
  2  3  2  0
  3  4  2  0
  4  5  1  0
  5  6  2  0
  6  7  1  0
  7  8  1  0
  7  9  1  0
  9 10  2  0
 10 11  1  0
 10 12  1  0
 12 13  2  0
 13 14  1  0
 13 15  1  0
 15 16  1  0
 15 17  2  0
 17 18  1  0
  6 19  1  0
 19 20  1  0
 19 21  2  0
 21 22  1  0
 22 23  1  0
 22  5  1  0
 17  9  1  0
M  CHG  1   3   1
M  END
>  <cnnaffinity>  (1) 
-4.89839

>  <filename>  (1) 
N=[N+]=Nc1[nH]ncc1Nc1cccnc1

$$$$
