
     RDKit          3D

 21 22  0  0  0  0  0  0  0  0999 V2000
    7.0969    2.9284   20.7073 H   0  0  0  0  0  0  0  0  0  0  0  0
    7.4084    3.0076   21.6875 N   0  0  0  0  0  0  0  0  0  0  0  0
    7.6075    1.9461   22.2167 N   0  0  0  0  0  4  0  0  0  0  0  0
    7.8158    1.0134   22.9466 N   0  0  0  0  0  0  0  0  0  0  0  0
    7.7751   -0.3087   22.4163 C   0  0  0  0  0  0  0  0  0  0  0  0
    8.2836   -1.3389   23.1358 C   0  0  0  0  0  0  0  0  0  0  0  0
    8.7741   -1.2857   24.0968 H   0  0  0  0  0  0  0  0  0  0  0  0
    8.1436   -2.8246   22.3189 S   0  0  0  0  0  0  0  0  0  0  0  0
    7.4074   -2.0813   20.9723 C   0  0  0  0  0  0  0  0  0  0  0  0
    7.0633   -2.6521   20.1203 H   0  0  0  0  0  0  0  0  0  0  0  0
    7.2530   -0.7359   21.1276 C   0  0  0  0  0  0  0  0  0  0  0  0
    6.6106    0.0465   20.0424 C   0  0  0  0  0  0  0  0  0  0  0  0
    7.1840    0.0334   18.7591 C   0  0  0  0  0  0  0  0  0  0  0  0
    8.1301   -0.4845   18.5967 H   0  0  0  0  0  0  0  0  0  0  0  0
    6.6506    0.6315   17.6891 N   0  0  0  0  0  0  0  0  0  0  0  0
    5.4789    1.2629   17.8530 C   0  0  0  0  0  0  0  0  0  0  0  0
    5.0576    1.7282   16.9622 H   0  0  0  0  0  0  0  0  0  0  0  0
    4.8090    1.3251   19.0781 C   0  0  0  0  0  0  0  0  0  0  0  0
    3.8506    1.8259   19.1347 H   0  0  0  0  0  0  0  0  0  0  0  0
    5.3867    0.7163   20.1944 C   0  0  0  0  0  0  0  0  0  0  0  0
    4.9044    0.7318   21.1737 H   0  0  0  0  0  0  0  0  0  0  0  0
  1  2  1  0
  2  3  2  0
  3  4  2  0
  4  5  1  0
  5  6  2  0
  6  7  1  0
  6  8  1  0
  8  9  1  0
  9 10  1  0
  9 11  2  0
 11 12  1  0
 12 13  2  0
 13 14  1  0
 13 15  1  0
 15 16  2  0
 16 17  1  0
 16 18  1  0
 18 19  1  0
 18 20  2  0
 20 21  1  0
 11  5  1  0
 20 12  1  0
M  CHG  1   3   1
M  END
>  <cnnaffinity>  (1) 
-4.36979

>  <filename>  (1) 
N=[N+]=Nc1cscc1-c1cccnc1

$$$$
