
     RDKit          3D

 23 24  0  0  0  0  0  0  0  0999 V2000
   10.1299   -4.1448   24.9901 H   0  0  0  0  0  0  0  0  0  0  0  0
    9.5958   -3.4113   24.5172 N   0  0  0  0  0  0  0  0  0  0  0  0
    9.4141   -3.9253   23.3679 N   0  0  0  0  0  4  0  0  0  0  0  0
    8.8347   -3.4047   22.3526 N   0  0  0  0  0  0  0  0  0  0  0  0
    8.2932   -2.1069   22.4027 C   0  0  0  0  0  0  0  0  0  0  0  0
    7.8452   -1.5114   21.2314 C   0  0  0  0  0  0  0  0  0  0  0  0
    7.9611   -1.9979   20.2731 H   0  0  0  0  0  0  0  0  0  0  0  0
    7.1943   -0.2649   21.3455 C   0  0  0  0  0  0  0  0  0  0  0  0
    6.5664    0.3247   20.1325 C   0  0  0  0  0  0  0  0  0  0  0  0
    7.2163    0.2112   18.8940 C   0  0  0  0  0  0  0  0  0  0  0  0
    8.2140   -0.2243   18.8292 H   0  0  0  0  0  0  0  0  0  0  0  0
    6.7077    0.6502   17.7409 N   0  0  0  0  0  0  0  0  0  0  0  0
    5.5023    1.2360   17.7870 C   0  0  0  0  0  0  0  0  0  0  0  0
    5.0994    1.5687   16.8343 H   0  0  0  0  0  0  0  0  0  0  0  0
    4.7767    1.4202   18.9692 C   0  0  0  0  0  0  0  0  0  0  0  0
    3.8109    1.9122   18.9364 H   0  0  0  0  0  0  0  0  0  0  0  0
    5.3257    0.9767   20.1727 C   0  0  0  0  0  0  0  0  0  0  0  0
    4.8315    1.1431   21.1350 H   0  0  0  0  0  0  0  0  0  0  0  0
    7.0715    0.3995   22.4763 N   0  0  0  0  0  0  0  0  0  0  0  0
    7.6198   -0.1258   23.6272 C   0  0  0  0  0  0  0  0  0  0  0  0
    7.6577    0.4380   24.6974 O   0  0  0  0  0  0  0  0  0  0  0  0
    8.1605   -1.4355   23.5554 N   0  0  0  0  0  0  0  0  0  0  0  0
    8.5559   -1.8078   24.4113 H   0  0  0  0  0  0  0  0  0  0  0  0
  1  2  1  0
  2  3  2  0
  3  4  2  0
  4  5  1  0
  5  6  2  0
  6  7  1  0
  6  8  1  0
  8  9  1  0
  9 10  2  0
 10 11  1  0
 10 12  1  0
 12 13  2  0
 13 14  1  0
 13 15  1  0
 15 16  1  0
 15 17  2  0
 17 18  1  0
  8 19  2  0
 19 20  1  0
 20 21  2  0
 20 22  1  0
 22 23  1  0
 22  5  1  0
 17  9  1  0
M  CHG  1   3   1
M  END
>  <cnnaffinity>  (1) 
-4.57965

>  <filename>  (1) 
N=[N+]=Nc1cc(-c2cccnc2)nc(=O)[nH]1

$$$$
