
     RDKit          3D

 32 34  0  0  0  0  0  0  0  0999 V2000
    4.9793    1.8048   16.9622 H   0  0  0  0  0  0  0  0  0  0  0  0
    5.4321    1.2770   17.8005 C   0  0  0  0  0  0  0  0  0  0  0  0
    6.5888    0.6397   17.5569 N   0  0  0  0  0  0  0  0  0  0  0  0
    7.1788    0.0154   18.5862 C   0  0  0  0  0  0  0  0  0  0  0  0
    8.1179   -0.4834   18.3588 H   0  0  0  0  0  0  0  0  0  0  0  0
    6.6629   -0.0076   19.9054 C   0  0  0  0  0  0  0  0  0  0  0  0
    7.3465   -0.6571   20.9758 N   0  0  0  0  0  0  0  0  0  0  0  0
    7.8413   -1.5158   20.7895 H   0  0  0  0  0  0  0  0  0  0  0  0
    7.2782   -0.3201   22.3079 C   0  0  0  0  0  0  0  0  0  0  0  0
    6.6240    0.6031   22.7516 O   0  0  0  0  0  0  0  0  0  0  0  0
    8.0424   -1.2553   23.3040 C   0  0  1  0  0  0  0  0  0  0  0  0
    7.9378   -0.7147   24.2522 H   0  0  0  0  0  0  0  0  0  0  0  0
    7.0344   -2.3860   23.4144 C   0  0  0  0  0  0  0  0  0  0  0  0
    6.0963   -2.4851   24.2919 N   0  0  0  0  0  0  0  0  0  0  0  0
    5.4448   -3.6813   23.9634 C   0  0  0  0  0  0  0  0  0  0  0  0
    4.3730   -4.3556   24.5664 C   0  0  0  0  0  0  0  0  0  0  0  0
    3.8731   -3.9143   25.4224 H   0  0  0  0  0  0  0  0  0  0  0  0
    4.0018   -5.5974   24.0455 C   0  0  0  0  0  0  0  0  0  0  0  0
    3.1835   -6.1401   24.5105 H   0  0  0  0  0  0  0  0  0  0  0  0
    4.6871   -6.1604   22.9463 C   0  0  0  0  0  0  0  0  0  0  0  0
    4.3915   -7.1453   22.5925 H   0  0  0  0  0  0  0  0  0  0  0  0
    5.7436   -5.4879   22.3223 C   0  0  0  0  0  0  0  0  0  0  0  0
    6.2982   -5.9295   21.5009 H   0  0  0  0  0  0  0  0  0  0  0  0
    6.0719   -4.2376   22.8463 C   0  0  0  0  0  0  0  0  0  0  0  0
    7.0555   -3.3671   22.4628 O   0  0  0  0  0  0  0  0  0  0  0  0
    9.4672   -1.6686   23.0112 N   0  0  0  0  0  0  0  0  0  0  0  0
   10.1073   -0.8714   23.0522 H   0  0  0  0  0  0  0  0  0  0  0  0
    9.8012   -2.3017   23.7433 H   0  0  0  0  0  0  0  0  0  0  0  0
    5.4457    0.6424   20.1358 C   0  0  0  0  0  0  0  0  0  0  0  0
    5.0208    0.6566   21.1372 H   0  0  0  0  0  0  0  0  0  0  0  0
    4.8257    1.2870   19.0599 C   0  0  0  0  0  0  0  0  0  0  0  0
    3.8966    1.8235   19.2059 H   0  0  0  0  0  0  0  0  0  0  0  0
  1  2  1  0
  2  3  2  0
  3  4  1  0
  4  5  1  0
  4  6  2  0
  6  7  1  0
  7  8  1  0
  7  9  1  0
  9 10  2  0
  9 11  1  0
 11 12  1  1
 11 13  1  0
 13 14  2  0
 14 15  1  0
 15 16  2  0
 16 17  1  0
 16 18  1  0
 18 19  1  0
 18 20  2  0
 20 21  1  0
 20 22  1  0
 22 23  1  0
 22 24  2  0
 24 25  1  0
 11 26  1  0
 26 27  1  0
 26 28  1  0
  6 29  1  0
 29 30  1  0
 29 31  2  0
 31 32  1  0
 31  2  1  0
 25 13  1  0
 24 15  1  0
M  END
>  <cnnaffinity>  (1) 
-5.12223

>  <filename>  (1) 
N[C@@H](C(=O)Nc1cccnc1)c1nc2ccccc2o1

$$$$
