
     RDKit          3D

 34 36  0  0  0  0  0  0  0  0999 V2000
    4.9241    1.8007   16.9832 H   0  0  0  0  0  0  0  0  0  0  0  0
    5.3962    1.2930   17.8206 C   0  0  0  0  0  0  0  0  0  0  0  0
    6.5595    0.6728   17.5604 N   0  0  0  0  0  0  0  0  0  0  0  0
    7.1724    0.0491   18.5744 C   0  0  0  0  0  0  0  0  0  0  0  0
    8.1259   -0.4278   18.3464 H   0  0  0  0  0  0  0  0  0  0  0  0
    6.6627    0.0125   19.8901 C   0  0  0  0  0  0  0  0  0  0  0  0
    7.3459   -0.6273   20.9553 N   0  0  0  0  0  0  0  0  0  0  0  0
    7.8980   -1.4557   20.7935 H   0  0  0  0  0  0  0  0  0  0  0  0
    7.3524   -0.1999   22.2608 C   0  0  0  0  0  0  0  0  0  0  0  0
    6.9440    0.8901   22.6250 O   0  0  0  0  0  0  0  0  0  0  0  0
    7.9439   -1.2318   23.3087 C   0  0  1  0  0  0  0  0  0  0  0  0
    7.9020   -0.6273   24.2270 H   0  0  0  0  0  0  0  0  0  0  0  0
    6.9888   -2.4044   23.4486 C   0  0  0  0  0  0  0  0  0  0  0  0
    6.9031   -3.5285   22.6715 C   0  0  0  0  0  0  0  0  0  0  0  0
    7.6037   -3.7847   21.8866 H   0  0  0  0  0  0  0  0  0  0  0  0
    5.7362   -4.2546   23.0649 C   0  0  0  0  0  0  0  0  0  0  0  0
    5.1606   -5.4702   22.6504 C   0  0  0  0  0  0  0  0  0  0  0  0
    5.6458   -6.0359   21.8597 H   0  0  0  0  0  0  0  0  0  0  0  0
    4.0066   -5.9175   23.2794 C   0  0  0  0  0  0  0  0  0  0  0  0
    3.5684   -6.8596   22.9700 H   0  0  0  0  0  0  0  0  0  0  0  0
    3.4068   -5.1596   24.3199 C   0  0  0  0  0  0  0  0  0  0  0  0
    2.5056   -5.5428   24.7921 H   0  0  0  0  0  0  0  0  0  0  0  0
    3.9524   -3.9526   24.7433 C   0  0  0  0  0  0  0  0  0  0  0  0
    3.4928   -3.3778   25.5427 H   0  0  0  0  0  0  0  0  0  0  0  0
    5.1285   -3.5130   24.1103 C   0  0  0  0  0  0  0  0  0  0  0  0
    5.9164   -2.4002   24.3343 N   0  0  0  0  0  0  0  0  0  0  0  0
    5.6503   -1.6368   24.9346 H   0  0  0  0  0  0  0  0  0  0  0  0
    9.3077   -1.7726   23.0042 N   0  0  0  0  0  0  0  0  0  0  0  0
    9.5791   -2.4109   23.7515 H   0  0  0  0  0  0  0  0  0  0  0  0
   10.0245   -1.0471   22.9917 H   0  0  0  0  0  0  0  0  0  0  0  0
    5.4444    0.6523   20.1430 C   0  0  0  0  0  0  0  0  0  0  0  0
    5.0356    0.6428   21.1507 H   0  0  0  0  0  0  0  0  0  0  0  0
    4.8048    1.3037   19.0868 C   0  0  0  0  0  0  0  0  0  0  0  0
    3.8760    1.8360   19.2496 H   0  0  0  0  0  0  0  0  0  0  0  0
  1  2  1  0
  2  3  2  0
  3  4  1  0
  4  5  1  0
  4  6  2  0
  6  7  1  0
  7  8  1  0
  7  9  1  0
  9 10  2  0
  9 11  1  0
 11 12  1  1
 11 13  1  0
 13 14  2  0
 14 15  1  0
 14 16  1  0
 16 17  2  0
 17 18  1  0
 17 19  1  0
 19 20  1  0
 19 21  2  0
 21 22  1  0
 21 23  1  0
 23 24  1  0
 23 25  2  0
 25 26  1  0
 26 27  1  0
 11 28  1  0
 28 29  1  0
 28 30  1  0
  6 31  1  0
 31 32  1  0
 31 33  2  0
 33 34  1  0
 33  2  1  0
 26 13  1  0
 25 16  1  0
M  END
>  <cnnaffinity>  (1) 
-5.44791

>  <filename>  (1) 
N[C@@H](C(=O)Nc1cccnc1)c1cc2ccccc2[nH]1

$$$$
