
     RDKit          3D

 51 55  0  0  0  0  0  0  0  0999 V2000
    9.1130    7.1846   25.8931 N   0  0  0  0  0  0  0  0  0  0  0  0
    9.4541    6.1741   25.0315 C   0  0  0  0  0  0  0  0  0  0  0  0
   10.2126    6.4452   24.1153 O   0  0  0  0  0  0  0  0  0  0  0  0
    8.9077    4.7938   25.2936 C   0  0  0  0  0  0  0  0  0  0  0  0
    8.6956    4.3035   26.5935 C   0  0  0  0  0  0  0  0  0  0  0  0
    8.3502    2.9628   26.7920 C   0  0  0  0  0  0  0  0  0  0  0  0
    8.2474    2.0803   25.7128 C   0  0  0  0  0  0  0  0  0  0  0  0
    8.4712    2.5601   24.4154 C   0  0  0  0  0  0  0  0  0  0  0  0
    8.5572    1.6351   23.3229 N   0  0  0  0  0  0  0  0  0  0  0  0
    7.5362    0.7941   22.9944 N   0  0  0  0  0  0  0  0  0  0  0  0
    7.9850    0.1937   21.9103 C   0  0  0  0  0  0  0  0  0  0  0  0
    7.1794   -0.7613   21.0738 C   0  0  0  0  0  0  0  0  0  0  0  0
    6.5276   -0.0768   19.8748 C   0  0  0  0  0  0  0  0  0  0  0  0
    5.3679    0.6911   20.0522 C   0  0  0  0  0  0  0  0  0  0  0  0
    4.8295    1.3701   18.9582 C   0  0  0  0  0  0  0  0  0  0  0  0
    5.4717    1.2677   17.7220 C   0  0  0  0  0  0  0  0  0  0  0  0
    6.5865    0.5455   17.5277 N   0  0  0  0  0  0  0  0  0  0  0  0
    7.0936   -0.0969   18.5875 C   0  0  0  0  0  0  0  0  0  0  0  0
    8.0062   -0.6685   18.4065 H   0  0  0  0  0  0  0  0  0  0  0  0
    5.0811    1.7865   16.8482 H   0  0  0  0  0  0  0  0  0  0  0  0
    3.9373    1.9810   19.0478 H   0  0  0  0  0  0  0  0  0  0  0  0
    4.8991    0.7524   21.0356 H   0  0  0  0  0  0  0  0  0  0  0  0
    7.8563   -1.5595   20.7435 H   0  0  0  0  0  0  0  0  0  0  0  0
    6.4188   -1.2103   21.7214 H   0  0  0  0  0  0  0  0  0  0  0  0
    9.2403    0.5407   21.5441 N   0  0  0  0  0  0  0  0  0  0  0  0
    9.5943    1.4347   22.4565 C   0  0  0  0  0  0  0  0  0  0  0  0
   10.9473    2.0645   22.5211 C   0  0  0  0  0  0  0  0  0  0  0  0
   11.8961    1.5072   23.5850 C   0  0  0  0  0  0  0  0  0  0  0  0
   13.3578    1.9395   23.3644 C   0  0  0  0  0  0  0  0  0  0  0  0
   13.5675    3.4780   23.2031 C   0  0  0  0  0  0  0  0  0  0  0  0
   12.2799    4.3030   22.9236 C   0  0  0  0  0  0  0  0  0  0  0  0
   11.1577    3.5405   22.2410 C   0  0  0  0  0  0  0  0  0  0  0  0
   11.4653    2.5260   21.1815 C   0  0  0  0  0  0  0  0  0  0  0  0
   10.7793    2.4443   20.3497 H   0  0  0  0  0  0  0  0  0  0  0  0
   12.4972    2.3293   20.9270 H   0  0  0  0  0  0  0  0  0  0  0  0
   10.2494    4.1209   22.1489 H   0  0  0  0  0  0  0  0  0  0  0  0
   11.8708    4.7132   23.8575 H   0  0  0  0  0  0  0  0  0  0  0  0
   12.5336    5.1750   22.3025 H   0  0  0  0  0  0  0  0  0  0  0  0
   14.0409    3.9193   24.0852 H   0  0  0  0  0  0  0  0  0  0  0  0
   14.2909    3.6404   22.3929 H   0  0  0  0  0  0  0  0  0  0  0  0
   13.7365    1.4248   22.4696 H   0  0  0  0  0  0  0  0  0  0  0  0
   13.9583    1.5528   24.1894 H   0  0  0  0  0  0  0  0  0  0  0  0
   11.8269    0.4132   23.6034 H   0  0  0  0  0  0  0  0  0  0  0  0
   11.5484    1.8744   24.5609 H   0  0  0  0  0  0  0  0  0  0  0  0
    8.6966    3.9270   24.2024 C   0  0  0  0  0  0  0  0  0  0  0  0
    8.6873    4.3076   23.1861 H   0  0  0  0  0  0  0  0  0  0  0  0
    8.0052    1.0295   25.8573 H   0  0  0  0  0  0  0  0  0  0  0  0
    8.1976    2.5882   27.8015 H   0  0  0  0  0  0  0  0  0  0  0  0
    8.8258    4.9674   27.4463 H   0  0  0  0  0  0  0  0  0  0  0  0
    8.1854    7.1759   26.2774 H   0  0  0  0  0  0  0  0  0  0  0  0
    9.4050    8.0457   25.4563 H   0  0  0  0  0  0  0  0  0  0  0  0
  1  2  1  0
  2  3  2  0
  2  4  1  0
  4  5  2  0
  5  6  1  0
  6  7  2  0
  7  8  1  0
  8  9  1  0
  9 10  1  0
 10 11  2  0
 11 12  1  0
 12 13  1  0
 13 14  2  0
 14 15  1  0
 15 16  2  0
 16 17  1  0
 17 18  2  0
 18 19  1  0
 16 20  1  0
 15 21  1  0
 14 22  1  0
 12 23  1  0
 12 24  1  0
 11 25  1  0
 25 26  2  0
 26 27  1  0
 27 28  1  0
 28 29  1  0
 29 30  1  0
 30 31  1  0
 31 32  1  0
 32 33  1  0
 33 34  1  0
 33 35  1  0
 32 36  1  0
 31 37  1  0
 31 38  1  0
 30 39  1  0
 30 40  1  0
 29 41  1  0
 29 42  1  0
 28 43  1  0
 28 44  1  0
  8 45  2  0
 45 46  1  0
  7 47  1  0
  6 48  1  0
  5 49  1  0
  1 50  1  0
  1 51  1  0
 45  4  1  0
 26  9  1  0
 32 27  1  0
 18 13  1  0
 33 27  1  0
M  END
>  <cnnaffinity>  (1) 
-6.40771

>  <filename>  (1) 
NC(=O)c1cccc(-n2nc(Cc3cccnc3)nc2C23CCCCC2C3)c1

$$$$
