
     RDKit          3D

 31 32  0  0  0  0  0  0  0  0999 V2000
    4.9543    1.7861   16.9930 H   0  0  0  0  0  0  0  0  0  0  0  0
    5.4138    1.2763   17.8386 C   0  0  0  0  0  0  0  0  0  0  0  0
    6.5692    0.6350   17.5931 N   0  0  0  0  0  0  0  0  0  0  0  0
    7.1784    0.0399   18.6245 C   0  0  0  0  0  0  0  0  0  0  0  0
    8.1105   -0.4822   18.4163 H   0  0  0  0  0  0  0  0  0  0  0  0
    6.6814    0.0474   19.9488 C   0  0  0  0  0  0  0  0  0  0  0  0
    7.4390   -0.6006   20.8899 O   0  0  0  0  0  0  0  0  0  0  0  0
    7.0767   -0.5712   22.2657 C   0  0  0  0  0  0  0  0  0  0  0  0
    7.7356   -1.3020   22.7408 H   0  0  0  0  0  0  0  0  0  0  0  0
    6.0396   -0.9069   22.3733 H   0  0  0  0  0  0  0  0  0  0  0  0
    7.2291    0.6973   22.9157 N   0  0  0  0  0  0  0  0  0  0  0  0
    6.4178    1.3086   22.8107 H   0  0  0  0  0  0  0  0  0  0  0  0
    8.3576    1.4620   22.7297 C   0  0  0  0  0  0  0  0  0  0  0  0
    9.6086    0.8883   22.4702 C   0  0  0  0  0  0  0  0  0  0  0  0
    9.6627   -0.1863   22.3386 H   0  0  0  0  0  0  0  0  0  0  0  0
   10.7472    1.6839   22.3665 C   0  0  0  0  0  0  0  0  0  0  0  0
   11.7110    1.2111   22.1917 H   0  0  0  0  0  0  0  0  0  0  0  0
   10.6451    3.0762   22.4943 C   0  0  0  0  0  0  0  0  0  0  0  0
   11.5358    3.6953   22.4228 H   0  0  0  0  0  0  0  0  0  0  0  0
    9.3957    3.6553   22.7169 C   0  0  0  0  0  0  0  0  0  0  0  0
    9.3316    4.7413   22.7795 H   0  0  0  0  0  0  0  0  0  0  0  0
    8.2344    2.8663   22.8317 C   0  0  0  0  0  0  0  0  0  0  0  0
    6.8777    3.4418   23.0152 C   0  0  0  0  0  0  0  0  0  0  0  0
    5.8259    2.9086   22.6677 O   0  0  0  0  0  0  0  0  0  0  0  0
    6.8249    4.6590   23.6202 N   0  0  0  0  0  0  0  0  0  0  0  0
    5.8804    4.9264   23.8288 H   0  0  0  0  0  0  0  0  0  0  0  0
    7.5416    4.8483   24.2978 H   0  0  0  0  0  0  0  0  0  0  0  0
    5.4673    0.6927   20.1914 C   0  0  0  0  0  0  0  0  0  0  0  0
    5.0431    0.7429   21.1938 H   0  0  0  0  0  0  0  0  0  0  0  0
    4.8294    1.3105   19.1048 C   0  0  0  0  0  0  0  0  0  0  0  0
    3.8945    1.8350   19.2424 H   0  0  0  0  0  0  0  0  0  0  0  0
  1  2  1  0
  2  3  2  0
  3  4  1  0
  4  5  1  0
  4  6  2  0
  6  7  1  0
  7  8  1  0
  8  9  1  0
  8 10  1  0
  8 11  1  0
 11 12  1  0
 11 13  1  0
 13 14  2  0
 14 15  1  0
 14 16  1  0
 16 17  1  0
 16 18  2  0
 18 19  1  0
 18 20  1  0
 20 21  1  0
 20 22  2  0
 22 23  1  0
 23 24  2  0
 23 25  1  0
 25 26  1  0
 25 27  1  0
  6 28  1  0
 28 29  1  0
 28 30  2  0
 30 31  1  0
 30  2  1  0
 22 13  1  0
M  END
>  <cnnaffinity>  (1) 
-4.78542

>  <filename>  (1) 
NC(=O)c1ccccc1NCOc1cccnc1

$$$$
