
     RDKit          3D

 24 25  0  0  0  0  0  0  0  0999 V2000
    7.5663   -6.0881   23.4306 H   0  0  0  0  0  0  0  0  0  0  0  0
    7.3698   -5.0660   23.1284 C   0  0  0  0  0  0  0  0  0  0  0  0
    6.6865   -4.7442   22.0738 N   0  0  0  0  0  0  0  0  0  0  0  0
    6.6258   -3.3776   21.9621 C   0  0  0  0  0  0  0  0  0  0  0  0
    6.0244   -2.9646   21.1592 H   0  0  0  0  0  0  0  0  0  0  0  0
    7.2940   -2.6463   22.9348 C   0  0  0  0  0  0  0  0  0  0  0  0
    7.4628   -1.3121   23.1939 N   0  0  0  0  0  0  0  0  0  0  0  0
    7.2717   -0.4008   22.3131 C   0  0  0  0  0  0  0  0  0  0  0  0
    6.9690    0.8525   22.7025 N   0  0  0  0  0  0  0  0  0  0  0  0
    7.2731    0.9480   23.6557 H   0  0  0  0  0  0  0  0  0  0  0  0
    7.3859    1.4988   22.0495 H   0  0  0  0  0  0  0  0  0  0  0  0
    7.4456   -0.5646   20.9681 N   0  0  0  0  0  0  0  0  0  0  0  0
    7.8915   -1.4529   20.8089 H   0  0  0  0  0  0  0  0  0  0  0  0
    6.6994    0.0423   19.9100 C   0  0  0  0  0  0  0  0  0  0  0  0
    7.1805    0.0575   18.5748 C   0  0  0  0  0  0  0  0  0  0  0  0
    8.1258   -0.4281   18.3417 H   0  0  0  0  0  0  0  0  0  0  0  0
    6.5568    0.6664   17.5547 N   0  0  0  0  0  0  0  0  0  0  0  0
    5.3991    1.2912   17.8166 C   0  0  0  0  0  0  0  0  0  0  0  0
    4.9236    1.7994   16.9803 H   0  0  0  0  0  0  0  0  0  0  0  0
    4.8118    1.3035   19.0852 C   0  0  0  0  0  0  0  0  0  0  0  0
    3.8736    1.8256   19.2360 H   0  0  0  0  0  0  0  0  0  0  0  0
    5.4633    0.6646   20.1495 C   0  0  0  0  0  0  0  0  0  0  0  0
    5.0390    0.6481   21.1522 H   0  0  0  0  0  0  0  0  0  0  0  0
    7.9813   -3.7618   24.0767 S   0  0  0  0  0  0  0  0  0  0  0  0
  1  2  1  0
  2  3  2  0
  3  4  1  0
  4  5  1  0
  4  6  2  0
  6  7  1  0
  7  8  2  3
  8  9  1  0
  9 10  1  0
  9 11  1  0
  8 12  1  0
 12 13  1  0
 12 14  1  0
 14 15  2  0
 15 16  1  0
 15 17  1  0
 17 18  2  0
 18 19  1  0
 18 20  1  0
 20 21  1  0
 20 22  2  0
 22 23  1  0
  6 24  1  0
 24  2  1  0
 22 14  1  0
M  END
>  <cnnaffinity>  (1) 
-4.48992

>  <filename>  (1) 
NC(=Nc1cncs1)Nc1cccnc1

$$$$
