
     RDKit          3D

 32 34  0  0  0  0  0  0  0  0999 V2000
    4.9755    1.7858   16.9882 H   0  0  0  0  0  0  0  0  0  0  0  0
    5.4357    1.2666   17.8255 C   0  0  0  0  0  0  0  0  0  0  0  0
    6.5950    0.6315   17.5884 N   0  0  0  0  0  0  0  0  0  0  0  0
    7.1835   -0.0087   18.6106 C   0  0  0  0  0  0  0  0  0  0  0  0
    8.1358   -0.4876   18.3783 H   0  0  0  0  0  0  0  0  0  0  0  0
    6.6532   -0.0498   19.9273 C   0  0  0  0  0  0  0  0  0  0  0  0
    7.2427   -0.7253   21.0361 N   0  0  0  0  0  0  0  0  0  0  0  0
    7.9744   -1.3987   20.9223 H   0  0  0  0  0  0  0  0  0  0  0  0
    7.4447   -0.1746   22.2797 C   0  0  0  0  0  0  0  0  0  0  0  0
    7.0334    0.9655   22.6250 N   0  0  0  0  0  0  0  0  0  0  0  0
    7.1040    1.4609   23.9218 C   0  0  0  0  0  0  0  0  0  0  0  0
    6.4554    0.7816   24.9899 C   0  0  0  0  0  0  0  0  0  0  0  0
    5.9963   -0.1814   24.7727 H   0  0  0  0  0  0  0  0  0  0  0  0
    6.3521    1.3642   26.2474 C   0  0  0  0  0  0  0  0  0  0  0  0
    5.8341    0.8439   27.0486 H   0  0  0  0  0  0  0  0  0  0  0  0
    6.9200    2.6409   26.4684 C   0  0  0  0  0  0  0  0  0  0  0  0
    7.0004    3.5415   27.5867 C   0  0  0  0  0  0  0  0  0  0  0  0
    6.6132    3.3635   28.5780 H   0  0  0  0  0  0  0  0  0  0  0  0
    7.6546    4.6624   27.1672 C   0  0  0  0  0  0  0  0  0  0  0  0
    7.9123    5.5624   27.7093 H   0  0  0  0  0  0  0  0  0  0  0  0
    8.0009    4.5149   25.8398 N   0  0  0  0  0  0  0  0  0  0  0  0
    8.4503    5.1942   25.2526 H   0  0  0  0  0  0  0  0  0  0  0  0
    7.5670    3.2963   25.3842 C   0  0  0  0  0  0  0  0  0  0  0  0
    7.6658    2.7240   24.1090 C   0  0  0  0  0  0  0  0  0  0  0  0
    8.1176    3.2280   23.2569 H   0  0  0  0  0  0  0  0  0  0  0  0
    8.2049   -1.0768   22.9995 N   0  0  0  0  0  0  0  0  0  0  0  0
    8.1417   -0.8652   23.9873 H   0  0  0  0  0  0  0  0  0  0  0  0
    7.8453   -1.9877   22.7768 H   0  0  0  0  0  0  0  0  0  0  0  0
    5.4471    0.6249   20.1479 C   0  0  0  0  0  0  0  0  0  0  0  0
    5.0596    0.6514   21.1627 H   0  0  0  0  0  0  0  0  0  0  0  0
    4.8270    1.2763   19.0820 C   0  0  0  0  0  0  0  0  0  0  0  0
    3.9022    1.8141   19.2399 H   0  0  0  0  0  0  0  0  0  0  0  0
  1  2  1  0
  2  3  2  0
  3  4  1  0
  4  5  1  0
  4  6  2  0
  6  7  1  0
  7  8  1  0
  7  9  1  0
  9 10  2  3
 10 11  1  0
 11 12  2  0
 12 13  1  0
 12 14  1  0
 14 15  1  0
 14 16  2  0
 16 17  1  0
 17 18  1  0
 17 19  2  0
 19 20  1  0
 19 21  1  0
 21 22  1  0
 21 23  1  0
 23 24  2  0
 24 25  1  0
  9 26  1  0
 26 27  1  0
 26 28  1  0
  6 29  1  0
 29 30  1  0
 29 31  2  0
 31 32  1  0
 31  2  1  0
 24 11  1  0
 23 16  1  0
M  END
>  <cnnaffinity>  (1) 
-4.71954

>  <filename>  (1) 
NC(=Nc1ccc2cc[nH]c2c1)Nc1cccnc1

$$$$
