
     RDKit          3D

 32 33  0  0  0  0  0  0  0  0999 V2000
    5.0090    1.6977   16.8719 H   0  0  0  0  0  0  0  0  0  0  0  0
    5.4484    1.2415   17.7562 C   0  0  0  0  0  0  0  0  0  0  0  0
    6.6287    0.6194   17.5869 N   0  0  0  0  0  0  0  0  0  0  0  0
    7.1731    0.0338   18.6644 C   0  0  0  0  0  0  0  0  0  0  0  0
    8.1325   -0.4553   18.5018 H   0  0  0  0  0  0  0  0  0  0  0  0
    6.5959    0.0354   19.9654 C   0  0  0  0  0  0  0  0  0  0  0  0
    7.1602   -0.6283   21.1044 N   0  0  0  0  0  0  0  0  0  0  0  0
    7.9528   -1.2359   20.9822 H   0  0  0  0  0  0  0  0  0  0  0  0
    7.3482   -0.1068   22.3458 C   0  0  0  0  0  0  0  0  0  0  0  0
    6.7972    0.9650   22.7588 N   0  0  0  0  0  0  0  0  0  0  0  0
    7.2400    1.4555   23.9538 C   0  0  0  0  0  0  0  0  0  0  0  0
    8.0546    0.9662   24.7341 O   0  0  0  0  0  0  0  0  0  0  0  0
    6.5848    2.6221   24.1757 N   0  0  0  0  0  0  0  0  0  0  0  0
    5.9323    2.7450   23.4271 H   0  0  0  0  0  0  0  0  0  0  0  0
    6.7338    3.5250   25.2361 C   0  0  0  0  0  0  0  0  0  0  0  0
    7.9996    3.8199   25.7595 C   0  0  0  0  0  0  0  0  0  0  0  0
    8.8648    3.3119   25.3500 H   0  0  0  0  0  0  0  0  0  0  0  0
    8.1310    4.7557   26.7898 C   0  0  0  0  0  0  0  0  0  0  0  0
    9.1050    5.0270   27.1843 H   0  0  0  0  0  0  0  0  0  0  0  0
    6.9914    5.3577   27.3296 C   0  0  0  0  0  0  0  0  0  0  0  0
    7.1468    6.4835   28.6506 Cl  0  0  0  0  0  0  0  0  0  0  0  0
    5.7220    5.0518   26.8298 C   0  0  0  0  0  0  0  0  0  0  0  0
    4.8453    5.5203   27.2653 H   0  0  0  0  0  0  0  0  0  0  0  0
    5.6000    4.1443   25.7723 C   0  0  0  0  0  0  0  0  0  0  0  0
    4.6278    3.8935   25.3598 H   0  0  0  0  0  0  0  0  0  0  0  0
    8.2209   -0.8958   23.0175 N   0  0  0  0  0  0  0  0  0  0  0  0
    7.9185   -1.8517   22.9322 H   0  0  0  0  0  0  0  0  0  0  0  0
    8.2633   -0.5190   23.9670 H   0  0  0  0  0  0  0  0  0  0  0  0
    5.3782    0.7137   20.1132 C   0  0  0  0  0  0  0  0  0  0  0  0
    4.9322    0.7755   21.1024 H   0  0  0  0  0  0  0  0  0  0  0  0
    4.7945    1.3090   18.9893 C   0  0  0  0  0  0  0  0  0  0  0  0
    3.8487    1.8374   19.0687 H   0  0  0  0  0  0  0  0  0  0  0  0
  1  2  1  0
  2  3  2  0
  3  4  1  0
  4  5  1  0
  4  6  2  0
  6  7  1  0
  7  8  1  0
  7  9  1  0
  9 10  2  3
 10 11  1  0
 11 12  2  0
 11 13  1  0
 13 14  1  0
 13 15  1  0
 15 16  2  0
 16 17  1  0
 16 18  1  0
 18 19  1  0
 18 20  2  0
 20 21  1  0
 20 22  1  0
 22 23  1  0
 22 24  2  0
 24 25  1  0
  9 26  1  0
 26 27  1  0
 26 28  1  0
  6 29  1  0
 29 30  1  0
 29 31  2  0
 31 32  1  0
 31  2  1  0
 24 15  1  0
M  END
>  <cnnaffinity>  (1) 
-4.68287

>  <filename>  (1) 
NC(=NC(=O)Nc1ccc(Cl)cc1)Nc1cccnc1

$$$$
