
     RDKit          3D

 33 35  0  0  0  0  0  0  0  0999 V2000
    4.8415    1.9536   16.8586 H   0  0  0  0  0  0  0  0  0  0  0  0
    5.3540    1.4347   17.6659 C   0  0  0  0  0  0  0  0  0  0  0  0
    6.5076    0.8322   17.3419 N   0  0  0  0  0  0  0  0  0  0  0  0
    7.1639    0.1911   18.3121 C   0  0  0  0  0  0  0  0  0  0  0  0
    8.1138   -0.2524   18.0180 H   0  0  0  0  0  0  0  0  0  0  0  0
    6.7140    0.0856   19.6389 C   0  0  0  0  0  0  0  0  0  0  0  0
    7.4656   -0.7014   20.6306 C   0  0  0  0  0  0  0  0  0  0  0  0
    7.0005   -0.8180   21.9341 N   0  0  0  0  0  0  0  0  0  0  0  0
    7.8400   -1.6228   22.4901 C   0  0  0  0  0  0  0  0  0  0  0  0
    7.7227   -1.9739   23.7828 N   0  0  0  0  0  0  0  0  0  0  0  0
    7.2375   -1.2342   24.2657 H   0  0  0  0  0  0  0  0  0  0  0  0
    8.4501   -2.8885   24.5208 C   0  0  0  0  0  0  0  0  0  0  0  0
    8.7097   -4.1445   23.9624 C   0  0  0  0  0  0  0  0  0  0  0  0
    8.3509   -4.3383   22.9594 H   0  0  0  0  0  0  0  0  0  0  0  0
    9.3523   -5.1321   24.7019 C   0  0  0  0  0  0  0  0  0  0  0  0
    9.5124   -6.1166   24.2756 H   0  0  0  0  0  0  0  0  0  0  0  0
    9.7747   -4.8567   26.0045 C   0  0  0  0  0  0  0  0  0  0  0  0
   10.3033   -5.6151   26.5789 H   0  0  0  0  0  0  0  0  0  0  0  0
    9.5252   -3.6057   26.5585 C   0  0  0  0  0  0  0  0  0  0  0  0
    9.8795   -3.4398   27.5644 H   0  0  0  0  0  0  0  0  0  0  0  0
    8.8473   -2.5889   25.8445 C   0  0  0  0  0  0  0  0  0  0  0  0
    8.5693   -1.2213   26.3773 C   0  0  0  0  0  0  0  0  0  0  0  0
    7.8320   -0.3928   25.8505 O   0  0  0  0  0  0  0  0  0  0  0  0
    9.2135   -0.7980   27.5177 N   0  0  0  0  0  0  0  0  0  0  0  0
    8.8179    0.1081   27.7319 H   0  0  0  0  0  0  0  0  0  0  0  0
    9.2515   -1.4191   28.3076 H   0  0  0  0  0  0  0  0  0  0  0  0
    8.8380   -2.0572   21.7121 O   0  0  0  0  0  0  0  0  0  0  0  0
    8.5996   -1.4362   20.5008 C   0  0  0  0  0  0  0  0  0  0  0  0
    9.3232   -1.6439   19.7304 H   0  0  0  0  0  0  0  0  0  0  0  0
    5.5161    0.7505   19.9653 C   0  0  0  0  0  0  0  0  0  0  0  0
    5.1573    0.7546   20.9948 H   0  0  0  0  0  0  0  0  0  0  0  0
    4.8236    1.4224   18.9599 C   0  0  0  0  0  0  0  0  0  0  0  0
    3.9005    1.9548   19.1625 H   0  0  0  0  0  0  0  0  0  0  0  0
  1  2  1  0
  2  3  2  0
  3  4  1  0
  4  5  1  0
  4  6  2  0
  6  7  1  0
  7  8  1  0
  8  9  2  0
  9 10  1  0
 10 11  1  0
 10 12  1  0
 12 13  2  0
 13 14  1  0
 13 15  1  0
 15 16  1  0
 15 17  2  0
 17 18  1  0
 17 19  1  0
 19 20  1  0
 19 21  2  0
 21 22  1  0
 22 23  2  0
 22 24  1  0
 24 25  1  0
 24 26  1  0
  9 27  1  0
 27 28  1  0
 28 29  1  0
  6 30  1  0
 30 31  1  0
 30 32  2  0
 32 33  1  0
 32  2  1  0
 28  7  2  0
 21 12  1  0
M  END
>  <cnnaffinity>  (1) 
-4.59302

>  <filename>  (1) 
NC(=O)c1ccccc1Nc1nc(-c2cccnc2)co1

$$$$
