
     RDKit          3D

 26 27  0  0  0  0  0  0  0  0999 V2000
    5.0297    1.7173   16.8953 H   0  0  0  0  0  0  0  0  0  0  0  0
    5.4712    1.2637   17.7804 C   0  0  0  0  0  0  0  0  0  0  0  0
    6.6339    0.6230   17.6055 N   0  0  0  0  0  0  0  0  0  0  0  0
    7.1767    0.0359   18.6747 C   0  0  0  0  0  0  0  0  0  0  0  0
    8.1003   -0.5113   18.4992 H   0  0  0  0  0  0  0  0  0  0  0  0
    6.6324    0.1066   19.9651 C   0  0  0  0  0  0  0  0  0  0  0  0
    7.4115   -0.5512   21.0441 C   0  0  0  0  0  0  0  0  0  0  0  0
    7.6613   -0.1784   22.2316 N   0  0  0  0  0  0  0  0  0  0  0  0
    7.3680    1.1244   22.6769 C   0  0  0  0  0  0  0  0  0  0  0  0
    6.3957    1.2748   23.6748 C   0  0  0  0  0  0  0  0  0  0  0  0
    5.9235    0.3777   24.0709 H   0  0  0  0  0  0  0  0  0  0  0  0
    6.0055    2.5478   24.0985 C   0  0  0  0  0  0  0  0  0  0  0  0
    5.2301    2.6538   24.8563 H   0  0  0  0  0  0  0  0  0  0  0  0
    6.5663    3.6844   23.5086 C   0  0  0  0  0  0  0  0  0  0  0  0
    6.2331    4.6858   23.7696 H   0  0  0  0  0  0  0  0  0  0  0  0
    7.5788    3.5475   22.5557 C   0  0  0  0  0  0  0  0  0  0  0  0
    8.2014    4.9893   21.8273 Cl  0  0  0  0  0  0  0  0  0  0  0  0
    8.0227    2.2763   22.1695 C   0  0  0  0  0  0  0  0  0  0  0  0
    9.3313    2.0878   21.0591 Cl  0  0  0  0  0  0  0  0  0  0  0  0
    7.9820   -1.7496   20.6838 N   0  0  0  0  0  0  0  0  0  0  0  0
    7.3630   -2.3385   20.1484 H   0  0  0  0  0  0  0  0  0  0  0  0
    8.3217   -2.1645   21.5409 H   0  0  0  0  0  0  0  0  0  0  0  0
    5.4080    0.7728   20.1379 C   0  0  0  0  0  0  0  0  0  0  0  0
    4.9107    0.8197   21.1075 H   0  0  0  0  0  0  0  0  0  0  0  0
    4.8175    1.3524   19.0154 C   0  0  0  0  0  0  0  0  0  0  0  0
    3.8664    1.8694   19.0758 H   0  0  0  0  0  0  0  0  0  0  0  0
  1  2  1  0
  2  3  2  0
  3  4  1  0
  4  5  1  0
  4  6  2  0
  6  7  1  0
  7  8  2  3
  8  9  1  0
  9 10  2  0
 10 11  1  0
 10 12  1  0
 12 13  1  0
 12 14  2  0
 14 15  1  0
 14 16  1  0
 16 17  1  0
 16 18  2  0
 18 19  1  0
  7 20  1  0
 20 21  1  0
 20 22  1  0
  6 23  1  0
 23 24  1  0
 23 25  2  0
 25 26  1  0
 25  2  1  0
 18  9  1  0
M  END
>  <cnnaffinity>  (1) 
-5.19467

>  <filename>  (1) 
NC(=Nc1cccc(Cl)c1Cl)c1cccnc1

$$$$
