
     RDKit          3D

 27 28  0  0  0  0  0  0  0  0999 V2000
    8.4025    0.0870   26.3589 H   0  0  0  0  0  0  0  0  0  0  0  0
    8.3173   -0.5806   25.5018 C   0  0  0  0  0  0  0  0  0  0  0  0
    7.9445   -0.0363   24.3752 N   0  0  0  0  0  0  0  0  0  0  0  0
    7.8263   -0.8470   23.3059 C   0  0  0  0  0  0  0  0  0  0  0  0
    7.2507   -0.2567   22.2541 N   0  0  0  0  0  0  0  0  0  0  0  0
    7.4282   -0.6530   21.0610 C   0  0  0  0  0  0  0  0  0  0  0  0
    6.6474   -0.0329   19.9823 C   0  0  0  0  0  0  0  0  0  0  0  0
    7.1918   -0.0149   18.6985 C   0  0  0  0  0  0  0  0  0  0  0  0
    8.1565   -0.4842   18.4968 H   0  0  0  0  0  0  0  0  0  0  0  0
    6.6152    0.5984   17.6612 N   0  0  0  0  0  0  0  0  0  0  0  0
    5.4542    1.2315   17.8807 C   0  0  0  0  0  0  0  0  0  0  0  0
    5.0166    1.7455   17.0272 H   0  0  0  0  0  0  0  0  0  0  0  0
    4.8194    1.2632   19.1280 C   0  0  0  0  0  0  0  0  0  0  0  0
    3.8958    1.8168   19.2524 H   0  0  0  0  0  0  0  0  0  0  0  0
    5.4230    0.6245   20.2029 C   0  0  0  0  0  0  0  0  0  0  0  0
    4.9871    0.6499   21.2023 H   0  0  0  0  0  0  0  0  0  0  0  0
    8.3629   -1.5644   20.6882 N   0  0  0  0  0  0  0  0  0  0  0  0
    8.6124   -2.1143   21.5102 H   0  0  0  0  0  0  0  0  0  0  0  0
    8.0386   -2.1304   19.9157 H   0  0  0  0  0  0  0  0  0  0  0  0
    8.1605   -2.1581   23.3146 N   0  0  0  0  0  0  0  0  0  0  0  0
    8.4582   -2.7305   24.4945 C   0  0  0  0  0  0  0  0  0  0  0  0
    8.6970   -4.2763   24.5939 C   0  0  0  0  0  0  0  0  0  0  0  0
    9.9508   -4.5300   25.0242 F   0  0  0  0  0  0  0  0  0  0  0  0
    7.8709   -4.8338   25.5055 F   0  0  0  0  0  0  0  0  0  0  0  0
    8.5219   -4.9309   23.4420 F   0  0  0  0  0  0  0  0  0  0  0  0
    8.5874   -1.9531   25.6429 C   0  0  0  0  0  0  0  0  0  0  0  0
    8.8887   -2.3660   26.5935 H   0  0  0  0  0  0  0  0  0  0  0  0
  1  2  1  0
  2  3  2  0
  3  4  1  0
  4  5  1  0
  5  6  2  3
  6  7  1  0
  7  8  2  0
  8  9  1  0
  8 10  1  0
 10 11  2  0
 11 12  1  0
 11 13  1  0
 13 14  1  0
 13 15  2  0
 15 16  1  0
  6 17  1  0
 17 18  1  0
 17 19  1  0
  4 20  2  0
 20 21  1  0
 21 22  1  0
 22 23  1  0
 22 24  1  0
 22 25  1  0
 21 26  2  0
 26 27  1  0
 26  2  1  0
 15  7  1  0
M  END
>  <cnnaffinity>  (1) 
-5.06371

>  <filename>  (1) 
NC(=Nc1nccc(C(F)(F)F)n1)c1cccnc1

$$$$
