
     RDKit          3D

 31 32  0  0  0  0  0  0  0  0999 V2000
    4.9751    1.7545   17.0065 H   0  0  0  0  0  0  0  0  0  0  0  0
    5.4399    1.2616   17.8577 C   0  0  0  0  0  0  0  0  0  0  0  0
    6.6026    0.6257   17.6363 N   0  0  0  0  0  0  0  0  0  0  0  0
    7.1943    0.0180   18.6759 C   0  0  0  0  0  0  0  0  0  0  0  0
    8.1405   -0.4758   18.4579 H   0  0  0  0  0  0  0  0  0  0  0  0
    6.6738    0.0199   20.0002 C   0  0  0  0  0  0  0  0  0  0  0  0
    7.2846   -0.5968   21.1300 N   0  0  0  0  0  0  0  0  0  0  0  0
    7.9782   -1.3108   21.0502 H   0  0  0  0  0  0  0  0  0  0  0  0
    7.4652   -0.0240   22.3360 C   0  0  0  0  0  0  0  0  0  0  0  0
    6.9977    1.1315   22.5376 N   0  0  0  0  0  0  0  0  0  0  0  0
    7.2488    1.5694   24.0635 S   0  0  0  0  0  0  0  0  0  0  0  0
    8.6683    1.5984   24.3387 O   0  0  0  0  0  0  0  0  0  0  0  0
    6.3769    0.7210   24.8664 O   0  0  0  0  0  0  0  0  0  0  0  0
    6.6573    3.2371   24.0147 C   0  0  0  0  0  0  0  0  0  0  0  0
    5.6951    3.6157   23.0659 C   0  0  0  0  0  0  0  0  0  0  0  0
    5.3191    2.9051   22.3295 H   0  0  0  0  0  0  0  0  0  0  0  0
    5.2361    4.9294   23.0326 C   0  0  0  0  0  0  0  0  0  0  0  0
    4.5062    5.2345   22.2936 H   0  0  0  0  0  0  0  0  0  0  0  0
    5.7412    5.8611   23.9390 C   0  0  0  0  0  0  0  0  0  0  0  0
    5.1741    7.4998   23.8865 Cl  0  0  0  0  0  0  0  0  0  0  0  0
    6.7020    5.4928   24.8833 C   0  0  0  0  0  0  0  0  0  0  0  0
    7.0826    6.2325   25.5762 H   0  0  0  0  0  0  0  0  0  0  0  0
    7.1716    4.1801   24.9212 C   0  0  0  0  0  0  0  0  0  0  0  0
    7.9370    3.9028   25.6471 H   0  0  0  0  0  0  0  0  0  0  0  0
    8.1571   -0.8428   23.1516 N   0  0  0  0  0  0  0  0  0  0  0  0
    7.8978   -0.6116   24.1017 H   0  0  0  0  0  0  0  0  0  0  0  0
    7.8749   -1.7669   22.8881 H   0  0  0  0  0  0  0  0  0  0  0  0
    5.4507    0.6753   20.1953 C   0  0  0  0  0  0  0  0  0  0  0  0
    5.0300    0.6915   21.1985 H   0  0  0  0  0  0  0  0  0  0  0  0
    4.8238    1.2939   19.1110 C   0  0  0  0  0  0  0  0  0  0  0  0
    3.8866    1.8236   19.2471 H   0  0  0  0  0  0  0  0  0  0  0  0
  1  2  1  0
  2  3  2  0
  3  4  1  0
  4  5  1  0
  4  6  2  0
  6  7  1  0
  7  8  1  0
  7  9  1  0
  9 10  2  3
 10 11  1  0
 11 12  2  0
 11 13  2  0
 11 14  1  0
 14 15  2  0
 15 16  1  0
 15 17  1  0
 17 18  1  0
 17 19  2  0
 19 20  1  0
 19 21  1  0
 21 22  1  0
 21 23  2  0
 23 24  1  0
  9 25  1  0
 25 26  1  0
 25 27  1  0
  6 28  1  0
 28 29  1  0
 28 30  2  0
 30 31  1  0
 30  2  1  0
 23 14  1  0
M  END
>  <cnnaffinity>  (1) 
-4.62373

>  <filename>  (1) 
NC(=NS(=O)(=O)c1ccc(Cl)cc1)Nc1cccnc1

$$$$
