
     RDKit          3D

 33 34  0  0  0  0  0  0  0  0999 V2000
    4.9049    1.8269   17.0272 H   0  0  0  0  0  0  0  0  0  0  0  0
    5.3956    1.2929   17.8337 C   0  0  0  0  0  0  0  0  0  0  0  0
    6.5383    0.6640   17.5132 N   0  0  0  0  0  0  0  0  0  0  0  0
    7.1885    0.0278   18.4959 C   0  0  0  0  0  0  0  0  0  0  0  0
    8.1115   -0.4779   18.2318 H   0  0  0  0  0  0  0  0  0  0  0  0
    6.7244   -0.0070   19.8256 C   0  0  0  0  0  0  0  0  0  0  0  0
    7.3548   -0.6857   20.8721 O   0  0  0  0  0  0  0  0  0  0  0  0
    8.7132   -0.7390   20.9885 C   0  0  0  0  0  0  0  0  0  0  0  0
    9.4856   -0.1504   20.2760 O   0  0  0  0  0  0  0  0  0  0  0  0
    9.1295   -1.6432   22.1724 C   0  0  0  0  0  0  0  0  0  0  0  0
   10.1111   -2.0409   21.9041 H   0  0  0  0  0  0  0  0  0  0  0  0
    8.4486   -2.4939   22.2499 H   0  0  0  0  0  0  0  0  0  0  0  0
    9.2861   -1.0215   23.4895 N   0  0  0  0  0  0  0  0  0  0  0  0
   10.0807   -0.3797   23.5245 H   0  0  0  0  0  0  0  0  0  0  0  0
    8.2255   -0.4145   24.1472 C   0  0  0  0  0  0  0  0  0  0  0  0
    6.9302   -0.9515   24.1593 C   0  0  0  0  0  0  0  0  0  0  0  0
    6.7014   -1.8509   23.5938 H   0  0  0  0  0  0  0  0  0  0  0  0
    5.9136   -0.3223   24.8832 C   0  0  0  0  0  0  0  0  0  0  0  0
    4.9164   -0.7548   24.9238 H   0  0  0  0  0  0  0  0  0  0  0  0
    6.1689    0.8633   25.5808 C   0  0  0  0  0  0  0  0  0  0  0  0
    5.3766    1.3527   26.1396 H   0  0  0  0  0  0  0  0  0  0  0  0
    7.4491    1.4106   25.5683 C   0  0  0  0  0  0  0  0  0  0  0  0
    7.6327    2.3563   26.0817 H   0  0  0  0  0  0  0  0  0  0  0  0
    8.4931    0.7684   24.8780 C   0  0  0  0  0  0  0  0  0  0  0  0
    9.8755    1.3139   24.8365 C   0  0  0  0  0  0  0  0  0  0  0  0
   10.6406    1.2443   23.8813 O   0  0  0  0  0  0  0  0  0  0  0  0
   10.3175    1.9127   25.9555 N   0  0  0  0  0  0  0  0  0  0  0  0
   11.3034    2.1137   25.9022 H   0  0  0  0  0  0  0  0  0  0  0  0
    9.8997    1.6477   26.8313 H   0  0  0  0  0  0  0  0  0  0  0  0
    5.5128    0.6084   20.1434 C   0  0  0  0  0  0  0  0  0  0  0  0
    5.1344    0.5580   21.1654 H   0  0  0  0  0  0  0  0  0  0  0  0
    4.8420    1.2831   19.1210 C   0  0  0  0  0  0  0  0  0  0  0  0
    3.9172    1.8179   19.3164 H   0  0  0  0  0  0  0  0  0  0  0  0
  1  2  1  0
  2  3  2  0
  3  4  1  0
  4  5  1  0
  4  6  2  0
  6  7  1  0
  7  8  1  0
  8  9  2  0
  8 10  1  0
 10 11  1  0
 10 12  1  0
 10 13  1  0
 13 14  1  0
 13 15  1  0
 15 16  2  0
 16 17  1  0
 16 18  1  0
 18 19  1  0
 18 20  2  0
 20 21  1  0
 20 22  1  0
 22 23  1  0
 22 24  2  0
 24 25  1  0
 25 26  2  0
 25 27  1  0
 27 28  1  0
 27 29  1  0
  6 30  1  0
 30 31  1  0
 30 32  2  0
 32 33  1  0
 32  2  1  0
 24 15  1  0
M  END
>  <cnnaffinity>  (1) 
-4.42077

>  <filename>  (1) 
NC(=O)c1ccccc1NCC(=O)Oc1cccnc1

$$$$
