
     RDKit          3D

 35 36  0  0  0  0  0  0  0  0999 V2000
    5.0587    1.7615   16.8917 H   0  0  0  0  0  0  0  0  0  0  0  0
    5.4728    1.2552   17.7626 C   0  0  0  0  0  0  0  0  0  0  0  0
    6.6212    0.5816   17.5811 N   0  0  0  0  0  0  0  0  0  0  0  0
    7.1667   -0.0254   18.6474 C   0  0  0  0  0  0  0  0  0  0  0  0
    8.0932   -0.5653   18.4599 H   0  0  0  0  0  0  0  0  0  0  0  0
    6.6170    0.0073   19.9534 C   0  0  0  0  0  0  0  0  0  0  0  0
    7.2200   -0.6195   21.0836 N   0  0  0  0  0  0  0  0  0  0  0  0
    8.1068   -1.0861   21.0021 H   0  0  0  0  0  0  0  0  0  0  0  0
    7.2178   -0.1433   22.3724 C   0  0  0  0  0  0  0  0  0  0  0  0
    6.7194    0.9386   22.7693 N   0  0  0  0  0  0  0  0  0  0  0  0
    7.1046    1.4989   24.0081 C   0  0  0  0  0  0  0  0  0  0  0  0
    7.6157    2.4649   23.8587 H   0  0  0  0  0  0  0  0  0  0  0  0
    7.7694    0.8963   24.6538 H   0  0  0  0  0  0  0  0  0  0  0  0
    5.8450    1.7462   24.6525 N   0  0  0  0  0  0  0  0  0  0  0  0
    5.2913    2.1292   23.8971 H   0  0  0  0  0  0  0  0  0  0  0  0
    5.1769    0.6198   25.1072 C   0  0  0  0  0  0  0  0  0  0  0  0
    5.7064   -0.4739   25.2348 O   0  0  0  0  0  0  0  0  0  0  0  0
    3.7263    0.8601   25.4493 C   0  0  0  0  0  0  0  0  0  0  0  0
    3.2837    2.1278   25.8787 C   0  0  0  0  0  0  0  0  0  0  0  0
    3.9824    2.9625   25.9046 H   0  0  0  0  0  0  0  0  0  0  0  0
    1.9631    2.3153   26.2887 C   0  0  0  0  0  0  0  0  0  0  0  0
    1.6429    3.2892   26.6502 H   0  0  0  0  0  0  0  0  0  0  0  0
    1.0545    1.2529   26.2265 C   0  0  0  0  0  0  0  0  0  0  0  0
    0.0284    1.3959   26.5555 H   0  0  0  0  0  0  0  0  0  0  0  0
    1.4729    0.0003   25.7622 C   0  0  0  0  0  0  0  0  0  0  0  0
    0.7622   -0.8205   25.6937 H   0  0  0  0  0  0  0  0  0  0  0  0
    2.8035   -0.2014   25.3851 C   0  0  0  0  0  0  0  0  0  0  0  0
    3.1335   -1.1815   25.0411 H   0  0  0  0  0  0  0  0  0  0  0  0
    7.8460   -1.0751   23.1651 N   0  0  0  0  0  0  0  0  0  0  0  0
    7.3973   -1.0250   24.0802 H   0  0  0  0  0  0  0  0  0  0  0  0
    7.6129   -1.9501   22.7276 H   0  0  0  0  0  0  0  0  0  0  0  0
    5.3821    0.6596   20.0967 C   0  0  0  0  0  0  0  0  0  0  0  0
    4.8902    0.6379   21.0654 H   0  0  0  0  0  0  0  0  0  0  0  0
    4.8112    1.3039   18.9932 C   0  0  0  0  0  0  0  0  0  0  0  0
    3.8765    1.8520   19.0883 H   0  0  0  0  0  0  0  0  0  0  0  0
  1  2  1  0
  2  3  2  0
  3  4  1  0
  4  5  1  0
  4  6  2  0
  6  7  1  0
  7  8  1  0
  7  9  1  0
  9 10  2  3
 10 11  1  0
 11 12  1  0
 11 13  1  0
 11 14  1  0
 14 15  1  0
 14 16  1  0
 16 17  2  0
 16 18  1  0
 18 19  2  0
 19 20  1  0
 19 21  1  0
 21 22  1  0
 21 23  2  0
 23 24  1  0
 23 25  1  0
 25 26  1  0
 25 27  2  0
 27 28  1  0
  9 29  1  0
 29 30  1  0
 29 31  1  0
  6 32  1  0
 32 33  1  0
 32 34  2  0
 34 35  1  0
 34  2  1  0
 27 18  1  0
M  END
>  <cnnaffinity>  (1) 
-4.39296

>  <filename>  (1) 
NC(=NCNC(=O)c1ccccc1)Nc1cccnc1

$$$$
