
     RDKit          3D

 31 33  0  0  0  0  0  0  0  0999 V2000
    5.0227    1.7627   16.9588 H   0  0  0  0  0  0  0  0  0  0  0  0
    5.4620    1.2455   17.8063 C   0  0  0  0  0  0  0  0  0  0  0  0
    6.6198    0.6065   17.5724 N   0  0  0  0  0  0  0  0  0  0  0  0
    7.1984   -0.0322   18.5994 C   0  0  0  0  0  0  0  0  0  0  0  0
    8.1433   -0.5366   18.3881 H   0  0  0  0  0  0  0  0  0  0  0  0
    6.6637   -0.0557   19.9105 C   0  0  0  0  0  0  0  0  0  0  0  0
    7.2778   -0.7181   21.0062 N   0  0  0  0  0  0  0  0  0  0  0  0
    8.0608   -1.3304   20.8658 H   0  0  0  0  0  0  0  0  0  0  0  0
    7.4544   -0.1781   22.2599 C   0  0  0  0  0  0  0  0  0  0  0  0
    7.0295    0.9452   22.6355 N   0  0  0  0  0  0  0  0  0  0  0  0
    7.2736    1.5446   23.8823 C   0  0  0  0  0  0  0  0  0  0  0  0
    8.5198    1.4739   24.5804 C   0  0  0  0  0  0  0  0  0  0  0  0
    9.3187    0.8879   24.1396 H   0  0  0  0  0  0  0  0  0  0  0  0
    8.7304    2.1488   25.7769 C   0  0  0  0  0  0  0  0  0  0  0  0
    9.6700    2.0752   26.3171 H   0  0  0  0  0  0  0  0  0  0  0  0
    7.6619    2.9176   26.2880 C   0  0  0  0  0  0  0  0  0  0  0  0
    6.4291    3.0290   25.6121 C   0  0  0  0  0  0  0  0  0  0  0  0
    5.6518    3.8917   26.4468 C   0  0  0  0  0  0  0  0  0  0  0  0
    4.6379    4.2310   26.2801 H   0  0  0  0  0  0  0  0  0  0  0  0
    6.3224    4.2636   27.5188 N   0  0  0  0  0  0  0  0  0  0  0  0
    7.5341    3.6697   27.4132 N   0  0  0  0  0  0  0  0  0  0  0  0
    8.2384    3.7972   28.1211 H   0  0  0  0  0  0  0  0  0  0  0  0
    6.2444    2.3369   24.3928 C   0  0  0  0  0  0  0  0  0  0  0  0
    5.3247    2.4075   23.8217 H   0  0  0  0  0  0  0  0  0  0  0  0
    8.1641   -1.1147   22.9892 N   0  0  0  0  0  0  0  0  0  0  0  0
    7.7796   -1.9921   22.6796 H   0  0  0  0  0  0  0  0  0  0  0  0
    7.9432   -0.9636   23.9619 H   0  0  0  0  0  0  0  0  0  0  0  0
    5.4442    0.6053   20.1264 C   0  0  0  0  0  0  0  0  0  0  0  0
    5.0247    0.6057   21.1312 H   0  0  0  0  0  0  0  0  0  0  0  0
    4.8341    1.2627   19.0562 C   0  0  0  0  0  0  0  0  0  0  0  0
    3.9035    1.8054   19.1908 H   0  0  0  0  0  0  0  0  0  0  0  0
  1  2  1  0
  2  3  2  0
  3  4  1  0
  4  5  1  0
  4  6  2  0
  6  7  1  0
  7  8  1  0
  7  9  1  0
  9 10  2  3
 10 11  1  0
 11 12  2  0
 12 13  1  0
 12 14  1  0
 14 15  1  0
 14 16  2  0
 16 17  1  0
 17 18  1  0
 18 19  1  0
 18 20  2  0
 20 21  1  0
 21 22  1  0
 17 23  2  0
 23 24  1  0
  9 25  1  0
 25 26  1  0
 25 27  1  0
  6 28  1  0
 28 29  1  0
 28 30  2  0
 30 31  1  0
 30  2  1  0
 23 11  1  0
 21 16  1  0
M  END
>  <cnnaffinity>  (1) 
-4.67457

>  <filename>  (1) 
NC(=Nc1ccc2[nH]ncc2c1)Nc1cccnc1

$$$$
