
     RDKit          3D

 37 39  0  0  0  0  0  0  0  0999 V2000
    4.9557    1.8061   16.9808 H   0  0  0  0  0  0  0  0  0  0  0  0
    5.4118    1.2915   17.8223 C   0  0  0  0  0  0  0  0  0  0  0  0
    6.5634    0.6543   17.5777 N   0  0  0  0  0  0  0  0  0  0  0  0
    7.1626    0.0372   18.6106 C   0  0  0  0  0  0  0  0  0  0  0  0
    8.1076   -0.4445   18.3512 H   0  0  0  0  0  0  0  0  0  0  0  0
    6.6608   -0.0038   19.9298 C   0  0  0  0  0  0  0  0  0  0  0  0
    7.3351   -0.7842   21.0924 C   0  0  0  0  0  0  0  0  0  0  0  0
    6.4453   -2.0624   21.4181 C   0  0  2  0  0  0  0  0  0  0  0  0
    5.4959   -1.6491   21.7715 H   0  0  0  0  0  0  0  0  0  0  0  0
    6.9718   -2.9637   22.4485 N   0  0  0  0  0  0  0  0  0  0  0  0
    7.2321   -4.0473   21.8450 C   0  0  0  0  0  0  0  0  0  0  0  0
    7.9446   -5.0676   22.3917 N   0  0  0  0  0  0  0  0  0  0  0  0
    7.8524   -4.9514   23.3889 H   0  0  0  0  0  0  0  0  0  0  0  0
    7.6093   -5.9516   22.0596 H   0  0  0  0  0  0  0  0  0  0  0  0
    6.8164   -4.2431   20.5871 O   0  0  0  0  0  0  0  0  0  0  0  0
    6.1482   -3.0139   20.2346 C   0  0  0  0  0  0  0  0  0  0  0  0
    6.5186   -2.6600   19.2673 H   0  0  0  0  0  0  0  0  0  0  0  0
    5.0818   -3.2114   20.1232 H   0  0  0  0  0  0  0  0  0  0  0  0
    8.8086   -1.1883   20.7874 C   0  0  0  0  0  0  0  0  0  0  0  0
    9.1493   -1.8701   21.5779 H   0  0  0  0  0  0  0  0  0  0  0  0
    8.8598   -1.7640   19.8615 H   0  0  0  0  0  0  0  0  0  0  0  0
    9.7894   -0.0062   20.7101 C   0  0  0  0  0  0  0  0  0  0  0  0
   10.8063   -0.4028   20.5886 H   0  0  0  0  0  0  0  0  0  0  0  0
    9.5617    0.5917   19.8187 H   0  0  0  0  0  0  0  0  0  0  0  0
    9.7374    0.9072   21.9408 C   0  0  0  0  0  0  0  0  0  0  0  0
   10.1709    0.3816   22.8039 H   0  0  0  0  0  0  0  0  0  0  0  0
   10.3652    1.7940   21.7788 H   0  0  0  0  0  0  0  0  0  0  0  0
    8.2952    1.3163   22.2669 C   0  0  0  0  0  0  0  0  0  0  0  0
    8.2687    1.9077   23.1915 H   0  0  0  0  0  0  0  0  0  0  0  0
    7.8985    1.9643   21.4711 H   0  0  0  0  0  0  0  0  0  0  0  0
    7.3908    0.0823   22.3993 C   0  0  0  0  0  0  0  0  0  0  0  0
    6.3826    0.3852   22.7028 H   0  0  0  0  0  0  0  0  0  0  0  0
    7.7693   -0.5570   23.2099 H   0  0  0  0  0  0  0  0  0  0  0  0
    5.4322    0.6519   20.1394 C   0  0  0  0  0  0  0  0  0  0  0  0
    4.9652    0.6577   21.1239 H   0  0  0  0  0  0  0  0  0  0  0  0
    4.8044    1.3101   19.0794 C   0  0  0  0  0  0  0  0  0  0  0  0
    3.8742    1.8468   19.2253 H   0  0  0  0  0  0  0  0  0  0  0  0
  1  2  1  0
  2  3  2  0
  3  4  1  0
  4  5  1  0
  4  6  2  0
  6  7  1  0
  7  8  1  0
  8  9  1  1
  8 10  1  0
 10 11  2  0
 11 12  1  0
 12 13  1  0
 12 14  1  0
 11 15  1  0
 15 16  1  0
 16 17  1  0
 16 18  1  0
  7 19  1  0
 19 20  1  0
 19 21  1  0
 19 22  1  0
 22 23  1  0
 22 24  1  0
 22 25  1  0
 25 26  1  0
 25 27  1  0
 25 28  1  0
 28 29  1  0
 28 30  1  0
 28 31  1  0
 31 32  1  0
 31 33  1  0
  6 34  1  0
 34 35  1  0
 34 36  2  0
 36 37  1  0
 36  2  1  0
 31  7  1  0
 16  8  1  0
M  END
>  <cnnaffinity>  (1) 
-4.96269

>  <filename>  (1) 
NC1=N[C@@H](C2(c3cccnc3)CCCCC2)CO1

$$$$
