
     RDKit          3D

 38 41  0  0  0  0  0  0  0  0999 V2000
    4.9083    1.9388   17.1393 H   0  0  0  0  0  0  0  0  0  0  0  0
    5.4328    1.4818   17.9755 C   0  0  0  0  0  0  0  0  0  0  0  0
    6.6390    0.9632   17.7045 N   0  0  0  0  0  0  0  0  0  0  0  0
    7.3008    0.3858   18.7152 C   0  0  0  0  0  0  0  0  0  0  0  0
    8.2825   -0.0035   18.4427 H   0  0  0  0  0  0  0  0  0  0  0  0
    6.8080    0.2439   20.0374 C   0  0  0  0  0  0  0  0  0  0  0  0
    7.6467   -0.4213   21.1548 C   0  0  2  0  0  0  0  0  0  0  0  0
    8.5661    0.7031   21.7773 C   0  0  2  0  0  0  0  0  0  0  0  0
    9.1299    1.0887   20.9130 H   0  0  0  0  0  0  0  0  0  0  0  0
    9.5603    0.2818   22.7620 N   0  0  0  0  0  0  0  0  0  0  0  0
    9.3722    1.0085   23.7788 C   0  0  0  0  0  0  0  0  0  0  0  0
   10.0793    0.8877   24.9258 N   0  0  0  0  0  0  0  0  0  0  0  0
   10.9147    0.3933   24.6501 H   0  0  0  0  0  0  0  0  0  0  0  0
   10.2210    1.8186   25.2825 H   0  0  0  0  0  0  0  0  0  0  0  0
    8.4645    1.9872   23.7542 O   0  0  0  0  0  0  0  0  0  0  0  0
    7.8437    1.8997   22.4535 C   0  0  0  0  0  0  0  0  0  0  0  0
    8.0193    2.8511   21.9379 H   0  0  0  0  0  0  0  0  0  0  0  0
    6.7625    1.7672   22.5848 H   0  0  0  0  0  0  0  0  0  0  0  0
    8.5589   -1.5864   20.6300 C   0  0  0  0  0  0  0  0  0  0  0  0
    9.6231   -1.3654   20.7528 H   0  0  0  0  0  0  0  0  0  0  0  0
    8.3742   -1.7033   19.5682 H   0  0  0  0  0  0  0  0  0  0  0  0
    8.1942   -2.8303   21.4715 C   0  0  2  0  0  0  0  0  0  0  0  0
    8.9780   -3.5887   21.4713 H   0  0  0  0  0  0  0  0  0  0  0  0
    6.8207   -3.3846   21.0731 C   0  0  0  0  0  0  0  0  0  0  0  0
    6.6157   -4.3060   21.6316 H   0  0  0  0  0  0  0  0  0  0  0  0
    6.7167   -3.6358   20.0169 H   0  0  0  0  0  0  0  0  0  0  0  0
    5.8670   -2.2501   21.5243 C   0  0  0  0  0  0  0  0  0  0  0  0
    5.1206   -2.6560   22.2124 H   0  0  0  0  0  0  0  0  0  0  0  0
    5.3416   -1.7976   20.6806 H   0  0  0  0  0  0  0  0  0  0  0  0
    6.8159   -1.2293   22.2269 C   0  0  1  0  0  0  0  0  0  0  0  0
    6.3076   -0.5974   22.9642 H   0  0  0  0  0  0  0  0  0  0  0  0
    7.8564   -2.1986   22.8273 C   0  0  0  0  0  0  0  0  0  0  0  0
    8.7099   -1.7097   23.3018 H   0  0  0  0  0  0  0  0  0  0  0  0
    7.4186   -2.9021   23.5473 H   0  0  0  0  0  0  0  0  0  0  0  0
    5.5479    0.8175   20.2877 C   0  0  0  0  0  0  0  0  0  0  0  0
    5.0929    0.7526   21.2789 H   0  0  0  0  0  0  0  0  0  0  0  0
    4.8559    1.4452   19.2454 C   0  0  0  0  0  0  0  0  0  0  0  0
    3.8935    1.9200   19.4112 H   0  0  0  0  0  0  0  0  0  0  0  0
  1  2  1  0
  2  3  2  0
  3  4  1  0
  4  5  1  0
  4  6  2  0
  7  6  1  6
  7  8  1  0
  8  9  1  6
  8 10  1  0
 10 11  2  0
 11 12  1  0
 12 13  1  0
 12 14  1  0
 11 15  1  0
 15 16  1  0
 16 17  1  0
 16 18  1  0
  7 19  1  0
 19 20  1  0
 19 21  1  0
 19 22  1  0
 22 23  1  1
 22 24  1  0
 24 25  1  0
 24 26  1  0
 24 27  1  0
 27 28  1  0
 27 29  1  0
 27 30  1  0
 30 31  1  1
 30 32  1  0
 32 33  1  0
 32 34  1  0
  6 35  1  0
 35 36  1  0
 35 37  2  0
 37 38  1  0
 37  2  1  0
 30  7  1  0
 16  8  1  0
 32 22  1  0
M  END
>  <cnnaffinity>  (1) 
-5.30316

>  <filename>  (1) 
NC1=N[C@@H]([C@@]2(c3cccnc3)C[C@@H]3CC[C@H]2C3)CO1

$$$$
