
     RDKit          3D

 25 26  0  0  0  0  0  0  0  0999 V2000
    7.3814   -2.4384   20.2092 H   0  0  0  0  0  0  0  0  0  0  0  0
    7.7825   -1.8289   21.0121 C   0  0  0  0  0  0  0  0  0  0  0  0
    7.3329   -0.5769   21.1087 C   0  0  0  0  0  0  0  0  0  0  0  0
    7.5169    0.3575   22.5607 Cl  0  0  0  0  0  0  0  0  0  0  0  0
    6.6238    0.1017   20.0032 C   0  0  0  0  0  0  0  0  0  0  0  0
    7.1691    0.0699   18.7095 C   0  0  0  0  0  0  0  0  0  0  0  0
    8.1121   -0.4533   18.5597 H   0  0  0  0  0  0  0  0  0  0  0  0
    6.6133    0.6547   17.6434 N   0  0  0  0  0  0  0  0  0  0  0  0
    5.4413    1.2840   17.8359 C   0  0  0  0  0  0  0  0  0  0  0  0
    4.9756    1.7309   16.9596 H   0  0  0  0  0  0  0  0  0  0  0  0
    4.8031    1.3580   19.0812 C   0  0  0  0  0  0  0  0  0  0  0  0
    3.8521    1.8694   19.1733 H   0  0  0  0  0  0  0  0  0  0  0  0
    5.4081    0.7731   20.1902 C   0  0  0  0  0  0  0  0  0  0  0  0
    4.9646    0.8186   21.1838 H   0  0  0  0  0  0  0  0  0  0  0  0
    8.6144   -2.5953   21.9405 C   0  0  0  0  0  0  0  0  0  0  0  0
    8.2359   -3.9003   22.0247 N   0  0  0  0  0  0  0  0  0  0  0  0
    8.8554   -4.6389   22.9453 C   0  0  0  0  0  0  0  0  0  0  0  0
    8.5348   -5.6695   23.0036 H   0  0  0  0  0  0  0  0  0  0  0  0
    9.9123   -4.1184   23.7719 C   0  0  0  0  0  0  0  0  0  0  0  0
   10.5911   -4.7571   24.7875 N   0  0  0  0  0  0  0  0  0  0  0  0
   10.8543   -5.7200   24.6527 H   0  0  0  0  0  0  0  0  0  0  0  0
   11.3768   -4.1422   24.9731 H   0  0  0  0  0  0  0  0  0  0  0  0
   10.3501   -2.8595   23.6086 N   0  0  0  0  0  0  0  0  0  0  0  0
    9.6947   -2.1045   22.7062 C   0  0  0  0  0  0  0  0  0  0  0  0
   10.0530   -1.0840   22.5617 H   0  0  0  0  0  0  0  0  0  0  0  0
  1  2  1  0
  2  3  2  3
  3  4  1  0
  3  5  1  0
  5  6  2  0
  6  7  1  0
  6  8  1  0
  8  9  2  0
  9 10  1  0
  9 11  1  0
 11 12  1  0
 11 13  2  0
 13 14  1  0
  2 15  1  0
 15 16  2  0
 16 17  1  0
 17 18  1  0
 17 19  2  0
 19 20  1  0
 20 21  1  0
 20 22  1  0
 19 23  1  0
 23 24  2  0
 24 25  1  0
 13  5  1  0
 24 15  1  0
M  END
>  <cnnaffinity>  (1) 
-5.27746

>  <filename>  (1) 
Nc1cnc(C=C(Cl)c2cccnc2)cn1

$$$$
