
     RDKit          3D

 30 32  0  0  0  0  0  0  0  0999 V2000
    9.3337   -6.3935   26.0370 N   0  0  0  0  0  0  0  0  0  0  0  0
    9.0624   -5.0696   25.8247 C   0  0  0  0  0  0  0  0  0  0  0  0
    9.1064   -4.1533   26.9052 C   0  0  0  0  0  0  0  0  0  0  0  0
    8.8046   -2.8120   26.7183 C   0  0  0  0  0  0  0  0  0  0  0  0
    8.4570   -2.3596   25.4256 C   0  0  0  0  0  0  0  0  0  0  0  0
    8.0406   -0.7601   24.9100 S   0  0  0  0  0  0  0  0  0  0  0  0
    7.8462   -1.2836   23.2507 C   0  0  0  0  0  0  0  0  0  0  0  0
    7.3742   -0.2398   22.2883 C   0  0  0  0  0  0  0  0  0  0  0  0
    7.0656    0.8771   22.6560 O   0  0  0  0  0  0  0  0  0  0  0  0
    7.3367   -0.6599   20.9737 N   0  0  0  0  0  0  0  0  0  0  0  0
    6.6686    0.0013   19.9076 C   0  0  0  0  0  0  0  0  0  0  0  0
    5.4515    0.6492   20.1544 C   0  0  0  0  0  0  0  0  0  0  0  0
    4.8133    1.2993   19.0948 C   0  0  0  0  0  0  0  0  0  0  0  0
    5.4032    1.2887   17.8271 C   0  0  0  0  0  0  0  0  0  0  0  0
    6.5660    0.6667   17.5697 N   0  0  0  0  0  0  0  0  0  0  0  0
    7.1760    0.0439   18.5881 C   0  0  0  0  0  0  0  0  0  0  0  0
    8.1286   -0.4304   18.3529 H   0  0  0  0  0  0  0  0  0  0  0  0
    4.9326    1.7961   16.9884 H   0  0  0  0  0  0  0  0  0  0  0  0
    3.8827    1.8315   19.2542 H   0  0  0  0  0  0  0  0  0  0  0  0
    5.0377    0.6445   21.1611 H   0  0  0  0  0  0  0  0  0  0  0  0
    7.9124   -1.4628   20.7815 H   0  0  0  0  0  0  0  0  0  0  0  0
    8.0599   -2.6235   23.1128 C   0  0  0  0  0  0  0  0  0  0  0  0
    8.4196   -3.2662   24.3417 C   0  0  0  0  0  0  0  0  0  0  0  0
    8.7209   -4.6219   24.5532 C   0  0  0  0  0  0  0  0  0  0  0  0
    8.6934   -5.3360   23.7402 H   0  0  0  0  0  0  0  0  0  0  0  0
    7.9397   -3.2145   22.2072 H   0  0  0  0  0  0  0  0  0  0  0  0
    8.8393   -2.1290   27.5646 H   0  0  0  0  0  0  0  0  0  0  0  0
    9.3804   -4.5500   27.8776 H   0  0  0  0  0  0  0  0  0  0  0  0
    9.6400   -6.7186   26.9366 H   0  0  0  0  0  0  0  0  0  0  0  0
    9.3563   -7.0243   25.2583 H   0  0  0  0  0  0  0  0  0  0  0  0
  1  2  1  0
  2  3  2  0
  3  4  1  0
  4  5  2  0
  5  6  1  0
  6  7  1  0
  7  8  1  0
  8  9  2  0
  8 10  1  0
 10 11  1  0
 11 12  2  0
 12 13  1  0
 13 14  2  0
 14 15  1  0
 15 16  2  0
 16 17  1  0
 14 18  1  0
 13 19  1  0
 12 20  1  0
 10 21  1  0
  7 22  2  0
 22 23  1  0
 23 24  2  0
 24 25  1  0
 22 26  1  0
  4 27  1  0
  3 28  1  0
  1 29  1  0
  1 30  1  0
 24  2  1  0
 23  5  1  0
 16 11  1  0
M  END
>  <cnnaffinity>  (1) 
-5.15424

>  <filename>  (1) 
Nc1ccc2sc(C(=O)Nc3cccnc3)cc2c1

$$$$
