
     RDKit          3D

 30 32  0  0  0  0  0  0  0  0999 V2000
    8.4549   -3.5687   27.0516 H   0  0  0  0  0  0  0  0  0  0  0  0
    8.9859   -3.4901   26.1075 C   0  0  0  0  0  0  0  0  0  0  0  0
    8.4790   -2.7102   25.1484 N   0  0  0  0  0  0  0  0  0  0  0  0
    9.1606   -2.6625   23.9820 C   0  0  0  0  0  0  0  0  0  0  0  0
    8.5360   -2.0103   22.9035 N   0  0  0  0  0  0  0  0  0  0  0  0
    9.3223   -1.2461   22.0609 N   0  0  0  0  0  0  0  0  0  0  0  0
    8.7228   -0.5876   21.1144 C   0  0  0  0  0  0  0  0  0  0  0  0
    9.3724    0.0365   20.5050 H   0  0  0  0  0  0  0  0  0  0  0  0
    7.2924   -0.6569   20.8667 C   0  0  0  0  0  0  0  0  0  0  0  0
    6.6336    0.1085   19.7735 C   0  0  0  0  0  0  0  0  0  0  0  0
    7.1431    0.1238   18.4603 C   0  0  0  0  0  0  0  0  0  0  0  0
    8.0671   -0.4064   18.2346 H   0  0  0  0  0  0  0  0  0  0  0  0
    6.5584    0.7360   17.4236 N   0  0  0  0  0  0  0  0  0  0  0  0
    5.4113    1.3900   17.6642 C   0  0  0  0  0  0  0  0  0  0  0  0
    4.9483    1.8815   16.8116 H   0  0  0  0  0  0  0  0  0  0  0  0
    4.8118    1.4481   18.9265 C   0  0  0  0  0  0  0  0  0  0  0  0
    3.8830    1.9909   19.0585 H   0  0  0  0  0  0  0  0  0  0  0  0
    5.4304    0.7961   19.9935 C   0  0  0  0  0  0  0  0  0  0  0  0
    5.0007    0.8253   20.9953 H   0  0  0  0  0  0  0  0  0  0  0  0
    6.5590   -1.5070   21.6410 C   0  0  0  0  0  0  0  0  0  0  0  0
    5.4983   -1.6496   21.5009 H   0  0  0  0  0  0  0  0  0  0  0  0
    7.1469   -2.3584   22.6447 C   0  0  0  0  0  0  0  0  0  0  0  0
    6.5802   -3.2796   23.1943 O   0  0  0  0  0  0  0  0  0  0  0  0
   10.4035   -3.3172   23.8290 C   0  0  0  0  0  0  0  0  0  0  0  0
   10.9820   -3.1944   22.9219 H   0  0  0  0  0  0  0  0  0  0  0  0
   10.8846   -4.1424   24.7644 N   0  0  0  0  0  0  0  0  0  0  0  0
   10.1729   -4.2563   25.9016 C   0  0  0  0  0  0  0  0  0  0  0  0
   10.7383   -5.2046   26.7326 N   0  0  0  0  0  0  0  0  0  0  0  0
   11.5638   -5.4592   26.1953 H   0  0  0  0  0  0  0  0  0  0  0  0
   10.9839   -4.8955   27.6615 H   0  0  0  0  0  0  0  0  0  0  0  0
  1  2  1  0
  2  3  2  0
  3  4  1  0
  4  5  1  0
  5  6  1  0
  6  7  2  0
  7  8  1  0
  7  9  1  0
  9 10  1  0
 10 11  2  0
 11 12  1  0
 11 13  1  0
 13 14  2  0
 14 15  1  0
 14 16  1  0
 16 17  1  0
 16 18  2  0
 18 19  1  0
  9 20  2  0
 20 21  1  0
 20 22  1  0
 22 23  2  0
  4 24  2  0
 24 25  1  0
 24 26  1  0
 26 27  2  0
 27 28  1  0
 28 29  1  0
 28 30  1  0
 27  2  1  0
 22  5  1  0
 18 10  1  0
M  END
>  <cnnaffinity>  (1) 
-5.16629

>  <filename>  (1) 
Nc1cnc(-n2ncc(-c3cccnc3)cc2=O)cn1

$$$$
