
     RDKit          3D

 39 40  0  0  0  0  0  0  0  0999 V2000
    7.5583   -5.6882   22.0359 N   0  0  0  0  0  0  0  0  0  0  0  0
    6.4800   -5.2750   22.7874 C   0  0  0  0  0  0  0  0  0  0  0  0
    5.5424   -6.1533   23.4159 C   0  0  0  0  0  0  0  0  0  0  0  0
    4.5341   -5.7300   24.1712 N   0  0  0  0  0  0  0  0  0  0  0  0
    4.3822   -4.4042   24.3767 C   0  0  0  0  0  0  0  0  0  0  0  0
    3.2025   -3.9122   25.2291 C   0  0  0  0  0  0  0  0  0  0  0  0
    2.3411   -3.1825   24.4874 F   0  0  0  0  0  0  0  0  0  0  0  0
    3.6281   -3.1018   26.2235 F   0  0  0  0  0  0  0  0  0  0  0  0
    2.4970   -4.8940   25.7933 F   0  0  0  0  0  0  0  0  0  0  0  0
    5.2546   -3.4554   23.8085 C   0  0  0  0  0  0  0  0  0  0  0  0
    6.2795   -3.8807   22.9424 C   0  0  0  0  0  0  0  0  0  0  0  0
    7.1957   -2.9555   22.1743 C   0  0  0  0  0  0  0  0  0  0  0  0
    8.3974   -3.1764   22.0229 O   0  0  0  0  0  0  0  0  0  0  0  0
    6.6206   -1.8708   21.6059 N   0  0  0  0  0  0  0  0  0  0  0  0
    7.4083   -0.7944   21.0230 C   0  0  2  0  0  0  0  0  0  0  0  0
    7.8655    0.1757   22.1358 C   0  0  0  0  0  0  0  0  0  0  0  0
    8.6818    1.3689   21.6451 C   0  0  0  0  0  0  0  0  0  0  0  0
    9.9174    0.9726   21.0833 O   0  0  0  0  0  0  0  0  0  0  0  0
    9.7258    0.4399   20.3014 H   0  0  0  0  0  0  0  0  0  0  0  0
    8.9214    2.0162   22.4981 H   0  0  0  0  0  0  0  0  0  0  0  0
    8.0925    1.9664   20.9262 H   0  0  0  0  0  0  0  0  0  0  0  0
    8.4564   -0.3979   22.8590 H   0  0  0  0  0  0  0  0  0  0  0  0
    6.9748    0.5434   22.6627 H   0  0  0  0  0  0  0  0  0  0  0  0
    6.6322   -0.0989   19.9297 C   0  0  0  0  0  0  0  0  0  0  0  0
    5.4246    0.5838   20.1655 C   0  0  0  0  0  0  0  0  0  0  0  0
    4.8267    1.2706   19.1081 C   0  0  0  0  0  0  0  0  0  0  0  0
    5.4481    1.2584   17.8561 C   0  0  0  0  0  0  0  0  0  0  0  0
    6.5918    0.6037   17.6055 N   0  0  0  0  0  0  0  0  0  0  0  0
    7.1552   -0.0510   18.6297 C   0  0  0  0  0  0  0  0  0  0  0  0
    8.0842   -0.5809   18.3958 H   0  0  0  0  0  0  0  0  0  0  0  0
    5.0076    1.7870   17.0143 H   0  0  0  0  0  0  0  0  0  0  0  0
    3.9006    1.8201   19.2412 H   0  0  0  0  0  0  0  0  0  0  0  0
    4.9690    0.5923   21.1584 H   0  0  0  0  0  0  0  0  0  0  0  0
    8.3023   -1.2629   20.5810 H   0  0  0  0  0  0  0  0  0  0  0  0
    5.6247   -1.7655   21.6942 H   0  0  0  0  0  0  0  0  0  0  0  0
    5.1663   -2.4116   24.1013 H   0  0  0  0  0  0  0  0  0  0  0  0
    5.6531   -7.2357   23.3129 H   0  0  0  0  0  0  0  0  0  0  0  0
    8.2754   -4.9615   22.0346 H   0  0  0  0  0  0  0  0  0  0  0  0
    7.9044   -6.6171   22.2182 H   0  0  0  0  0  0  0  0  0  0  0  0
  1  2  1  0
  2  3  2  0
  3  4  1  0
  4  5  2  0
  5  6  1  0
  6  7  1  0
  6  8  1  0
  6  9  1  0
  5 10  1  0
 10 11  2  0
 11 12  1  0
 12 13  2  0
 12 14  1  0
 14 15  1  0
 15 16  1  0
 16 17  1  0
 17 18  1  0
 18 19  1  0
 17 20  1  0
 17 21  1  0
 16 22  1  0
 16 23  1  0
 15 24  1  0
 24 25  2  0
 25 26  1  0
 26 27  2  0
 27 28  1  0
 28 29  2  0
 29 30  1  0
 27 31  1  0
 26 32  1  0
 25 33  1  0
 15 34  1  6
 14 35  1  0
 10 36  1  0
  3 37  1  0
  1 38  1  0
  1 39  1  0
 11  2  1  0
 29 24  1  0
M  END
>  <cnnaffinity>  (1) 
-5.30186

>  <filename>  (1) 
Nc1cnc(C(F)(F)F)cc1C(=O)N[C@H](CCO)c1cccnc1

$$$$
