
     RDKit          3D

 24 25  0  0  0  0  0  0  0  0999 V2000
    4.9281    1.7936   16.9900 H   0  0  0  0  0  0  0  0  0  0  0  0
    5.3973    1.2924   17.8349 C   0  0  0  0  0  0  0  0  0  0  0  0
    6.5609    0.6717   17.5798 N   0  0  0  0  0  0  0  0  0  0  0  0
    7.1686    0.0514   18.5979 C   0  0  0  0  0  0  0  0  0  0  0  0
    8.1145   -0.4334   18.3690 H   0  0  0  0  0  0  0  0  0  0  0  0
    6.6404   -0.0007   19.8946 C   0  0  0  0  0  0  0  0  0  0  0  0
    7.5965   -0.7563   21.1945 S   0  0  0  0  0  0  0  0  0  0  0  0
    8.4993    0.5818   21.6979 N   0  0  0  0  0  0  0  0  0  0  0  0
    9.3109    0.7720   21.1220 H   0  0  0  0  0  0  0  0  0  0  0  0
    8.0619    1.5555   22.6401 C   0  0  0  0  0  0  0  0  0  0  0  0
    8.7337    2.7843   22.8526 C   0  0  0  0  0  0  0  0  0  0  0  0
    9.6090    3.0221   22.2349 H   0  0  0  0  0  0  0  0  0  0  0  0
    8.3889    3.6915   23.7632 N   0  0  0  0  0  0  0  0  0  0  0  0
    7.3190    3.3692   24.4891 C   0  0  0  0  0  0  0  0  0  0  0  0
    6.9725    4.2424   25.4073 N   0  0  0  0  0  0  0  0  0  0  0  0
    7.5357    5.0635   25.4275 H   0  0  0  0  0  0  0  0  0  0  0  0
    6.1598    3.9918   25.9259 H   0  0  0  0  0  0  0  0  0  0  0  0
    6.5577    2.2802   24.4141 N   0  0  0  0  0  0  0  0  0  0  0  0
    6.9436    1.3962   23.4930 C   0  0  0  0  0  0  0  0  0  0  0  0
    6.3468    0.4813   23.4263 H   0  0  0  0  0  0  0  0  0  0  0  0
    5.4253    0.6395   20.1514 C   0  0  0  0  0  0  0  0  0  0  0  0
    4.9955    0.6309   21.1539 H   0  0  0  0  0  0  0  0  0  0  0  0
    4.7937    1.3052   19.0983 C   0  0  0  0  0  0  0  0  0  0  0  0
    3.8676    1.8478   19.2488 H   0  0  0  0  0  0  0  0  0  0  0  0
  1  2  1  0
  2  3  2  0
  3  4  1  0
  4  5  1  0
  4  6  2  0
  6  7  1  0
  7  8  1  0
  8  9  1  0
  8 10  1  0
 10 11  2  0
 11 12  1  0
 11 13  1  0
 13 14  2  0
 14 15  1  0
 15 16  1  0
 15 17  1  0
 14 18  1  0
 18 19  2  0
 19 20  1  0
  6 21  1  0
 21 22  1  0
 21 23  2  0
 23 24  1  0
 23  2  1  0
 19 10  1  0
M  END
>  <cnnaffinity>  (1) 
-4.47148

>  <filename>  (1) 
Nc1ncc(NSc2cccnc2)cn1

$$$$
