
     RDKit          3D

 32 33  0  0  0  0  0  0  0  0999 V2000
    4.9209    1.8202   16.9757 H   0  0  0  0  0  0  0  0  0  0  0  0
    5.3815    1.3014   17.8160 C   0  0  0  0  0  0  0  0  0  0  0  0
    6.5424    0.6769   17.5555 N   0  0  0  0  0  0  0  0  0  0  0  0
    7.1399    0.0399   18.5661 C   0  0  0  0  0  0  0  0  0  0  0  0
    8.1082   -0.4050   18.3352 H   0  0  0  0  0  0  0  0  0  0  0  0
    6.6310   -0.0445   19.8782 C   0  0  0  0  0  0  0  0  0  0  0  0
    7.4208   -0.7070   20.9943 C   0  0  0  0  0  0  0  0  0  0  0  0
    7.9736   -1.5856   20.6459 H   0  0  0  0  0  0  0  0  0  0  0  0
    6.7589   -1.0413   21.8011 H   0  0  0  0  0  0  0  0  0  0  0  0
    8.4616    0.2122   21.6544 C   0  0  0  0  0  0  0  0  0  0  0  0
    9.3991    0.5538   20.7085 F   0  0  0  0  0  0  0  0  0  0  0  0
    9.1301   -0.5359   22.5873 F   0  0  0  0  0  0  0  0  0  0  0  0
    7.8656    1.4581   22.2952 C   0  0  0  0  0  0  0  0  0  0  0  0
    7.8642    2.6833   21.6134 C   0  0  0  0  0  0  0  0  0  0  0  0
    8.3954    2.7361   20.6660 H   0  0  0  0  0  0  0  0  0  0  0  0
    7.2002    3.7909   22.1483 C   0  0  0  0  0  0  0  0  0  0  0  0
    7.1869    4.7401   21.6133 H   0  0  0  0  0  0  0  0  0  0  0  0
    6.5476    3.6848   23.3834 C   0  0  0  0  0  0  0  0  0  0  0  0
    6.0584    4.5574   23.8161 H   0  0  0  0  0  0  0  0  0  0  0  0
    6.5363    2.4652   24.0877 C   0  0  0  0  0  0  0  0  0  0  0  0
    5.9055    2.3581   25.4690 C   0  0  0  0  0  0  0  0  0  0  0  0
    5.0526    3.0473   25.5534 H   0  0  0  0  0  0  0  0  0  0  0  0
    5.5007    1.3454   25.6183 H   0  0  0  0  0  0  0  0  0  0  0  0
    6.8452    2.6413   26.5648 N   0  0  0  0  0  0  0  0  0  0  0  0
    7.2398    3.5669   26.4028 H   0  0  0  0  0  0  0  0  0  0  0  0
    7.6352    2.0023   26.4711 H   0  0  0  0  0  0  0  0  0  0  0  0
    7.1889    1.3585   23.5197 C   0  0  0  0  0  0  0  0  0  0  0  0
    7.1733    0.4015   24.0407 H   0  0  0  0  0  0  0  0  0  0  0  0
    5.4239    0.6283   20.1278 C   0  0  0  0  0  0  0  0  0  0  0  0
    5.0215    0.6441   21.1442 H   0  0  0  0  0  0  0  0  0  0  0  0
    4.7882    1.3050   19.0827 C   0  0  0  0  0  0  0  0  0  0  0  0
    3.8629    1.8551   19.2273 H   0  0  0  0  0  0  0  0  0  0  0  0
  1  2  1  0
  2  3  2  0
  3  4  1  0
  4  5  1  0
  4  6  2  0
  6  7  1  0
  7  8  1  0
  7  9  1  0
  7 10  1  0
 10 11  1  0
 10 12  1  0
 10 13  1  0
 13 14  2  0
 14 15  1  0
 14 16  1  0
 16 17  1  0
 16 18  2  0
 18 19  1  0
 18 20  1  0
 20 21  1  0
 21 22  1  0
 21 23  1  0
 21 24  1  0
 24 25  1  0
 24 26  1  0
 20 27  2  0
 27 28  1  0
  6 29  1  0
 29 30  1  0
 29 31  2  0
 31 32  1  0
 31  2  1  0
 27 13  1  0
M  END
>  <cnnaffinity>  (1) 
-4.53013

>  <filename>  (1) 
NCc1cccc(C(F)(F)Cc2cccnc2)c1

$$$$
