
     RDKit          3D

 29 30  0  0  0  0  0  0  0  0999 V2000
    4.9353    1.7816   17.0003 H   0  0  0  0  0  0  0  0  0  0  0  0
    5.4085    1.2870   17.8449 C   0  0  0  0  0  0  0  0  0  0  0  0
    6.5712    0.6683   17.5863 N   0  0  0  0  0  0  0  0  0  0  0  0
    7.1898    0.0629   18.6049 C   0  0  0  0  0  0  0  0  0  0  0  0
    8.1288   -0.4401   18.3694 H   0  0  0  0  0  0  0  0  0  0  0  0
    6.6734    0.0187   19.9142 C   0  0  0  0  0  0  0  0  0  0  0  0
    7.3810   -0.6718   20.9397 N   0  0  0  0  0  0  0  0  0  0  0  0
    8.7498   -0.4900   21.2105 C   0  0  0  0  0  0  0  0  0  0  0  0
    9.3889    0.1656   20.6503 H   0  0  0  0  0  0  0  0  0  0  0  0
    9.0572   -1.3075   22.2339 C   0  0  0  0  0  0  0  0  0  0  0  0
   10.2403   -1.5977   22.8430 N   0  0  0  0  0  0  0  0  0  0  0  0
   10.2326   -2.2778   23.5847 H   0  0  0  0  0  0  0  0  0  0  0  0
   11.4277   -0.8231   22.4961 C   0  0  0  0  0  0  0  0  0  0  0  0
   12.3413   -1.3357   22.8270 H   0  0  0  0  0  0  0  0  0  0  0  0
   11.5127   -0.7539   21.4021 H   0  0  0  0  0  0  0  0  0  0  0  0
   11.4202    0.6189   23.0551 C   0  0  0  0  0  0  0  0  0  0  0  0
   11.2809    0.5580   24.1479 H   0  0  0  0  0  0  0  0  0  0  0  0
   10.5246    1.1227   22.6596 H   0  0  0  0  0  0  0  0  0  0  0  0
   12.6202    1.3660   22.6387 N   0  0  0  0  0  0  0  0  0  0  0  0
   12.5494    2.3397   22.9262 H   0  0  0  0  0  0  0  0  0  0  0  0
   13.4465    1.0057   23.1100 H   0  0  0  0  0  0  0  0  0  0  0  0
    7.9097   -1.9571   22.5989 N   0  0  0  0  0  0  0  0  0  0  0  0
    7.7937   -2.6653   23.2982 H   0  0  0  0  0  0  0  0  0  0  0  0
    6.8932   -1.6910   21.7328 C   0  0  0  0  0  0  0  0  0  0  0  0
    5.5088   -2.6070   21.6314 S   0  0  0  0  0  0  0  0  0  0  0  0
    5.4491    0.6436   20.1735 C   0  0  0  0  0  0  0  0  0  0  0  0
    5.0163    0.6115   21.1737 H   0  0  0  0  0  0  0  0  0  0  0  0
    4.8194    1.3027   19.1135 C   0  0  0  0  0  0  0  0  0  0  0  0
    3.8870    1.8295   19.2594 H   0  0  0  0  0  0  0  0  0  0  0  0
  1  2  1  0
  2  3  2  0
  3  4  1  0
  4  5  1  0
  4  6  2  0
  6  7  1  0
  7  8  1  0
  8  9  1  0
  8 10  2  0
 10 11  1  0
 11 12  1  0
 11 13  1  0
 13 14  1  0
 13 15  1  0
 13 16  1  0
 16 17  1  0
 16 18  1  0
 16 19  1  0
 19 20  1  0
 19 21  1  0
 10 22  1  0
 22 23  1  0
 22 24  1  0
 24 25  2  0
  6 26  1  0
 26 27  1  0
 26 28  2  0
 28 29  1  0
 28  2  1  0
 24  7  1  0
M  END
>  <cnnaffinity>  (1) 
-4.62741

>  <filename>  (1) 
NCCNc1cn(-c2cccnc2)c(=S)[nH]1

$$$$
