
     RDKit          3D

 25 26  0  0  0  0  0  0  0  0999 V2000
    4.9264    1.7849   16.9894 H   0  0  0  0  0  0  0  0  0  0  0  0
    5.4005    1.2919   17.8349 C   0  0  0  0  0  0  0  0  0  0  0  0
    6.5642    0.6752   17.5813 N   0  0  0  0  0  0  0  0  0  0  0  0
    7.1673    0.0540   18.5989 C   0  0  0  0  0  0  0  0  0  0  0  0
    8.1157   -0.4341   18.3710 H   0  0  0  0  0  0  0  0  0  0  0  0
    6.6425    0.0244   19.9014 C   0  0  0  0  0  0  0  0  0  0  0  0
    7.3958   -0.6786   20.9450 C   0  0  0  0  0  0  0  0  0  0  0  0
    8.1853   -1.7166   20.7779 N   0  0  0  0  0  0  0  0  0  0  0  0
    8.6443   -2.0583   21.9959 N   0  0  0  0  0  0  0  0  0  0  0  0
    8.1836   -1.2718   22.9064 N   0  0  0  0  0  0  0  0  0  0  0  0
    7.4064   -0.3971   22.2673 N   0  0  0  0  0  0  0  0  0  0  0  0
    6.7329    0.6331   22.8497 O   0  0  0  0  0  0  0  0  0  0  0  0
    6.9739    0.8817   24.2553 C   0  0  0  0  0  0  0  0  0  0  0  0
    6.8364   -0.0321   24.8374 H   0  0  0  0  0  0  0  0  0  0  0  0
    6.1674    1.5719   24.4935 H   0  0  0  0  0  0  0  0  0  0  0  0
    8.3165    1.5431   24.5085 C   0  0  0  0  0  0  0  0  0  0  0  0
    9.1077    0.8697   24.1331 H   0  0  0  0  0  0  0  0  0  0  0  0
    8.3552    2.4640   23.9118 H   0  0  0  0  0  0  0  0  0  0  0  0
    8.4208    1.9140   25.9273 N   0  0  0  0  0  0  0  0  0  0  0  0
    8.5087    1.0768   26.5012 H   0  0  0  0  0  0  0  0  0  0  0  0
    9.2894    2.4169   26.0938 H   0  0  0  0  0  0  0  0  0  0  0  0
    5.4190    0.6622   20.1564 C   0  0  0  0  0  0  0  0  0  0  0  0
    4.9894    0.6569   21.1599 H   0  0  0  0  0  0  0  0  0  0  0  0
    4.7959    1.3107   19.0962 C   0  0  0  0  0  0  0  0  0  0  0  0
    3.8677    1.8463   19.2459 H   0  0  0  0  0  0  0  0  0  0  0  0
  1  2  1  0
  2  3  2  0
  3  4  1  0
  4  5  1  0
  4  6  2  0
  6  7  1  0
  7  8  2  0
  8  9  1  0
  9 10  2  0
 10 11  1  0
 11 12  1  0
 12 13  1  0
 13 14  1  0
 13 15  1  0
 13 16  1  0
 16 17  1  0
 16 18  1  0
 16 19  1  0
 19 20  1  0
 19 21  1  0
  6 22  1  0
 22 23  1  0
 22 24  2  0
 24 25  1  0
 24  2  1  0
 11  7  1  0
M  END
>  <cnnaffinity>  (1) 
-4.2555

>  <filename>  (1) 
NCCOn1nnnc1-c1cccnc1

$$$$
