
     RDKit          3D

 34 36  0  0  0  0  0  0  0  0999 V2000
    6.1853   -2.1581   24.2083 N   0  0  0  0  0  0  0  0  0  0  0  0
    7.2278   -2.9103   23.5744 N   0  0  0  0  0  0  0  0  0  0  0  0
    7.5317   -3.0592   22.2308 C   0  0  0  0  0  0  0  0  0  0  0  0
    6.5786   -2.3090   20.9339 S   0  0  0  0  0  0  0  0  0  0  0  0
    7.2992   -0.6132   20.8884 C   0  0  0  0  0  0  0  0  0  0  0  0
    6.6100    0.1322   19.7773 C   0  0  0  0  0  0  0  0  0  0  0  0
    5.3971    0.7987   19.9953 C   0  0  0  0  0  0  0  0  0  0  0  0
    4.7684    1.4307   18.9246 C   0  0  0  0  0  0  0  0  0  0  0  0
    5.3803    1.3887   17.6675 C   0  0  0  0  0  0  0  0  0  0  0  0
    6.5407    0.7526   17.4357 N   0  0  0  0  0  0  0  0  0  0  0  0
    7.1263    0.1433   18.4715 C   0  0  0  0  0  0  0  0  0  0  0  0
    8.0703   -0.3597   18.2500 H   0  0  0  0  0  0  0  0  0  0  0  0
    4.9259    1.8741   16.8070 H   0  0  0  0  0  0  0  0  0  0  0  0
    3.8278    1.9591   19.0483 H   0  0  0  0  0  0  0  0  0  0  0  0
    4.9595    0.8233   20.9955 H   0  0  0  0  0  0  0  0  0  0  0  0
    7.1345   -0.1184   21.8509 H   0  0  0  0  0  0  0  0  0  0  0  0
    8.3773   -0.6876   20.7227 H   0  0  0  0  0  0  0  0  0  0  0  0
    8.5902   -3.8178   22.0903 N   0  0  0  0  0  0  0  0  0  0  0  0
    9.0352   -4.1494   23.3493 N   0  0  0  0  0  0  0  0  0  0  0  0
    8.2410   -3.5931   24.2240 C   0  0  0  0  0  0  0  0  0  0  0  0
    8.3321   -3.6832   25.7226 C   0  0  0  0  0  0  0  0  0  0  0  0
    9.7753   -3.8723   26.2379 C   0  0  0  0  0  0  0  0  0  0  0  0
    9.8983   -5.3931   26.4912 C   0  0  0  0  0  0  0  0  0  0  0  0
    8.6413   -5.9513   26.1570 O   0  0  0  0  0  0  0  0  0  0  0  0
    7.6725   -4.9436   26.3208 C   0  0  0  0  0  0  0  0  0  0  0  0
    6.7558   -5.2930   25.8368 H   0  0  0  0  0  0  0  0  0  0  0  0
    7.4608   -4.7670   27.3904 H   0  0  0  0  0  0  0  0  0  0  0  0
   10.6543   -5.8842   25.8679 H   0  0  0  0  0  0  0  0  0  0  0  0
   10.1588   -5.5913   27.5443 H   0  0  0  0  0  0  0  0  0  0  0  0
   10.5201   -3.5114   25.5220 H   0  0  0  0  0  0  0  0  0  0  0  0
    9.8903   -3.3231   27.1782 H   0  0  0  0  0  0  0  0  0  0  0  0
    7.8698   -2.7692   26.1050 H   0  0  0  0  0  0  0  0  0  0  0  0
    5.7182   -2.7694   24.8873 H   0  0  0  0  0  0  0  0  0  0  0  0
    5.4602   -1.9574   23.5065 H   0  0  0  0  0  0  0  0  0  0  0  0
  1  2  1  0
  2  3  1  0
  3  4  1  0
  4  5  1  0
  5  6  1  0
  6  7  2  0
  7  8  1  0
  8  9  2  0
  9 10  1  0
 10 11  2  0
 11 12  1  0
  9 13  1  0
  8 14  1  0
  7 15  1  0
  5 16  1  0
  5 17  1  0
  3 18  2  0
 18 19  1  0
 19 20  2  0
 20 21  1  0
 21 22  1  0
 22 23  1  0
 23 24  1  0
 24 25  1  0
 25 26  1  0
 25 27  1  0
 23 28  1  0
 23 29  1  0
 22 30  1  0
 22 31  1  0
 21 32  1  0
  1 33  1  0
  1 34  1  0
 20  2  1  0
 25 21  1  0
 11  6  1  0
M  END
>  <cnnaffinity>  (1) 
-4.92872

>  <filename>  (1) 
Nn1c(SCc2cccnc2)nnc1C1CCOC1

$$$$
