
     RDKit          3D

 23 24  0  0  0  0  0  0  0  0999 V2000
    4.9779    1.8633   17.0154 H   0  0  0  0  0  0  0  0  0  0  0  0
    5.4514    1.3067   17.8189 C   0  0  0  0  0  0  0  0  0  0  0  0
    6.6105    0.6947   17.5211 N   0  0  0  0  0  0  0  0  0  0  0  0
    7.2041    0.0095   18.5033 C   0  0  0  0  0  0  0  0  0  0  0  0
    8.1498   -0.4779   18.2777 H   0  0  0  0  0  0  0  0  0  0  0  0
    6.6749   -0.1219   19.8013 C   0  0  0  0  0  0  0  0  0  0  0  0
    7.4112   -0.8323   20.7960 N   0  0  0  0  0  0  0  0  0  0  0  0
    8.7276   -0.5008   21.1319 C   0  0  0  0  0  0  0  0  0  0  0  0
    9.2842    0.2766   20.6459 H   0  0  0  0  0  0  0  0  0  0  0  0
    9.0858   -1.3014   22.1581 C   0  0  0  0  0  0  0  0  0  0  0  0
   10.2195   -1.4357   22.9055 N   0  0  0  0  0  0  0  0  0  0  0  0
   10.1065   -1.9207   23.7903 H   0  0  0  0  0  0  0  0  0  0  0  0
   11.3537   -0.6925   22.5899 N   0  0  0  0  0  0  0  0  0  0  0  0
   11.5524    0.0681   23.2417 H   0  0  0  0  0  0  0  0  0  0  0  0
   12.1732   -1.2836   22.5005 H   0  0  0  0  0  0  0  0  0  0  0  0
    8.0039   -2.1125   22.4268 N   0  0  0  0  0  0  0  0  0  0  0  0
    7.9546   -2.8370   23.1178 H   0  0  0  0  0  0  0  0  0  0  0  0
    6.9782   -1.9031   21.5517 C   0  0  0  0  0  0  0  0  0  0  0  0
    5.6171   -2.8404   21.4000 S   0  0  0  0  0  0  0  0  0  0  0  0
    5.4667    0.5160   20.1041 C   0  0  0  0  0  0  0  0  0  0  0  0
    5.0591    0.4724   21.1174 H   0  0  0  0  0  0  0  0  0  0  0  0
    4.8498    1.2485   19.0846 C   0  0  0  0  0  0  0  0  0  0  0  0
    3.9281    1.7909   19.2703 H   0  0  0  0  0  0  0  0  0  0  0  0
  1  2  1  0
  2  3  2  0
  3  4  1  0
  4  5  1  0
  4  6  2  0
  6  7  1  0
  7  8  1  0
  8  9  1  0
  8 10  2  0
 10 11  1  0
 11 12  1  0
 11 13  1  0
 13 14  1  0
 13 15  1  0
 10 16  1  0
 16 17  1  0
 16 18  1  0
 18 19  2  0
  6 20  1  0
 20 21  1  0
 20 22  2  0
 22 23  1  0
 22  2  1  0
 18  7  1  0
M  END
>  <cnnaffinity>  (1) 
-4.31632

>  <filename>  (1) 
NNc1cn(-c2cccnc2)c(=S)[nH]1

$$$$
