
     RDKit          3D

 32 34  0  0  0  0  0  0  0  0999 V2000
    4.9967    1.7972   17.0075 H   0  0  0  0  0  0  0  0  0  0  0  0
    5.4461    1.2711   17.8452 C   0  0  0  0  0  0  0  0  0  0  0  0
    6.6037    0.6350   17.6003 N   0  0  0  0  0  0  0  0  0  0  0  0
    7.1935    0.0308   18.6366 C   0  0  0  0  0  0  0  0  0  0  0  0
    8.1329   -0.4800   18.4381 H   0  0  0  0  0  0  0  0  0  0  0  0
    6.6881    0.0222   19.9516 C   0  0  0  0  0  0  0  0  0  0  0  0
    7.3959   -0.5850   20.9812 N   0  0  0  0  0  0  0  0  0  0  0  0
    6.8578   -0.6738   22.2095 N   0  0  0  0  0  0  0  0  0  0  0  0
    7.6794   -1.3342   22.9658 C   0  0  0  0  0  0  0  0  0  0  0  0
    7.3894   -1.5758   24.3681 C   0  0  0  0  0  0  0  0  0  0  0  0
    8.2587   -2.3508   25.1591 C   0  0  0  0  0  0  0  0  0  0  0  0
    9.1646   -2.7785   24.7186 H   0  0  0  0  0  0  0  0  0  0  0  0
    7.9510   -2.5483   26.5053 C   0  0  0  0  0  0  0  0  0  0  0  0
    8.6267   -3.1191   27.1334 H   0  0  0  0  0  0  0  0  0  0  0  0
    6.7827   -2.0044   27.0486 C   0  0  0  0  0  0  0  0  0  0  0  0
    6.5166   -2.1410   28.0829 H   0  0  0  0  0  0  0  0  0  0  0  0
    5.9209   -1.2456   26.2472 C   0  0  0  0  0  0  0  0  0  0  0  0
    4.6655   -0.6946   26.8297 N   0  0  0  0  0  4  0  0  0  0  0  0
    3.9146   -0.0710   26.1000 O   0  0  0  0  0  0  0  0  0  0  0  0
    4.4450   -0.8948   28.0133 O   0  0  0  0  0  1  0  0  0  0  0  0
    6.2286   -1.0005   24.9159 C   0  0  0  0  0  0  0  0  0  0  0  0
    5.6073   -0.3546   24.3007 H   0  0  0  0  0  0  0  0  0  0  0  0
    8.9153   -1.7902   22.2436 C   0  0  0  0  0  0  0  0  0  0  0  0
    9.8234   -1.4491   22.7502 H   0  0  0  0  0  0  0  0  0  0  0  0
    8.9546   -2.8852   22.2110 H   0  0  0  0  0  0  0  0  0  0  0  0
    8.7157   -1.1771   20.8582 C   0  0  0  0  0  0  0  0  0  0  0  0
    9.4788   -0.4343   20.5843 H   0  0  0  0  0  0  0  0  0  0  0  0
    8.7285   -1.9320   20.0702 H   0  0  0  0  0  0  0  0  0  0  0  0
    5.4538    0.6549   20.1849 C   0  0  0  0  0  0  0  0  0  0  0  0
    5.0243    0.6483   21.1866 H   0  0  0  0  0  0  0  0  0  0  0  0
    4.8337    1.2849   19.1075 C   0  0  0  0  0  0  0  0  0  0  0  0
    3.8884    1.8005   19.2420 H   0  0  0  0  0  0  0  0  0  0  0  0
  1  2  1  0
  2  3  2  0
  3  4  1  0
  4  5  1  0
  4  6  2  0
  6  7  1  0
  7  8  1  0
  8  9  2  0
  9 10  1  0
 10 11  2  0
 11 12  1  0
 11 13  1  0
 13 14  1  0
 13 15  2  0
 15 16  1  0
 15 17  1  0
 17 18  1  0
 18 19  2  0
 18 20  1  0
 17 21  2  0
 21 22  1  0
  9 23  1  0
 23 24  1  0
 23 25  1  0
 23 26  1  0
 26 27  1  0
 26 28  1  0
  6 29  1  0
 29 30  1  0
 29 31  2  0
 31 32  1  0
 31  2  1  0
 26  7  1  0
 21 10  1  0
M  CHG  2  18   1  20  -1
M  END
>  <cnnaffinity>  (1) 
-4.79332

>  <filename>  (1) 
O=[N+]([O-])c1cccc(C2=NN(c3cccnc3)CC2)c1

$$$$
