
     RDKit          3D

 38 40  0  0  0  0  0  0  0  0999 V2000
    4.9176    1.7843   16.9928 H   0  0  0  0  0  0  0  0  0  0  0  0
    5.4021    1.2943   17.8332 C   0  0  0  0  0  0  0  0  0  0  0  0
    6.5622    0.6795   17.5752 N   0  0  0  0  0  0  0  0  0  0  0  0
    7.1681    0.0574   18.5985 C   0  0  0  0  0  0  0  0  0  0  0  0
    8.1156   -0.4152   18.3583 H   0  0  0  0  0  0  0  0  0  0  0  0
    6.6614   -0.0168   19.9067 C   0  0  0  0  0  0  0  0  0  0  0  0
    7.3511   -0.7491   21.0721 C   0  0  2  0  0  0  0  0  0  0  0  0
    6.4166   -1.9102   21.5199 C   0  0  0  0  0  0  0  0  0  0  0  0
    6.2169   -2.5384   20.6425 H   0  0  0  0  0  0  0  0  0  0  0  0
    5.4509   -1.4679   21.7503 H   0  0  0  0  0  0  0  0  0  0  0  0
    6.8834   -2.7737   22.6647 C   0  0  0  0  0  0  0  0  0  0  0  0
    7.6105   -3.9507   22.4114 C   0  0  0  0  0  0  0  0  0  0  0  0
    7.8253   -4.2241   21.3813 H   0  0  0  0  0  0  0  0  0  0  0  0
    8.0671   -4.7607   23.4463 C   0  0  0  0  0  0  0  0  0  0  0  0
    8.6260   -5.6680   23.2433 H   0  0  0  0  0  0  0  0  0  0  0  0
    7.7882   -4.3880   24.7708 C   0  0  0  0  0  0  0  0  0  0  0  0
    8.2693   -5.2501   25.8857 N   0  0  0  0  0  4  0  0  0  0  0  0
    8.0198   -4.9126   27.0298 O   0  0  0  0  0  0  0  0  0  0  0  0
    8.8918   -6.2571   25.5855 O   0  0  0  0  0  1  0  0  0  0  0  0
    7.0642   -3.2235   25.0569 C   0  0  0  0  0  0  0  0  0  0  0  0
    6.8516   -2.9485   26.0830 H   0  0  0  0  0  0  0  0  0  0  0  0
    6.6212   -2.4297   24.0017 C   0  0  0  0  0  0  0  0  0  0  0  0
    6.0602   -1.5241   24.2176 H   0  0  0  0  0  0  0  0  0  0  0  0
    7.6959    0.2830   22.1929 C   0  0  0  0  0  0  0  0  0  0  0  0
    7.8658   -0.2289   23.1485 H   0  0  0  0  0  0  0  0  0  0  0  0
    6.9102    1.0294   22.3491 H   0  0  0  0  0  0  0  0  0  0  0  0
    8.9446    0.9360   21.7840 N   0  0  0  0  0  0  0  0  0  0  0  0
    8.7283    1.7805   21.2644 H   0  0  0  0  0  0  0  0  0  0  0  0
    9.6550    0.0084   20.8914 C   0  0  0  0  0  0  0  0  0  0  0  0
    9.7607    0.4692   19.9068 H   0  0  0  0  0  0  0  0  0  0  0  0
   10.6497   -0.2421   21.2847 H   0  0  0  0  0  0  0  0  0  0  0  0
    8.7802   -1.2403   20.7765 C   0  0  0  0  0  0  0  0  0  0  0  0
    9.0806   -1.9583   21.5464 H   0  0  0  0  0  0  0  0  0  0  0  0
    8.8795   -1.7404   19.8162 H   0  0  0  0  0  0  0  0  0  0  0  0
    5.4414    0.6451   20.1463 C   0  0  0  0  0  0  0  0  0  0  0  0
    5.0012    0.6409   21.1494 H   0  0  0  0  0  0  0  0  0  0  0  0
    4.8069    1.3108   19.0996 C   0  0  0  0  0  0  0  0  0  0  0  0
    3.8762    1.8434   19.2562 H   0  0  0  0  0  0  0  0  0  0  0  0
  1  2  1  0
  2  3  2  0
  3  4  1  0
  4  5  1  0
  4  6  2  0
  6  7  1  0
  7  8  1  1
  8  9  1  0
  8 10  1  0
  8 11  1  0
 11 12  2  0
 12 13  1  0
 12 14  1  0
 14 15  1  0
 14 16  2  0
 16 17  1  0
 17 18  2  0
 17 19  1  0
 16 20  1  0
 20 21  1  0
 20 22  2  0
 22 23  1  0
  7 24  1  0
 24 25  1  0
 24 26  1  0
 24 27  1  0
 27 28  1  0
 27 29  1  0
 29 30  1  0
 29 31  1  0
 29 32  1  0
 32 33  1  0
 32 34  1  0
  6 35  1  0
 35 36  1  0
 35 37  2  0
 37 38  1  0
 37  2  1  0
 32  7  1  0
 22 11  1  0
M  CHG  2  17   1  19  -1
M  END
>  <cnnaffinity>  (1) 
-5.01766

>  <filename>  (1) 
O=[N+]([O-])c1ccc(C[C@]2(c3cccnc3)CCNC2)cc1

$$$$
