
     RDKit          3D

 28 30  0  0  0  0  0  0  0  0999 V2000
    4.9638    1.7900   16.9864 H   0  0  0  0  0  0  0  0  0  0  0  0
    5.4125    1.2839   17.8395 C   0  0  0  0  0  0  0  0  0  0  0  0
    6.5721    0.6586   17.5988 N   0  0  0  0  0  0  0  0  0  0  0  0
    7.1759    0.0424   18.6171 C   0  0  0  0  0  0  0  0  0  0  0  0
    8.1256   -0.4359   18.3817 H   0  0  0  0  0  0  0  0  0  0  0  0
    6.6399    0.0122   19.9089 C   0  0  0  0  0  0  0  0  0  0  0  0
    7.3424   -0.6815   20.9739 C   0  0  0  0  0  0  0  0  0  0  0  0
    6.9538   -0.7816   22.2058 N   0  0  0  0  0  0  0  0  0  0  0  0
    7.9581   -1.5245   22.7686 C   0  0  0  0  0  0  0  0  0  0  0  0
    7.9532   -1.8999   24.1947 C   0  0  0  0  0  0  0  0  0  0  0  0
    6.8944   -1.5106   25.0430 C   0  0  0  0  0  0  0  0  0  0  0  0
    6.0695   -0.9308   24.6315 H   0  0  0  0  0  0  0  0  0  0  0  0
    6.9052   -1.8809   26.3950 C   0  0  0  0  0  0  0  0  0  0  0  0
    6.0943   -1.5887   27.0605 H   0  0  0  0  0  0  0  0  0  0  0  0
    7.9479   -2.6699   26.8892 C   0  0  0  0  0  0  0  0  0  0  0  0
    8.0181   -3.0147   27.9092 H   0  0  0  0  0  0  0  0  0  0  0  0
    8.9591   -3.0902   26.0226 C   0  0  0  0  0  0  0  0  0  0  0  0
    9.9541   -4.0839   26.5051 N   0  0  0  0  0  4  0  0  0  0  0  0
    9.8428   -4.4801   27.6514 O   0  0  0  0  0  0  0  0  0  0  0  0
   10.8211   -4.4635   25.7360 O   0  0  0  0  0  1  0  0  0  0  0  0
    9.0043   -2.6796   24.7000 C   0  0  0  0  0  0  0  0  0  0  0  0
    9.8395   -2.9907   24.0818 H   0  0  0  0  0  0  0  0  0  0  0  0
    8.9050   -1.8682   21.9314 N   0  0  0  0  0  0  0  0  0  0  0  0
    8.4974   -1.3031   20.7336 O   0  0  0  0  0  0  0  0  0  0  0  0
    5.4238    0.6624   20.1560 C   0  0  0  0  0  0  0  0  0  0  0  0
    4.9877    0.6587   21.1570 H   0  0  0  0  0  0  0  0  0  0  0  0
    4.7992    1.3117   19.0968 C   0  0  0  0  0  0  0  0  0  0  0  0
    3.8671    1.8492   19.2207 H   0  0  0  0  0  0  0  0  0  0  0  0
  1  2  1  0
  2  3  2  0
  3  4  1  0
  4  5  1  0
  4  6  2  0
  6  7  1  0
  7  8  2  0
  8  9  1  0
  9 10  1  0
 10 11  2  0
 11 12  1  0
 11 13  1  0
 13 14  1  0
 13 15  2  0
 15 16  1  0
 15 17  1  0
 17 18  1  0
 18 19  2  0
 18 20  1  0
 17 21  2  0
 21 22  1  0
  9 23  2  0
 23 24  1  0
  6 25  1  0
 25 26  1  0
 25 27  2  0
 27 28  1  0
 27  2  1  0
 24  7  1  0
 21 10  1  0
M  CHG  2  18   1  20  -1
M  END
>  <cnnaffinity>  (1) 
-4.9214

>  <filename>  (1) 
O=[N+]([O-])c1cccc(-c2noc(-c3cccnc3)n2)c1

$$$$
