
     RDKit          3D

 26 27  0  0  0  0  0  0  0  0999 V2000
    4.9487    1.7921   16.9880 H   0  0  0  0  0  0  0  0  0  0  0  0
    5.4053    1.2945   17.8432 C   0  0  0  0  0  0  0  0  0  0  0  0
    6.5677    0.6709   17.6019 N   0  0  0  0  0  0  0  0  0  0  0  0
    7.1617    0.0349   18.6152 C   0  0  0  0  0  0  0  0  0  0  0  0
    8.1154   -0.4375   18.3863 H   0  0  0  0  0  0  0  0  0  0  0  0
    6.6312   -0.0298   19.9216 C   0  0  0  0  0  0  0  0  0  0  0  0
    7.3639   -0.7602   20.9921 C   0  0  0  0  0  0  0  0  0  0  0  0
    8.4099   -1.9806   20.7666 S   0  0  0  0  0  0  0  0  0  0  0  0
    7.1819   -0.1430   22.6594 S   0  0  0  0  0  0  0  0  0  0  0  0
    8.5231    1.0550   22.5550 C   0  0  0  0  0  0  0  0  0  0  0  0
    8.2238    2.3602   22.1518 C   0  0  0  0  0  0  0  0  0  0  0  0
    7.2084    2.6321   21.8831 H   0  0  0  0  0  0  0  0  0  0  0  0
    9.2303    3.3191   22.0510 C   0  0  0  0  0  0  0  0  0  0  0  0
    8.9443    4.3435   21.8175 H   0  0  0  0  0  0  0  0  0  0  0  0
   10.5684    2.9690   22.2481 C   0  0  0  0  0  0  0  0  0  0  0  0
   11.3902    3.6673   22.1011 H   0  0  0  0  0  0  0  0  0  0  0  0
   10.8629    1.6569   22.6375 C   0  0  0  0  0  0  0  0  0  0  0  0
   12.2712    1.2708   22.9187 N   0  0  0  0  0  4  0  0  0  0  0  0
   13.1422    2.1145   22.7915 O   0  0  0  0  0  0  0  0  0  0  0  0
   12.4849    0.1234   23.2759 O   0  0  0  0  0  1  0  0  0  0  0  0
    9.8533    0.6968   22.8025 C   0  0  0  0  0  0  0  0  0  0  0  0
   10.1184   -0.3131   23.0980 H   0  0  0  0  0  0  0  0  0  0  0  0
    5.4254    0.6552   20.1607 C   0  0  0  0  0  0  0  0  0  0  0  0
    4.9803    0.6643   21.1556 H   0  0  0  0  0  0  0  0  0  0  0  0
    4.8034    1.3199   19.1033 C   0  0  0  0  0  0  0  0  0  0  0  0
    3.8672    1.8473   19.2349 H   0  0  0  0  0  0  0  0  0  0  0  0
  1  2  1  0
  2  3  2  0
  3  4  1  0
  4  5  1  0
  4  6  2  0
  6  7  1  0
  7  8  2  0
  7  9  1  0
  9 10  1  0
 10 11  2  0
 11 12  1  0
 11 13  1  0
 13 14  1  0
 13 15  2  0
 15 16  1  0
 15 17  1  0
 17 18  1  0
 18 19  2  0
 18 20  1  0
 17 21  2  0
 21 22  1  0
  6 23  1  0
 23 24  1  0
 23 25  2  0
 25 26  1  0
 25  2  1  0
 21 10  1  0
M  CHG  2  18   1  20  -1
M  END
>  <cnnaffinity>  (1) 
-4.78914

>  <filename>  (1) 
O=[N+]([O-])c1cccc(SC(=S)c2cccnc2)c1

$$$$
