
     RDKit          3D

 26 27  0  0  0  0  0  0  0  0999 V2000
    5.1638    1.9756   16.9679 H   0  0  0  0  0  0  0  0  0  0  0  0
    5.4984    1.3420   17.7872 C   0  0  0  0  0  0  0  0  0  0  0  0
    6.5646    0.5592   17.5550 N   0  0  0  0  0  0  0  0  0  0  0  0
    6.9942   -0.2266   18.5584 C   0  0  0  0  0  0  0  0  0  0  0  0
    7.8372   -0.8739   18.3159 H   0  0  0  0  0  0  0  0  0  0  0  0
    6.4085   -0.2640   19.8578 C   0  0  0  0  0  0  0  0  0  0  0  0
    6.8651   -1.0283   20.9516 N   0  0  0  0  0  0  0  0  0  0  0  0
    6.3299   -0.8936   21.8043 H   0  0  0  0  0  0  0  0  0  0  0  0
    8.4459   -1.5966   21.1896 S   0  0  0  0  0  0  0  0  0  0  0  0
    9.3714   -0.1142   21.6659 C   0  0  0  0  0  0  0  0  0  0  0  0
    9.7806    0.7882   20.6730 C   0  0  0  0  0  0  0  0  0  0  0  0
    9.5218    0.5802   19.6401 H   0  0  0  0  0  0  0  0  0  0  0  0
   10.5467    1.9138   21.0002 C   0  0  0  0  0  0  0  0  0  0  0  0
   10.8656    2.6264   20.2492 H   0  0  0  0  0  0  0  0  0  0  0  0
   10.9287    2.1579   22.3126 C   0  0  0  0  0  0  0  0  0  0  0  0
   11.5219    3.0376   22.5536 H   0  0  0  0  0  0  0  0  0  0  0  0
   10.5136    1.2563   23.2990 C   0  0  0  0  0  0  0  0  0  0  0  0
   10.9061    1.5326   24.6959 N   0  0  0  0  0  4  0  0  0  0  0  0
   11.9434    2.1495   24.8869 O   0  0  0  0  0  0  0  0  0  0  0  0
   10.1728    1.1249   25.5792 O   0  0  0  0  0  1  0  0  0  0  0  0
    9.7286    0.1289   23.0023 C   0  0  0  0  0  0  0  0  0  0  0  0
    9.3906   -0.5179   23.8105 H   0  0  0  0  0  0  0  0  0  0  0  0
    5.2615    0.5229   20.0463 C   0  0  0  0  0  0  0  0  0  0  0  0
    4.7374    0.4735   21.0011 H   0  0  0  0  0  0  0  0  0  0  0  0
    4.8192    1.3437   19.0082 C   0  0  0  0  0  0  0  0  0  0  0  0
    3.9637    1.9932   19.1372 H   0  0  0  0  0  0  0  0  0  0  0  0
  1  2  1  0
  2  3  2  0
  3  4  1  0
  4  5  1  0
  4  6  2  0
  6  7  1  0
  7  8  1  0
  7  9  1  0
  9 10  1  0
 10 11  2  0
 11 12  1  0
 11 13  1  0
 13 14  1  0
 13 15  2  0
 15 16  1  0
 15 17  1  0
 17 18  1  0
 18 19  2  0
 18 20  1  0
 17 21  2  0
 21 22  1  0
  6 23  1  0
 23 24  1  0
 23 25  2  0
 25 26  1  0
 25  2  1  0
 21 10  1  0
M  CHG  2  18   1  20  -1
M  END
>  <cnnaffinity>  (1) 
-4.54706

>  <filename>  (1) 
O=[N+]([O-])c1cccc(SNc2cccnc2)c1

$$$$
