
     RDKit          3D

 31 32  0  0  0  0  0  0  0  0999 V2000
    4.7563    1.6094   16.9781 H   0  0  0  0  0  0  0  0  0  0  0  0
    5.3613    1.3085   17.8275 C   0  0  0  0  0  0  0  0  0  0  0  0
    6.6755    1.1869   17.5889 N   0  0  0  0  0  0  0  0  0  0  0  0
    7.4574    0.8723   18.6246 C   0  0  0  0  0  0  0  0  0  0  0  0
    8.5304    0.8305   18.4528 H   0  0  0  0  0  0  0  0  0  0  0  0
    6.9540    0.5960   19.9015 C   0  0  0  0  0  0  0  0  0  0  0  0
    8.1501    0.1941   21.1788 S   0  0  0  0  0  4  0  0  0  0  0  0
    9.4546    0.7370   20.6611 O   0  0  0  0  0  0  0  0  0  0  0  0
    8.1836   -1.6665   20.8262 C   0  0  0  0  0  0  0  0  0  0  0  0
    9.0581   -2.0264   21.3712 H   0  0  0  0  0  0  0  0  0  0  0  0
    8.4309   -1.6879   19.7606 H   0  0  0  0  0  0  0  0  0  0  0  0
    7.0417   -2.5685   21.0469 N   0  0  0  0  0  0  0  0  0  0  0  0
    6.1524   -2.3610   20.6010 H   0  0  0  0  0  0  0  0  0  0  0  0
    6.3811   -2.8411   22.5548 S   0  0  0  0  0  0  0  0  0  0  0  0
    6.5815   -1.6675   23.3759 O   0  0  0  0  0  0  0  0  0  0  0  0
    5.0700   -3.3066   22.1340 O   0  0  0  0  0  0  0  0  0  0  0  0
    7.3452   -4.1686   23.2243 C   0  0  0  0  0  0  0  0  0  0  0  0
    8.0476   -3.9492   24.4208 C   0  0  0  0  0  0  0  0  0  0  0  0
    7.9431   -3.0129   24.9692 H   0  0  0  0  0  0  0  0  0  0  0  0
    8.8983   -4.9431   24.9030 C   0  0  0  0  0  0  0  0  0  0  0  0
    9.4567   -4.7701   25.8178 H   0  0  0  0  0  0  0  0  0  0  0  0
    9.0452   -6.1510   24.2155 C   0  0  0  0  0  0  0  0  0  0  0  0
    9.7244   -6.9166   24.5884 H   0  0  0  0  0  0  0  0  0  0  0  0
    8.2916   -6.3783   23.0581 C   0  0  0  0  0  0  0  0  0  0  0  0
    8.3894   -7.3264   22.5416 H   0  0  0  0  0  0  0  0  0  0  0  0
    7.4127   -5.4076   22.5678 C   0  0  0  0  0  0  0  0  0  0  0  0
    6.8073   -5.6305   21.6887 H   0  0  0  0  0  0  0  0  0  0  0  0
    5.5807    0.6782   20.1455 C   0  0  0  0  0  0  0  0  0  0  0  0
    5.1583    0.4532   21.1297 H   0  0  0  0  0  0  0  0  0  0  0  0
    4.7723    1.0649   19.0727 C   0  0  0  0  0  0  0  0  0  0  0  0
    3.7023    1.1861   19.1882 H   0  0  0  0  0  0  0  0  0  0  0  0
  1  2  1  0
  2  3  2  0
  3  4  1  0
  4  5  1  0
  4  6  2  0
  6  7  1  0
  7  8  2  0
  7  9  1  6
  9 10  1  0
  9 11  1  0
  9 12  1  0
 12 13  1  0
 12 14  1  0
 14 15  2  0
 14 16  2  0
 14 17  1  0
 17 18  2  0
 18 19  1  0
 18 20  1  0
 20 21  1  0
 20 22  2  0
 22 23  1  0
 22 24  1  0
 24 25  1  0
 24 26  2  0
 26 27  1  0
  6 28  1  0
 28 29  1  0
 28 30  2  0
 30 31  1  0
 30  2  1  0
 26 17  1  0
M  END
>  <cnnaffinity>  (1) 
-4.42583

>  <filename>  (1) 
O=[S@](CNS(=O)(=O)c1ccccc1)c1cccnc1

$$$$
