
     RDKit          3D

 29 31  0  0  0  0  0  0  0  0999 V2000
    5.0222    1.7034   17.0166 H   0  0  0  0  0  0  0  0  0  0  0  0
    5.4734    1.2156   17.8804 C   0  0  0  0  0  0  0  0  0  0  0  0
    6.6097    0.5417   17.6476 N   0  0  0  0  0  0  0  0  0  0  0  0
    7.1962   -0.0652   18.6836 C   0  0  0  0  0  0  0  0  0  0  0  0
    8.0971   -0.6383   18.4646 H   0  0  0  0  0  0  0  0  0  0  0  0
    6.6891   -0.0066   19.9825 C   0  0  0  0  0  0  0  0  0  0  0  0
    7.6162   -0.7957   21.2780 S   0  0  0  0  0  4  0  0  0  0  0  0
    7.3628   -0.0325   22.5528 O   0  0  0  0  0  0  0  0  0  0  0  0
    6.5381   -2.2454   21.4175 C   0  0  0  0  0  0  0  0  0  0  0  0
    6.6023   -2.8234   20.4988 H   0  0  0  0  0  0  0  0  0  0  0  0
    5.5180   -1.8954   21.5878 H   0  0  0  0  0  0  0  0  0  0  0  0
    7.0553   -3.0542   22.5479 C   0  0  0  0  0  0  0  0  0  0  0  0
    7.5668   -4.2317   22.3682 N   0  0  0  0  0  0  0  0  0  0  0  0
    8.0237   -4.5945   23.6260 C   0  0  0  0  0  0  0  0  0  0  0  0
    8.7525   -5.7286   24.0012 C   0  0  0  0  0  0  0  0  0  0  0  0
    9.0013   -6.4377   23.2199 H   0  0  0  0  0  0  0  0  0  0  0  0
    9.1576   -5.8545   25.3260 C   0  0  0  0  0  0  0  0  0  0  0  0
    9.7152   -6.7377   25.6399 H   0  0  0  0  0  0  0  0  0  0  0  0
    8.8498   -4.8438   26.2708 C   0  0  0  0  0  0  0  0  0  0  0  0
    9.1897   -4.9546   27.2946 H   0  0  0  0  0  0  0  0  0  0  0  0
    8.1311   -3.6969   25.9103 C   0  0  0  0  0  0  0  0  0  0  0  0
    7.8737   -2.9271   26.6382 H   0  0  0  0  0  0  0  0  0  0  0  0
    7.7444   -3.5863   24.5709 C   0  0  0  0  0  0  0  0  0  0  0  0
    7.1106   -2.5909   23.8399 N   0  0  0  0  0  0  0  0  0  0  0  0
    7.1622   -1.5954   24.0309 H   0  0  0  0  0  0  0  0  0  0  0  0
    5.4982    0.6824   20.2319 C   0  0  0  0  0  0  0  0  0  0  0  0
    5.0746    0.7306   21.2371 H   0  0  0  0  0  0  0  0  0  0  0  0
    4.8757    1.2997   19.1445 C   0  0  0  0  0  0  0  0  0  0  0  0
    3.9355    1.8278   19.2534 H   0  0  0  0  0  0  0  0  0  0  0  0
  1  2  1  0
  2  3  2  0
  3  4  1  0
  4  5  1  0
  4  6  2  0
  6  7  1  0
  7  8  2  0
  7  9  1  6
  9 10  1  0
  9 11  1  0
  9 12  1  0
 12 13  2  0
 13 14  1  0
 14 15  2  0
 15 16  1  0
 15 17  1  0
 17 18  1  0
 17 19  2  0
 19 20  1  0
 19 21  1  0
 21 22  1  0
 21 23  2  0
 23 24  1  0
 24 25  1  0
  6 26  1  0
 26 27  1  0
 26 28  2  0
 28 29  1  0
 28  2  1  0
 24 12  1  0
 23 14  1  0
M  END
>  <cnnaffinity>  (1) 
-5.02058

>  <filename>  (1) 
O=[S@](Cc1nc2ccccc2[nH]1)c1cccnc1

$$$$
