
     RDKit          3D

 25 26  0  0  0  0  0  0  0  0999 V2000
   11.1557   -0.2335   20.9858 H   0  0  0  0  0  0  0  0  0  0  0  0
   11.6162    0.5828   21.2559 O   0  0  0  0  0  0  0  0  0  0  0  0
   10.6744    1.4807   21.6346 C   0  0  0  0  0  0  0  0  0  0  0  0
   11.1052    2.7258   22.0959 C   0  0  0  0  0  0  0  0  0  0  0  0
   12.1593    2.9744   22.0537 H   0  0  0  0  0  0  0  0  0  0  0  0
   10.1641    3.6247   22.6062 C   0  0  0  0  0  0  0  0  0  0  0  0
   10.7057    5.1733   23.1811 Cl  0  0  0  0  0  0  0  0  0  0  0  0
    8.8020    3.3147   22.6311 C   0  0  0  0  0  0  0  0  0  0  0  0
    8.0895    4.0221   23.0425 H   0  0  0  0  0  0  0  0  0  0  0  0
    8.3542    2.0922   22.1043 C   0  0  0  0  0  0  0  0  0  0  0  0
    7.2946    1.8403   22.0990 H   0  0  0  0  0  0  0  0  0  0  0  0
    9.2893    1.2008   21.5803 C   0  0  0  0  0  0  0  0  0  0  0  0
    8.9757   -0.0250   20.9581 O   0  0  0  0  0  0  0  0  0  0  0  0
    7.5192   -0.8154   21.2801 S   0  0  0  0  0  4  0  0  0  0  0  0
    7.9101   -2.1289   20.7871 O   0  0  0  0  0  0  0  0  0  0  0  0
    6.5751    0.0265   19.9855 C   0  0  0  0  0  0  0  0  0  0  0  0
    7.1926    0.0402   18.7326 C   0  0  0  0  0  0  0  0  0  0  0  0
    8.1566   -0.4369   18.5839 H   0  0  0  0  0  0  0  0  0  0  0  0
    6.6520    0.6413   17.6685 N   0  0  0  0  0  0  0  0  0  0  0  0
    5.4782    1.2681   17.8397 C   0  0  0  0  0  0  0  0  0  0  0  0
    5.0747    1.7641   16.9613 H   0  0  0  0  0  0  0  0  0  0  0  0
    4.8022    1.3224   19.0614 C   0  0  0  0  0  0  0  0  0  0  0  0
    3.8690    1.8709   19.1306 H   0  0  0  0  0  0  0  0  0  0  0  0
    5.3641    0.6943   20.1759 C   0  0  0  0  0  0  0  0  0  0  0  0
    4.8695    0.7510   21.1485 H   0  0  0  0  0  0  0  0  0  0  0  0
  1  2  1  0
  2  3  1  0
  3  4  2  0
  4  5  1  0
  4  6  1  0
  6  7  1  0
  6  8  2  0
  8  9  1  0
  8 10  1  0
 10 11  1  0
 10 12  2  0
 12 13  1  0
 14 13  1  6
 14 15  2  0
 14 16  1  0
 16 17  2  0
 17 18  1  0
 17 19  1  0
 19 20  2  0
 20 21  1  0
 20 22  1  0
 22 23  1  0
 22 24  2  0
 24 25  1  0
 12  3  1  0
 24 16  1  0
M  END
>  <cnnaffinity>  (1) 
-4.87042

>  <filename>  (1) 
O=[S@@](Oc1ccc(Cl)cc1O)c1cccnc1

$$$$
