
     RDKit          3D

 26 27  0  0  0  0  0  0  0  0999 V2000
    5.1139    1.7200   17.0448 H   0  0  0  0  0  0  0  0  0  0  0  0
    5.5570    1.2593   17.9276 C   0  0  0  0  0  0  0  0  0  0  0  0
    6.6783    0.5536   17.7229 N   0  0  0  0  0  0  0  0  0  0  0  0
    7.2443   -0.0436   18.7786 C   0  0  0  0  0  0  0  0  0  0  0  0
    8.1315   -0.6448   18.5919 H   0  0  0  0  0  0  0  0  0  0  0  0
    6.7259    0.0623   20.0753 C   0  0  0  0  0  0  0  0  0  0  0  0
    7.5402   -0.8880   21.3714 S   0  0  0  0  0  4  0  0  0  0  0  0
    8.3630   -1.8952   20.6168 O   0  0  0  0  0  0  0  0  0  0  0  0
    8.7530    0.3741   21.9428 C   0  0  0  0  0  0  0  0  0  0  0  0
    9.9046    0.4323   21.1432 C   0  0  0  0  0  0  0  0  0  0  0  0
    9.9646   -0.2362   20.2873 H   0  0  0  0  0  0  0  0  0  0  0  0
   10.9730    1.2605   21.4851 C   0  0  0  0  0  0  0  0  0  0  0  0
   11.8650    1.2845   20.8635 H   0  0  0  0  0  0  0  0  0  0  0  0
   10.9208    2.0025   22.6681 C   0  0  0  0  0  0  0  0  0  0  0  0
   11.7468    2.6600   22.9311 H   0  0  0  0  0  0  0  0  0  0  0  0
    9.8143    1.8962   23.5092 C   0  0  0  0  0  0  0  0  0  0  0  0
    9.8187    2.4179   24.4681 H   0  0  0  0  0  0  0  0  0  0  0  0
    8.6885    1.1218   23.1458 C   0  0  0  0  0  0  0  0  0  0  0  0
    7.4607    1.1361   24.0569 C   0  0  0  0  0  0  0  0  0  0  0  0
    7.6222    1.9391   25.1270 F   0  0  0  0  0  0  0  0  0  0  0  0
    6.3560    1.5735   23.4162 F   0  0  0  0  0  0  0  0  0  0  0  0
    7.1695   -0.0861   24.5369 F   0  0  0  0  0  0  0  0  0  0  0  0
    5.5557    0.7877   20.2892 C   0  0  0  0  0  0  0  0  0  0  0  0
    5.1279    0.8871   21.2889 H   0  0  0  0  0  0  0  0  0  0  0  0
    4.9514    1.3897   19.1826 C   0  0  0  0  0  0  0  0  0  0  0  0
    4.0290    1.9509   19.2769 H   0  0  0  0  0  0  0  0  0  0  0  0
  1  2  1  0
  2  3  2  0
  3  4  1  0
  4  5  1  0
  4  6  2  0
  7  6  1  6
  7  8  2  0
  7  9  1  0
  9 10  2  0
 10 11  1  0
 10 12  1  0
 12 13  1  0
 12 14  2  0
 14 15  1  0
 14 16  1  0
 16 17  1  0
 16 18  2  0
 18 19  1  0
 19 20  1  0
 19 21  1  0
 19 22  1  0
  6 23  1  0
 23 24  1  0
 23 25  2  0
 25 26  1  0
 25  2  1  0
 18  9  1  0
M  END
>  <cnnaffinity>  (1) 
-4.82961

>  <filename>  (1) 
O=[S@](c1cccnc1)c1ccccc1C(F)(F)F

$$$$
