
     RDKit          3D

 26 28  0  0  0  0  0  0  0  0999 V2000
    8.8618   -3.2073   22.1832 H   0  0  0  0  0  0  0  0  0  0  0  0
    8.3626   -2.2883   21.9071 C   0  0  0  0  0  0  0  0  0  0  0  0
    7.9095   -1.9296   20.7558 N   0  0  0  0  0  0  0  0  0  0  0  0
    7.3643   -0.6819   20.9684 C   0  0  0  0  0  0  0  0  0  0  0  0
    6.6525    0.0147   19.9103 C   0  0  0  0  0  0  0  0  0  0  0  0
    7.1688    0.0437   18.6021 C   0  0  0  0  0  0  0  0  0  0  0  0
    8.1193   -0.4350   18.3772 H   0  0  0  0  0  0  0  0  0  0  0  0
    6.5704    0.6682   17.5843 N   0  0  0  0  0  0  0  0  0  0  0  0
    5.4066    1.2892   17.8400 C   0  0  0  0  0  0  0  0  0  0  0  0
    4.9255    1.7797   16.9974 H   0  0  0  0  0  0  0  0  0  0  0  0
    4.8003    1.3048   19.0997 C   0  0  0  0  0  0  0  0  0  0  0  0
    3.8735    1.8438   19.2582 H   0  0  0  0  0  0  0  0  0  0  0  0
    5.4279    0.6518   20.1562 C   0  0  0  0  0  0  0  0  0  0  0  0
    4.9982    0.6430   21.1594 H   0  0  0  0  0  0  0  0  0  0  0  0
    7.5701   -0.3292   22.2797 C   0  0  0  0  0  0  0  0  0  0  0  0
    7.2664    0.9571   22.9197 C   0  0  0  0  0  0  0  0  0  0  0  0
    7.1118    1.9454   22.2150 O   0  0  0  0  0  0  0  0  0  0  0  0
    7.1312    1.0670   24.3919 C   0  0  0  0  0  0  0  0  0  0  0  0
    7.1861   -0.2835   25.4846 S   0  0  0  0  0  0  0  0  0  0  0  0
    6.9433    0.7540   26.8196 C   0  0  0  0  0  0  0  0  0  0  0  0
    6.8978    0.3445   27.8182 H   0  0  0  0  0  0  0  0  0  0  0  0
    6.8369    2.0696   26.4702 C   0  0  0  0  0  0  0  0  0  0  0  0
    6.6885    2.8834   27.1783 H   0  0  0  0  0  0  0  0  0  0  0  0
    6.9440    2.2520   25.0665 C   0  0  0  0  0  0  0  0  0  0  0  0
    6.8848    3.2179   24.5646 H   0  0  0  0  0  0  0  0  0  0  0  0
    8.1964   -1.3885   22.8937 O   0  0  0  0  0  0  0  0  0  0  0  0
  1  2  1  0
  2  3  2  0
  3  4  1  0
  4  5  1  0
  5  6  2  0
  6  7  1  0
  6  8  1  0
  8  9  2  0
  9 10  1  0
  9 11  1  0
 11 12  1  0
 11 13  2  0
 13 14  1  0
  4 15  2  0
 15 16  1  0
 16 17  2  0
 16 18  1  0
 18 19  1  0
 19 20  1  0
 20 21  1  0
 20 22  2  0
 22 23  1  0
 22 24  1  0
 24 25  1  0
 15 26  1  0
 26  2  1  0
 13  5  1  0
 24 18  2  0
M  END
>  <cnnaffinity>  (1) 
-4.8547

>  <filename>  (1) 
O=C(c1cccs1)c1ocnc1-c1cccnc1

$$$$
