
     RDKit          3D

 44 47  0  0  0  0  0  0  0  0999 V2000
    4.0552   -7.2147   23.9876 O   0  0  0  0  0  0  0  0  0  0  0  0
    4.8448   -6.4946   24.5780 C   0  0  0  0  0  0  0  0  0  0  0  0
    5.6800   -5.4609   23.8298 C   0  0  0  0  0  0  0  0  0  0  0  0
    5.0888   -4.9232   22.4919 C   0  0  0  0  0  0  0  0  0  0  0  0
    5.9691   -3.8825   21.8757 C   0  0  0  0  0  0  0  0  0  0  0  0
    5.7476   -2.6255   21.6274 N   0  0  0  0  0  0  0  0  0  0  0  0
    7.0112   -2.1729   21.2887 C   0  0  0  0  0  0  0  0  0  0  0  0
    7.3555   -0.7235   21.0496 C   0  0  0  0  0  0  0  0  0  0  0  0
    6.6239   -0.0162   19.9324 C   0  0  0  0  0  0  0  0  0  0  0  0
    5.4035    0.6371   20.1435 C   0  0  0  0  0  0  0  0  0  0  0  0
    4.7976    1.3031   19.0740 C   0  0  0  0  0  0  0  0  0  0  0  0
    5.4299    1.2948   17.8264 C   0  0  0  0  0  0  0  0  0  0  0  0
    6.5958    0.6700   17.5975 N   0  0  0  0  0  0  0  0  0  0  0  0
    7.1618    0.0396   18.6340 C   0  0  0  0  0  0  0  0  0  0  0  0
    8.1078   -0.4653   18.4377 H   0  0  0  0  0  0  0  0  0  0  0  0
    4.9784    1.7962   16.9709 H   0  0  0  0  0  0  0  0  0  0  0  0
    3.8550    1.8226   19.1936 H   0  0  0  0  0  0  0  0  0  0  0  0
    4.9578    0.6159   21.1389 H   0  0  0  0  0  0  0  0  0  0  0  0
    8.7879   -0.3021   21.3063 C   0  0  0  0  0  0  0  0  0  0  0  0
    7.7392    0.1097   22.2765 C   0  0  0  0  0  0  0  0  0  0  0  0
    7.7183   -0.3717   23.2488 H   0  0  0  0  0  0  0  0  0  0  0  0
    7.4539    1.1597   22.2787 H   0  0  0  0  0  0  0  0  0  0  0  0
    9.4737   -1.0819   21.6184 H   0  0  0  0  0  0  0  0  0  0  0  0
    9.2085    0.4723   20.6706 H   0  0  0  0  0  0  0  0  0  0  0  0
    7.9171   -3.1146   21.2556 N   0  0  0  0  0  0  0  0  0  0  0  0
    7.2277   -4.2485   21.6241 O   0  0  0  0  0  0  0  0  0  0  0  0
    4.1069   -4.4555   22.6355 H   0  0  0  0  0  0  0  0  0  0  0  0
    4.9859   -5.7426   21.7699 H   0  0  0  0  0  0  0  0  0  0  0  0
    5.8803   -4.6212   24.5030 H   0  0  0  0  0  0  0  0  0  0  0  0
    6.6534   -5.9333   23.6393 H   0  0  0  0  0  0  0  0  0  0  0  0
    5.0336   -6.5981   25.9482 N   0  0  0  0  0  0  0  0  0  0  0  0
    3.8828   -7.0599   26.7470 C   0  0  0  0  0  0  0  0  0  0  0  0
    4.3663   -7.6459   28.0645 C   0  0  0  0  0  0  0  0  0  0  0  0
    5.1221   -6.6974   28.8034 O   0  0  0  0  0  0  0  0  0  0  0  0
    6.3053   -6.3478   28.1053 C   0  0  0  0  0  0  0  0  0  0  0  0
    6.0319   -5.8047   26.6883 C   0  0  0  0  0  0  0  0  0  0  0  0
    5.7288   -4.7501   26.7810 H   0  0  0  0  0  0  0  0  0  0  0  0
    6.9840   -5.8254   26.1502 H   0  0  0  0  0  0  0  0  0  0  0  0
    6.9707   -7.2216   28.0658 H   0  0  0  0  0  0  0  0  0  0  0  0
    6.7970   -5.5701   28.7017 H   0  0  0  0  0  0  0  0  0  0  0  0
    4.9847   -8.5309   27.8550 H   0  0  0  0  0  0  0  0  0  0  0  0
    3.5128   -7.9389   28.6844 H   0  0  0  0  0  0  0  0  0  0  0  0
    3.3355   -7.8107   26.1676 H   0  0  0  0  0  0  0  0  0  0  0  0
    3.1998   -6.2201   26.9514 H   0  0  0  0  0  0  0  0  0  0  0  0
  1  2  2  0
  2  3  1  0
  3  4  1  0
  4  5  1  0
  5  6  2  0
  6  7  1  0
  7  8  1  0
  8  9  1  0
  9 10  2  0
 10 11  1  0
 11 12  2  0
 12 13  1  0
 13 14  2  0
 14 15  1  0
 12 16  1  0
 11 17  1  0
 10 18  1  0
  8 19  1  0
 19 20  1  0
 20 21  1  0
 20 22  1  0
 19 23  1  0
 19 24  1  0
  7 25  2  0
 25 26  1  0
  4 27  1  0
  4 28  1  0
  3 29  1  0
  3 30  1  0
  2 31  1  0
 31 32  1  0
 32 33  1  0
 33 34  1  0
 34 35  1  0
 35 36  1  0
 36 37  1  0
 36 38  1  0
 35 39  1  0
 35 40  1  0
 33 41  1  0
 33 42  1  0
 32 43  1  0
 32 44  1  0
 26  5  1  0
 36 31  1  0
 20  8  1  0
 14  9  1  0
M  END
>  <cnnaffinity>  (1) 
-4.96186

>  <filename>  (1) 
O=C(CCc1nc(C2(c3cccnc3)CC2)no1)N1CCOCC1

$$$$
