
     RDKit          3D

 38 40  0  0  0  0  0  0  0  0999 V2000
    5.0217    1.8086   16.9478 H   0  0  0  0  0  0  0  0  0  0  0  0
    5.4498    1.2951   17.8078 C   0  0  0  0  0  0  0  0  0  0  0  0
    6.5913    0.6293   17.5772 N   0  0  0  0  0  0  0  0  0  0  0  0
    7.1457   -0.0140   18.6042 C   0  0  0  0  0  0  0  0  0  0  0  0
    8.0648   -0.5593   18.4028 H   0  0  0  0  0  0  0  0  0  0  0  0
    6.6238   -0.0157   19.9079 C   0  0  0  0  0  0  0  0  0  0  0  0
    7.4347   -0.7358   20.9354 C   0  0  0  0  0  0  0  0  0  0  0  0
    8.3665   -1.4358   20.5836 O   0  0  0  0  0  0  0  0  0  0  0  0
    7.0966   -0.5562   22.3986 C   0  0  0  0  0  0  0  0  0  0  0  0
    6.1146   -0.9743   22.6240 H   0  0  0  0  0  0  0  0  0  0  0  0
    7.3198    0.8854   22.9004 C   0  0  0  0  0  0  0  0  0  0  0  0
    7.4933    1.6380   22.1145 H   0  0  0  0  0  0  0  0  0  0  0  0
    6.5297    1.2734   23.5563 H   0  0  0  0  0  0  0  0  0  0  0  0
    8.5138    0.4345   23.6400 N   0  0  0  0  0  0  0  0  0  0  0  0
    9.7944    1.0216   23.2623 C   0  0  0  0  0  0  0  0  0  0  0  0
   10.5745    0.5402   23.8663 H   0  0  0  0  0  0  0  0  0  0  0  0
   10.0400    0.8264   22.1988 H   0  0  0  0  0  0  0  0  0  0  0  0
    9.7861    2.5177   23.5284 C   0  0  0  0  0  0  0  0  0  0  0  0
    9.7675    3.0229   24.8439 C   0  0  0  0  0  0  0  0  0  0  0  0
    9.7840    2.3378   25.6917 H   0  0  0  0  0  0  0  0  0  0  0  0
    9.7083    4.3983   25.0845 C   0  0  0  0  0  0  0  0  0  0  0  0
    9.6618    4.7700   26.1070 H   0  0  0  0  0  0  0  0  0  0  0  0
    9.6655    5.2996   24.0083 C   0  0  0  0  0  0  0  0  0  0  0  0
    9.7288    6.7936   24.2181 C   0  0  0  0  0  0  0  0  0  0  0  0
    8.7298    7.2512   24.9962 F   0  0  0  0  0  0  0  0  0  0  0  0
   10.8730    7.1571   24.8334 F   0  0  0  0  0  0  0  0  0  0  0  0
    9.6597    7.4740   23.0576 F   0  0  0  0  0  0  0  0  0  0  0  0
    9.5697    4.7988   22.7067 C   0  0  0  0  0  0  0  0  0  0  0  0
    9.3991    5.5089   21.9036 H   0  0  0  0  0  0  0  0  0  0  0  0
    9.6559    3.4276   22.4699 C   0  0  0  0  0  0  0  0  0  0  0  0
    9.5585    3.0542   21.4515 H   0  0  0  0  0  0  0  0  0  0  0  0
    8.2335   -0.9825   23.3469 C   0  0  0  0  0  0  0  0  0  0  0  0
    7.8716   -1.5208   24.2333 H   0  0  0  0  0  0  0  0  0  0  0  0
    9.0340   -1.5743   22.8864 H   0  0  0  0  0  0  0  0  0  0  0  0
    5.4172    0.6702   20.1323 C   0  0  0  0  0  0  0  0  0  0  0  0
    4.9500    0.7093   21.1190 H   0  0  0  0  0  0  0  0  0  0  0  0
    4.8218    1.3303   19.0557 C   0  0  0  0  0  0  0  0  0  0  0  0
    3.8918    1.8762   19.1596 H   0  0  0  0  0  0  0  0  0  0  0  0
  1  2  1  0
  2  3  2  0
  3  4  1  0
  4  5  1  0
  4  6  2  0
  6  7  1  0
  7  8  2  0
  7  9  1  0
  9 10  1  0
  9 11  1  0
 11 12  1  0
 11 13  1  0
 11 14  1  0
 14 15  1  0
 15 16  1  0
 15 17  1  0
 15 18  1  0
 18 19  2  0
 19 20  1  0
 19 21  1  0
 21 22  1  0
 21 23  2  0
 23 24  1  0
 24 25  1  0
 24 26  1  0
 24 27  1  0
 23 28  1  0
 28 29  1  0
 28 30  2  0
 30 31  1  0
 14 32  1  0
 32 33  1  0
 32 34  1  0
  6 35  1  0
 35 36  1  0
 35 37  2  0
 37 38  1  0
 37  2  1  0
 32  9  1  0
 30 18  1  0
M  END
>  <cnnaffinity>  (1) 
-4.89201

>  <filename>  (1) 
O=C(c1cccnc1)C1CN(Cc2ccc(C(F)(F)F)cc2)C1

$$$$
