
     RDKit          3D

 38 41  0  0  0  0  0  0  0  0999 V2000
    7.0863   -3.9572   25.0536 O   0  0  0  0  0  0  0  0  0  0  0  0
    6.5433   -2.9645   24.6373 C   0  0  0  0  0  0  0  0  0  0  0  0
    7.3346   -1.6757   24.4733 C   0  0  0  0  0  0  0  0  0  0  0  0
    7.7159   -1.4818   23.0458 C   0  0  0  0  0  0  0  0  0  0  0  0
    8.8176   -2.0094   22.4481 C   0  0  0  0  0  0  0  0  0  0  0  0
    8.8496   -1.5707   20.7836 S   0  0  0  0  0  0  0  0  0  0  0  0
    7.3500   -0.7054   21.0113 C   0  0  0  0  0  0  0  0  0  0  0  0
    6.6489    0.0037   19.9323 C   0  0  0  0  0  0  0  0  0  0  0  0
    5.4271    0.6548   20.1752 C   0  0  0  0  0  0  0  0  0  0  0  0
    4.8040    1.3061   19.1151 C   0  0  0  0  0  0  0  0  0  0  0  0
    5.4104    1.2805   17.8547 C   0  0  0  0  0  0  0  0  0  0  0  0
    6.5726    0.6596   17.6093 N   0  0  0  0  0  0  0  0  0  0  0  0
    7.1752    0.0455   18.6308 C   0  0  0  0  0  0  0  0  0  0  0  0
    8.1244   -0.4319   18.3854 H   0  0  0  0  0  0  0  0  0  0  0  0
    4.9524    1.7758   17.0023 H   0  0  0  0  0  0  0  0  0  0  0  0
    3.8731    1.8418   19.2468 H   0  0  0  0  0  0  0  0  0  0  0  0
    4.9912    0.6452   21.1745 H   0  0  0  0  0  0  0  0  0  0  0  0
    6.8933   -0.7602   22.2296 N   0  0  0  0  0  0  0  0  0  0  0  0
    9.5910   -2.6157   22.9029 H   0  0  0  0  0  0  0  0  0  0  0  0
    6.8085   -0.7875   24.8348 H   0  0  0  0  0  0  0  0  0  0  0  0
    8.2210   -1.8399   25.0880 H   0  0  0  0  0  0  0  0  0  0  0  0
    5.2113   -2.8822   24.3095 N   0  0  0  0  0  0  0  0  0  0  0  0
    4.3459   -3.9588   24.1972 C   0  0  0  0  0  0  0  0  0  0  0  0
    4.8898   -5.0927   23.8437 N   0  0  0  0  0  0  0  0  0  0  0  0
    4.0828   -6.1728   23.6916 C   0  0  0  0  0  0  0  0  0  0  0  0
    2.7226   -6.1456   23.8589 C   0  0  0  0  0  0  0  0  0  0  0  0
    2.0732   -4.9282   24.2277 C   0  0  0  0  0  0  0  0  0  0  0  0
    0.6512   -4.7941   24.4156 C   0  0  0  0  0  0  0  0  0  0  0  0
    0.0534   -3.6731   24.7623 N   0  0  0  0  0  0  0  0  0  0  0  0
    0.8444   -2.5850   24.9649 C   0  0  0  0  0  0  0  0  0  0  0  0
    2.2177   -2.5870   24.8193 C   0  0  0  0  0  0  0  0  0  0  0  0
    2.9052   -3.7804   24.4241 C   0  0  0  0  0  0  0  0  0  0  0  0
    2.7505   -1.6659   25.0192 H   0  0  0  0  0  0  0  0  0  0  0  0
    0.3165   -1.6800   25.2559 H   0  0  0  0  0  0  0  0  0  0  0  0
    0.0110   -5.6656   24.2663 H   0  0  0  0  0  0  0  0  0  0  0  0
    2.1521   -7.0518   23.7140 H   0  0  0  0  0  0  0  0  0  0  0  0
    4.5923   -7.0972   23.4317 H   0  0  0  0  0  0  0  0  0  0  0  0
    4.8378   -1.9888   24.0560 H   0  0  0  0  0  0  0  0  0  0  0  0
  1  2  2  0
  2  3  1  0
  3  4  1  0
  4  5  2  0
  5  6  1  0
  6  7  1  0
  7  8  1  0
  8  9  2  0
  9 10  1  0
 10 11  2  0
 11 12  1  0
 12 13  2  0
 13 14  1  0
 11 15  1  0
 10 16  1  0
  9 17  1  0
  7 18  2  0
  5 19  1  0
  3 20  1  0
  3 21  1  0
  2 22  1  0
 22 23  1  0
 23 24  2  0
 24 25  1  0
 25 26  2  0
 26 27  1  0
 27 28  2  0
 28 29  1  0
 29 30  2  0
 30 31  1  0
 31 32  2  0
 31 33  1  0
 30 34  1  0
 28 35  1  0
 26 36  1  0
 25 37  1  0
 22 38  1  0
 18  4  1  0
 32 23  1  0
 13  8  1  0
 32 27  1  0
M  END
>  <cnnaffinity>  (1) 
-5.92795

>  <filename>  (1) 
O=C(Cc1csc(-c2cccnc2)n1)Nc1nccc2cnccc12

$$$$
