
     RDKit          3D

 35 37  0  0  0  0  0  0  0  0999 V2000
    5.7034   -2.5458   20.9380 O   0  0  0  0  0  0  0  0  0  0  0  0
    6.4947   -1.9280   21.6283 C   0  0  0  0  0  0  0  0  0  0  0  0
    6.7104   -2.2690   22.9318 N   0  0  0  0  0  0  0  0  0  0  0  0
    5.8971   -3.1155   23.6590 C   0  0  0  0  0  0  0  0  0  0  0  0
    6.2610   -3.4235   24.8524 N   0  0  0  0  0  0  0  0  0  0  0  0
    5.2883   -4.2191   25.4540 C   0  0  0  0  0  0  0  0  0  0  0  0
    4.1325   -4.4261   24.6606 C   0  0  0  0  0  0  0  0  0  0  0  0
    3.0006   -5.0890   25.1514 C   0  0  0  0  0  0  0  0  0  0  0  0
    3.0637   -5.6278   26.4311 C   0  0  0  0  0  0  0  0  0  0  0  0
    4.2223   -5.5191   27.2203 C   0  0  0  0  0  0  0  0  0  0  0  0
    5.3445   -4.8506   26.7327 C   0  0  0  0  0  0  0  0  0  0  0  0
    6.5431   -4.7888   27.4247 O   0  0  0  0  0  0  0  0  0  0  0  0
    6.8476   -5.5050   28.5362 C   0  0  0  0  0  0  0  0  0  0  0  0
    8.1712   -5.5662   28.5939 F   0  0  0  0  0  0  0  0  0  0  0  0
    6.3809   -6.7622   28.5355 F   0  0  0  0  0  0  0  0  0  0  0  0
    6.3922   -4.9181   29.6508 F   0  0  0  0  0  0  0  0  0  0  0  0
    4.2307   -5.9959   28.1926 H   0  0  0  0  0  0  0  0  0  0  0  0
    2.2126   -6.1776   26.8226 H   0  0  0  0  0  0  0  0  0  0  0  0
    2.0944   -5.1799   24.5601 H   0  0  0  0  0  0  0  0  0  0  0  0
    4.3764   -3.7481   23.0729 S   0  0  0  0  0  0  0  0  0  0  0  0
    7.4350   -1.8498   23.4926 H   0  0  0  0  0  0  0  0  0  0  0  0
    7.3748   -0.7593   21.0453 C   0  0  0  0  0  0  0  0  0  0  0  0
    7.9325    0.1365   22.0012 O   0  0  0  0  0  0  0  0  0  0  0  0
    7.3161    0.8808   22.1072 H   0  0  0  0  0  0  0  0  0  0  0  0
    6.6561    0.0228   19.9651 C   0  0  0  0  0  0  0  0  0  0  0  0
    5.4246    0.6612   20.1800 C   0  0  0  0  0  0  0  0  0  0  0  0
    4.8192    1.3094   19.1020 C   0  0  0  0  0  0  0  0  0  0  0  0
    5.4559    1.2978   17.8566 C   0  0  0  0  0  0  0  0  0  0  0  0
    6.6271    0.6839   17.6309 N   0  0  0  0  0  0  0  0  0  0  0  0
    7.1983    0.0732   18.6756 C   0  0  0  0  0  0  0  0  0  0  0  0
    8.1388   -0.4401   18.4760 H   0  0  0  0  0  0  0  0  0  0  0  0
    5.0018    1.7980   17.0020 H   0  0  0  0  0  0  0  0  0  0  0  0
    3.8819    1.8384   19.2155 H   0  0  0  0  0  0  0  0  0  0  0  0
    4.9344    0.6280   21.1567 H   0  0  0  0  0  0  0  0  0  0  0  0
    8.2200   -1.2954   20.5970 H   0  0  0  0  0  0  0  0  0  0  0  0
  1  2  2  0
  2  3  1  0
  3  4  1  0
  4  5  2  0
  5  6  1  0
  6  7  2  0
  7  8  1  0
  8  9  2  0
  9 10  1  0
 10 11  2  0
 11 12  1  0
 12 13  1  0
 13 14  1  0
 13 15  1  0
 13 16  1  0
 10 17  1  0
  9 18  1  0
  8 19  1  0
  7 20  1  0
  3 21  1  0
  2 22  1  0
 22 23  1  0
 23 24  1  0
 22 25  1  0
 25 26  2  0
 26 27  1  0
 27 28  2  0
 28 29  1  0
 29 30  2  0
 30 31  1  0
 28 32  1  0
 27 33  1  0
 26 34  1  0
 22 35  1  0
 20  4  1  0
 30 25  1  0
 11  6  1  0
M  END
>  <cnnaffinity>  (1) 
-5.16581

>  <filename>  (1) 
O=C(Nc1nc2c(OC(F)(F)F)cccc2s1)C(O)c1cccnc1

$$$$
