
     RDKit          3D

 43 44  0  0  0  0  0  0  0  0999 V2000
   10.6540    1.6206   24.7973 O   0  0  0  0  0  0  0  0  0  0  0  0
    9.4833    1.3383   24.6815 C   0  0  0  0  0  0  0  0  0  0  0  0
    8.6261    1.9815   23.5547 C   0  0  0  0  0  0  0  0  0  0  0  0
    7.8466    1.1014   22.6729 N   0  0  0  0  0  0  0  0  0  0  0  0
    8.3862    0.3653   21.6478 C   0  0  0  0  0  0  0  0  0  0  0  0
    9.5407    0.5032   21.2813 O   0  0  0  0  0  0  0  0  0  0  0  0
    7.4396   -0.6758   20.9238 C   0  0  0  0  0  0  0  0  0  0  0  0
    6.6319   -1.4063   21.8572 O   0  0  0  0  0  0  0  0  0  0  0  0
    5.9362   -1.8379   21.3410 H   0  0  0  0  0  0  0  0  0  0  0  0
    6.5888   -0.0437   19.8316 C   0  0  0  0  0  0  0  0  0  0  0  0
    5.3597    0.6004   20.0598 C   0  0  0  0  0  0  0  0  0  0  0  0
    4.7716    1.3009   19.0065 C   0  0  0  0  0  0  0  0  0  0  0  0
    5.4022    1.2941   17.7595 C   0  0  0  0  0  0  0  0  0  0  0  0
    6.5294    0.6136   17.4991 N   0  0  0  0  0  0  0  0  0  0  0  0
    7.0918   -0.0338   18.5233 C   0  0  0  0  0  0  0  0  0  0  0  0
    8.0054   -0.5910   18.3024 H   0  0  0  0  0  0  0  0  0  0  0  0
    4.9828    1.8487   16.9252 H   0  0  0  0  0  0  0  0  0  0  0  0
    3.8494    1.8578   19.1387 H   0  0  0  0  0  0  0  0  0  0  0  0
    4.8777    0.5501   21.0380 H   0  0  0  0  0  0  0  0  0  0  0  0
    8.1618   -1.3457   20.4302 H   0  0  0  0  0  0  0  0  0  0  0  0
    6.9145    0.8239   22.9433 H   0  0  0  0  0  0  0  0  0  0  0  0
    7.9168    2.6491   24.0646 H   0  0  0  0  0  0  0  0  0  0  0  0
    9.3111    2.6055   22.9703 H   0  0  0  0  0  0  0  0  0  0  0  0
    8.7812    0.4622   25.7085 C   0  0  0  0  0  0  0  0  0  0  0  0
    8.1715   -0.8804   25.2550 C   0  0  0  0  0  0  0  0  0  0  0  0
    9.2150   -1.7689   24.5578 C   0  0  0  0  0  0  0  0  0  0  0  0
    8.7242   -3.1979   24.2881 C   0  0  0  0  0  0  0  0  0  0  0  0
    8.1257   -3.8572   25.5383 C   0  0  0  0  0  0  0  0  0  0  0  0
    7.0246   -2.9859   26.1543 C   0  0  0  0  0  0  0  0  0  0  0  0
    7.5614   -1.5871   26.4805 C   0  0  0  0  0  0  0  0  0  0  0  0
    6.7660   -0.9668   26.9136 H   0  0  0  0  0  0  0  0  0  0  0  0
    8.3366   -1.6748   27.2572 H   0  0  0  0  0  0  0  0  0  0  0  0
    6.1893   -2.9003   25.4422 H   0  0  0  0  0  0  0  0  0  0  0  0
    6.6194   -3.4573   27.0583 H   0  0  0  0  0  0  0  0  0  0  0  0
    7.7353   -4.8514   25.2948 H   0  0  0  0  0  0  0  0  0  0  0  0
    8.9162   -4.0162   26.2871 H   0  0  0  0  0  0  0  0  0  0  0  0
    7.9691   -3.1668   23.4914 H   0  0  0  0  0  0  0  0  0  0  0  0
    9.5583   -3.8032   23.9129 H   0  0  0  0  0  0  0  0  0  0  0  0
    9.5366   -1.2990   23.6184 H   0  0  0  0  0  0  0  0  0  0  0  0
   10.1095   -1.8047   25.1876 H   0  0  0  0  0  0  0  0  0  0  0  0
    7.3546   -0.7099   24.5410 H   0  0  0  0  0  0  0  0  0  0  0  0
    7.9967    1.0748   26.1733 H   0  0  0  0  0  0  0  0  0  0  0  0
    9.5226    0.2631   26.4910 H   0  0  0  0  0  0  0  0  0  0  0  0
  1  2  2  0
  2  3  1  0
  3  4  1  0
  4  5  1  0
  5  6  2  0
  5  7  1  0
  7  8  1  0
  8  9  1  0
  7 10  1  0
 10 11  2  0
 11 12  1  0
 12 13  2  0
 13 14  1  0
 14 15  2  0
 15 16  1  0
 13 17  1  0
 12 18  1  0
 11 19  1  0
  7 20  1  0
  4 21  1  0
  3 22  1  0
  3 23  1  0
  2 24  1  0
 24 25  1  0
 25 26  1  0
 26 27  1  0
 27 28  1  0
 28 29  1  0
 29 30  1  0
 30 31  1  0
 30 32  1  0
 29 33  1  0
 29 34  1  0
 28 35  1  0
 28 36  1  0
 27 37  1  0
 27 38  1  0
 26 39  1  0
 26 40  1  0
 25 41  1  0
 24 42  1  0
 24 43  1  0
 15 10  1  0
 30 25  1  0
M  END
>  <cnnaffinity>  (1) 
-4.93801

>  <filename>  (1) 
O=C(CNC(=O)C(O)c1cccnc1)CC1CCCCC1

$$$$
