
     RDKit          3D

 35 37  0  0  0  0  0  0  0  0999 V2000
    4.9391    1.7889   16.9906 H   0  0  0  0  0  0  0  0  0  0  0  0
    5.4019    1.2847   17.8382 C   0  0  0  0  0  0  0  0  0  0  0  0
    6.5636    0.6554   17.5922 N   0  0  0  0  0  0  0  0  0  0  0  0
    7.1600    0.0369   18.6171 C   0  0  0  0  0  0  0  0  0  0  0  0
    8.1188   -0.4298   18.3762 H   0  0  0  0  0  0  0  0  0  0  0  0
    6.6425    0.0123   19.9272 C   0  0  0  0  0  0  0  0  0  0  0  0
    7.3567   -0.6368   21.0239 C   0  0  0  0  0  0  0  0  0  0  0  0
    7.6877   -0.0563   22.2353 C   0  0  0  0  0  0  0  0  0  0  0  0
    7.5007    1.4341   22.3785 C   0  0  0  0  0  0  0  0  0  0  0  0
    7.7851    2.2050   21.4805 O   0  0  0  0  0  0  0  0  0  0  0  0
    6.9661    1.8487   23.5781 N   0  0  0  0  0  0  0  0  0  0  0  0
    6.9480    1.1659   24.3133 H   0  0  0  0  0  0  0  0  0  0  0  0
    6.4613    3.1443   23.8465 C   0  0  0  0  0  0  0  0  0  0  0  0
    5.8006    3.8585   22.8358 C   0  0  0  0  0  0  0  0  0  0  0  0
    5.7068    3.3989   21.8566 H   0  0  0  0  0  0  0  0  0  0  0  0
    5.3043    5.1394   23.0797 C   0  0  0  0  0  0  0  0  0  0  0  0
    4.8108    5.6995   22.2910 H   0  0  0  0  0  0  0  0  0  0  0  0
    5.4715    5.7119   24.3419 C   0  0  0  0  0  0  0  0  0  0  0  0
    4.8655    7.3133   24.6389 Cl  0  0  0  0  0  0  0  0  0  0  0  0
    6.1143    5.0096   25.3639 C   0  0  0  0  0  0  0  0  0  0  0  0
    6.2215    5.4779   26.3367 H   0  0  0  0  0  0  0  0  0  0  0  0
    6.6004    3.7187   25.1184 C   0  0  0  0  0  0  0  0  0  0  0  0
    7.1050    3.1710   25.9098 H   0  0  0  0  0  0  0  0  0  0  0  0
    8.3423   -0.8635   23.2287 C   0  0  0  0  0  0  0  0  0  0  0  0
    8.6560   -0.4022   24.1693 H   0  0  0  0  0  0  0  0  0  0  0  0
    8.6334   -2.1768   22.9897 C   0  0  0  0  0  0  0  0  0  0  0  0
    9.1194   -2.8327   23.6991 H   0  0  0  0  0  0  0  0  0  0  0  0
    8.2780   -2.8000   21.7204 C   0  0  0  0  0  0  0  0  0  0  0  0
    8.4179   -3.9685   21.3907 O   0  0  0  0  0  0  0  0  0  0  0  0
    7.7150   -1.9371   20.8026 N   0  0  0  0  0  0  0  0  0  0  0  0
    7.4534   -2.4422   19.9727 H   0  0  0  0  0  0  0  0  0  0  0  0
    5.4194    0.6570   20.1582 C   0  0  0  0  0  0  0  0  0  0  0  0
    4.9827    0.6457   21.1595 H   0  0  0  0  0  0  0  0  0  0  0  0
    4.7961    1.3047   19.0964 C   0  0  0  0  0  0  0  0  0  0  0  0
    3.8708    1.8448   19.2360 H   0  0  0  0  0  0  0  0  0  0  0  0
  1  2  1  0
  2  3  2  0
  3  4  1  0
  4  5  1  0
  4  6  2  0
  6  7  1  0
  7  8  2  0
  8  9  1  0
  9 10  2  0
  9 11  1  0
 11 12  1  0
 11 13  1  0
 13 14  2  0
 14 15  1  0
 14 16  1  0
 16 17  1  0
 16 18  2  0
 18 19  1  0
 18 20  1  0
 20 21  1  0
 20 22  2  0
 22 23  1  0
  8 24  1  0
 24 25  1  0
 24 26  2  0
 26 27  1  0
 26 28  1  0
 28 29  2  0
 28 30  1  0
 30 31  1  0
  6 32  1  0
 32 33  1  0
 32 34  2  0
 34 35  1  0
 34  2  1  0
 30  7  1  0
 22 13  1  0
M  END
>  <cnnaffinity>  (1) 
-5.40282

>  <filename>  (1) 
O=C(Nc1ccc(Cl)cc1)c1ccc(=O)[nH]c1-c1cccnc1

$$$$
