
     RDKit          3D

 34 36  0  0  0  0  0  0  0  0999 V2000
    4.9225    1.8063   16.9818 H   0  0  0  0  0  0  0  0  0  0  0  0
    5.3879    1.2976   17.8233 C   0  0  0  0  0  0  0  0  0  0  0  0
    6.5475    0.6766   17.5655 N   0  0  0  0  0  0  0  0  0  0  0  0
    7.1526    0.0586   18.5854 C   0  0  0  0  0  0  0  0  0  0  0  0
    8.1022   -0.4233   18.3506 H   0  0  0  0  0  0  0  0  0  0  0  0
    6.6394    0.0116   19.8933 C   0  0  0  0  0  0  0  0  0  0  0  0
    7.4280   -0.6538   21.0039 C   0  0  0  0  0  0  0  0  0  0  0  0
    6.8801   -0.6162   21.9466 H   0  0  0  0  0  0  0  0  0  0  0  0
    7.6420   -1.7006   20.7701 H   0  0  0  0  0  0  0  0  0  0  0  0
    8.7447   -0.0624   21.2213 N   0  0  0  0  0  0  0  0  0  0  0  0
    9.8070   -0.7916   20.8891 N   0  0  0  0  0  0  0  0  0  0  0  0
   10.8583   -0.0191   21.0837 C   0  0  0  0  0  0  0  0  0  0  0  0
   11.8222   -0.4271   20.8072 H   0  0  0  0  0  0  0  0  0  0  0  0
   10.4796    1.2560   21.5399 C   0  0  0  0  0  0  0  0  0  0  0  0
   11.1506    2.0723   21.7797 H   0  0  0  0  0  0  0  0  0  0  0  0
    9.0886    1.1855   21.6452 C   0  0  0  0  0  0  0  0  0  0  0  0
    8.0421    2.1316   22.1448 C   0  0  0  0  0  0  0  0  0  0  0  0
    6.9563    1.7615   22.5636 O   0  0  0  0  0  0  0  0  0  0  0  0
    8.4054    3.4483   22.0803 N   0  0  0  0  0  0  0  0  0  0  0  0
    9.3731    3.6516   21.9100 H   0  0  0  0  0  0  0  0  0  0  0  0
    7.5354    4.5328   22.1718 C   0  0  0  0  0  0  0  0  0  0  0  0
    6.2319    4.4112   21.6927 C   0  0  0  0  0  0  0  0  0  0  0  0
    5.9100    3.4865   21.2331 H   0  0  0  0  0  0  0  0  0  0  0  0
    5.3867    5.5093   21.8055 C   0  0  0  0  0  0  0  0  0  0  0  0
    4.3572    5.4527   21.4466 H   0  0  0  0  0  0  0  0  0  0  0  0
    5.7523    6.6725   22.3676 N   0  0  0  0  0  0  0  0  0  0  0  0
    7.0128    6.7728   22.8008 C   0  0  0  0  0  0  0  0  0  0  0  0
    7.2803    7.7348   23.2440 H   0  0  0  0  0  0  0  0  0  0  0  0
    7.9544    5.7452   22.7196 C   0  0  0  0  0  0  0  0  0  0  0  0
    8.9589    5.8927   23.0958 H   0  0  0  0  0  0  0  0  0  0  0  0
    5.4231    0.6551   20.1401 C   0  0  0  0  0  0  0  0  0  0  0  0
    5.0023    0.6636   21.1469 H   0  0  0  0  0  0  0  0  0  0  0  0
    4.7860    1.3110   19.0842 C   0  0  0  0  0  0  0  0  0  0  0  0
    3.8576    1.8516   19.2296 H   0  0  0  0  0  0  0  0  0  0  0  0
  1  2  1  0
  2  3  2  0
  3  4  1  0
  4  5  1  0
  4  6  2  0
  6  7  1  0
  7  8  1  0
  7  9  1  0
  7 10  1  0
 10 11  1  0
 11 12  2  0
 12 13  1  0
 12 14  1  0
 14 15  1  0
 14 16  2  0
 16 17  1  0
 17 18  2  0
 17 19  1  0
 19 20  1  0
 19 21  1  0
 21 22  2  0
 22 23  1  0
 22 24  1  0
 24 25  1  0
 24 26  2  0
 26 27  1  0
 27 28  1  0
 27 29  2  0
 29 30  1  0
  6 31  1  0
 31 32  1  0
 31 33  2  0
 33 34  1  0
 33  2  1  0
 16 10  1  0
 29 21  1  0
M  END
>  <cnnaffinity>  (1) 
-5.07695

>  <filename>  (1) 
O=C(Nc1ccncc1)c1ccnn1Cc1cccnc1

$$$$
