
     RDKit          3D

 35 37  0  0  0  0  0  0  0  0999 V2000
    6.7626    0.5850   22.8324 H   0  0  0  0  0  0  0  0  0  0  0  0
    7.2516   -0.2824   22.3868 C   0  0  0  0  0  0  0  0  0  0  0  0
    7.2936   -0.5725   21.0826 C   0  0  0  0  0  0  0  0  0  0  0  0
    6.6261    0.1221   19.9583 C   0  0  0  0  0  0  0  0  0  0  0  0
    7.1666    0.1050   18.6530 C   0  0  0  0  0  0  0  0  0  0  0  0
    8.1006   -0.4228   18.4523 H   0  0  0  0  0  0  0  0  0  0  0  0
    6.6024    0.6851   17.5886 N   0  0  0  0  0  0  0  0  0  0  0  0
    5.4297    1.3102   17.7778 C   0  0  0  0  0  0  0  0  0  0  0  0
    4.9864    1.7732   16.8994 H   0  0  0  0  0  0  0  0  0  0  0  0
    4.7901    1.3754   19.0183 C   0  0  0  0  0  0  0  0  0  0  0  0
    3.8363    1.8804   19.1030 H   0  0  0  0  0  0  0  0  0  0  0  0
    5.3996    0.7878   20.1257 C   0  0  0  0  0  0  0  0  0  0  0  0
    4.9324    0.8079   21.1093 H   0  0  0  0  0  0  0  0  0  0  0  0
    8.1134   -1.8226   20.8414 C   0  0  0  0  0  0  0  0  0  0  0  0
    8.9181   -1.6562   20.1165 H   0  0  0  0  0  0  0  0  0  0  0  0
    7.4530   -2.5830   20.4190 H   0  0  0  0  0  0  0  0  0  0  0  0
    8.6557   -2.2558   22.2182 C   0  0  0  0  0  0  0  0  0  0  0  0
    8.3977   -3.2981   22.4523 H   0  0  0  0  0  0  0  0  0  0  0  0
    9.7495   -2.2012   22.2316 H   0  0  0  0  0  0  0  0  0  0  0  0
    8.0345   -1.2599   23.2526 C   0  0  2  0  0  0  0  0  0  0  0  0
    8.8313   -0.7159   23.7760 H   0  0  0  0  0  0  0  0  0  0  0  0
    7.3101   -1.9774   24.4147 C   0  0  0  0  0  0  0  0  0  0  0  0
    7.7511   -1.9356   25.5459 O   0  0  0  0  0  0  0  0  0  0  0  0
    6.2021   -2.7095   24.0540 N   0  0  0  0  0  0  0  0  0  0  0  0
    5.7132   -2.3594   23.2485 H   0  0  0  0  0  0  0  0  0  0  0  0
    5.4669   -3.5484   24.8803 C   0  0  0  0  0  0  0  0  0  0  0  0
    6.0504   -4.2760   25.9148 C   0  0  0  0  0  0  0  0  0  0  0  0
    7.1091   -4.2055   26.1268 H   0  0  0  0  0  0  0  0  0  0  0  0
    5.2088   -5.0784   26.6795 C   0  0  0  0  0  0  0  0  0  0  0  0
    5.6097   -5.6559   27.5104 H   0  0  0  0  0  0  0  0  0  0  0  0
    3.8882   -5.1953   26.4762 N   0  0  0  0  0  0  0  0  0  0  0  0
    3.3636   -4.4953   25.4652 C   0  0  0  0  0  0  0  0  0  0  0  0
    2.2899   -4.5965   25.3262 H   0  0  0  0  0  0  0  0  0  0  0  0
    4.1049   -3.6776   24.6249 C   0  0  0  0  0  0  0  0  0  0  0  0
    3.6356   -3.1325   23.8196 H   0  0  0  0  0  0  0  0  0  0  0  0
  1  2  1  0
  2  3  2  0
  3  4  1  0
  4  5  2  0
  5  6  1  0
  5  7  1  0
  7  8  2  0
  8  9  1  0
  8 10  1  0
 10 11  1  0
 10 12  2  0
 12 13  1  0
  3 14  1  0
 14 15  1  0
 14 16  1  0
 14 17  1  0
 17 18  1  0
 17 19  1  0
 17 20  1  0
 20 21  1  1
 20 22  1  0
 22 23  2  0
 22 24  1  0
 24 25  1  0
 24 26  1  0
 26 27  2  0
 27 28  1  0
 27 29  1  0
 29 30  1  0
 29 31  2  0
 31 32  1  0
 32 33  1  0
 32 34  2  0
 34 35  1  0
 20  2  1  0
 34 26  1  0
 12  4  1  0
M  END
>  <cnnaffinity>  (1) 
-4.97902

>  <filename>  (1) 
O=C(Nc1ccncc1)[C@@H]1C=C(c2cccnc2)CC1

$$$$
