
     RDKit          3D

 32 34  0  0  0  0  0  0  0  0999 V2000
    4.9648    1.7904   16.9779 H   0  0  0  0  0  0  0  0  0  0  0  0
    5.4454    1.3047   17.8243 C   0  0  0  0  0  0  0  0  0  0  0  0
    6.6250    0.7076   17.5754 N   0  0  0  0  0  0  0  0  0  0  0  0
    7.2379    0.1004   18.5966 C   0  0  0  0  0  0  0  0  0  0  0  0
    8.1963   -0.3730   18.3985 H   0  0  0  0  0  0  0  0  0  0  0  0
    6.6865    0.0192   19.8888 C   0  0  0  0  0  0  0  0  0  0  0  0
    7.3575   -0.7043   20.9216 N   0  0  0  0  0  0  0  0  0  0  0  0
    8.6900   -0.3972   21.0628 N   0  0  0  0  0  0  0  0  0  0  0  0
    9.3495   -0.9594   22.0296 C   0  0  0  0  0  0  0  0  0  0  0  0
   10.4017   -0.6950   22.1020 H   0  0  0  0  0  0  0  0  0  0  0  0
    8.7564   -1.9083   22.9438 C   0  0  0  0  0  0  0  0  0  0  0  0
    9.6873   -2.5421   23.9450 C   0  0  0  0  0  0  0  0  0  0  0  0
   10.8498   -2.7269   23.6415 O   0  0  0  0  0  0  0  0  0  0  0  0
    9.1271   -2.9929   25.2693 C   0  0  0  0  0  0  0  0  0  0  0  0
    8.0514   -2.3353   25.8950 C   0  0  0  0  0  0  0  0  0  0  0  0
    7.6797   -1.3918   25.5003 H   0  0  0  0  0  0  0  0  0  0  0  0
    7.4412   -2.8885   27.0238 C   0  0  0  0  0  0  0  0  0  0  0  0
    6.5874   -2.4106   27.4948 H   0  0  0  0  0  0  0  0  0  0  0  0
    7.9244   -4.0939   27.5431 C   0  0  0  0  0  0  0  0  0  0  0  0
    7.0512   -4.8763   28.8336 Cl  0  0  0  0  0  0  0  0  0  0  0  0
    9.0716   -4.6982   27.0164 C   0  0  0  0  0  0  0  0  0  0  0  0
    9.4772   -5.5990   27.4736 H   0  0  0  0  0  0  0  0  0  0  0  0
    9.6759   -4.1272   25.8961 C   0  0  0  0  0  0  0  0  0  0  0  0
   10.5906   -4.5544   25.4977 H   0  0  0  0  0  0  0  0  0  0  0  0
    7.4402   -2.2607   22.7490 C   0  0  0  0  0  0  0  0  0  0  0  0
    6.8945   -2.9810   23.3479 H   0  0  0  0  0  0  0  0  0  0  0  0
    6.6480   -1.7298   21.6546 C   0  0  0  0  0  0  0  0  0  0  0  0
    5.5280   -2.0997   21.3451 O   0  0  0  0  0  0  0  0  0  0  0  0
    5.4623    0.6428   20.1435 C   0  0  0  0  0  0  0  0  0  0  0  0
    5.0294    0.6060   21.1429 H   0  0  0  0  0  0  0  0  0  0  0  0
    4.8399    1.3083   19.0840 C   0  0  0  0  0  0  0  0  0  0  0  0
    3.9015    1.8285   19.2292 H   0  0  0  0  0  0  0  0  0  0  0  0
  1  2  1  0
  2  3  2  0
  3  4  1  0
  4  5  1  0
  4  6  2  0
  6  7  1  0
  7  8  1  0
  8  9  2  0
  9 10  1  0
  9 11  1  0
 11 12  1  0
 12 13  2  0
 12 14  1  0
 14 15  2  0
 15 16  1  0
 15 17  1  0
 17 18  1  0
 17 19  2  0
 19 20  1  0
 19 21  1  0
 21 22  1  0
 21 23  2  0
 23 24  1  0
 11 25  2  0
 25 26  1  0
 25 27  1  0
 27 28  2  0
  6 29  1  0
 29 30  1  0
 29 31  2  0
 31 32  1  0
 31  2  1  0
 27  7  1  0
 23 14  1  0
M  END
>  <cnnaffinity>  (1) 
-5.22014

>  <filename>  (1) 
O=C(c1ccc(Cl)cc1)c1cnn(-c2cccnc2)c(=O)c1

$$$$
