
     RDKit          3D

 42 44  0  0  0  0  0  0  0  0999 V2000
   10.4222    0.9188   22.8903 O   0  0  0  0  0  0  0  0  0  0  0  0
    9.6068    0.4607   23.6713 C   0  0  0  0  0  0  0  0  0  0  0  0
    9.0963    1.2571   24.8594 C   0  0  0  0  0  0  0  0  0  0  0  0
    7.7977    2.0233   24.5513 C   0  0  0  0  0  0  0  0  0  0  0  0
    7.3819    2.8070   25.7065 N   0  0  0  0  0  0  0  0  0  0  0  0
    6.6906    2.2654   26.7818 C   0  0  0  0  0  0  0  0  0  0  0  0
    6.2013    1.1589   26.7738 O   0  0  0  0  0  0  0  0  0  0  0  0
    6.7097    3.2925   27.8723 C   0  0  0  0  0  0  0  0  0  0  0  0
    6.1879    3.2687   29.1678 C   0  0  0  0  0  0  0  0  0  0  0  0
    6.4103    4.3862   29.9796 C   0  0  0  0  0  0  0  0  0  0  0  0
    7.1371    5.4973   29.5020 C   0  0  0  0  0  0  0  0  0  0  0  0
    7.6547    5.5130   28.2023 C   0  0  0  0  0  0  0  0  0  0  0  0
    7.4280    4.3923   27.3991 C   0  0  0  0  0  0  0  0  0  0  0  0
    7.8745    4.0716   26.0048 C   0  0  0  0  0  0  0  0  0  0  0  0
    8.5472    4.7316   25.2474 O   0  0  0  0  0  0  0  0  0  0  0  0
    8.2184    6.3682   27.8319 H   0  0  0  0  0  0  0  0  0  0  0  0
    7.2954    6.3519   30.1559 H   0  0  0  0  0  0  0  0  0  0  0  0
    6.0187    4.3999   30.9943 H   0  0  0  0  0  0  0  0  0  0  0  0
    5.6312    2.4080   29.5360 H   0  0  0  0  0  0  0  0  0  0  0  0
    6.9743    1.3408   24.3048 H   0  0  0  0  0  0  0  0  0  0  0  0
    7.9291    2.7198   23.7158 H   0  0  0  0  0  0  0  0  0  0  0  0
    8.9445    0.6237   25.7421 H   0  0  0  0  0  0  0  0  0  0  0  0
    9.8868    1.9784   25.0769 H   0  0  0  0  0  0  0  0  0  0  0  0
    9.0855   -0.7896   23.5150 N   0  0  0  0  0  0  0  0  0  0  0  0
    9.3036   -1.5450   22.2743 C   0  0  0  0  0  0  0  0  0  0  0  0
    8.6521   -0.9085   21.0619 C   0  0  0  0  0  0  0  0  0  0  0  0
    7.3353   -0.6974   20.9900 C   0  0  0  0  0  0  0  0  0  0  0  0
    6.6455   -0.0005   19.8991 C   0  0  0  0  0  0  0  0  0  0  0  0
    5.4230    0.6445   20.1423 C   0  0  0  0  0  0  0  0  0  0  0  0
    4.7928    1.3126   19.0951 C   0  0  0  0  0  0  0  0  0  0  0  0
    5.3927    1.2991   17.8302 C   0  0  0  0  0  0  0  0  0  0  0  0
    6.5579    0.6840   17.5706 N   0  0  0  0  0  0  0  0  0  0  0  0
    7.1647    0.0675   18.5918 C   0  0  0  0  0  0  0  0  0  0  0  0
    8.1120   -0.4214   18.3554 H   0  0  0  0  0  0  0  0  0  0  0  0
    4.9243    1.7955   16.9832 H   0  0  0  0  0  0  0  0  0  0  0  0
    3.8651    1.8500   19.2403 H   0  0  0  0  0  0  0  0  0  0  0  0
    5.0011    0.6312   21.1480 H   0  0  0  0  0  0  0  0  0  0  0  0
    6.6945   -0.9927   21.8227 H   0  0  0  0  0  0  0  0  0  0  0  0
    9.3134   -0.5142   20.2885 H   0  0  0  0  0  0  0  0  0  0  0  0
    8.8806   -2.5425   22.4388 H   0  0  0  0  0  0  0  0  0  0  0  0
   10.3803   -1.6579   22.0997 H   0  0  0  0  0  0  0  0  0  0  0  0
    8.3924   -1.0944   24.1752 H   0  0  0  0  0  0  0  0  0  0  0  0
  1  2  2  0
  2  3  1  0
  3  4  1  0
  4  5  1  0
  5  6  1  0
  6  7  2  0
  6  8  1  0
  8  9  2  0
  9 10  1  0
 10 11  2  0
 11 12  1  0
 12 13  2  0
 13 14  1  0
 14 15  2  0
 12 16  1  0
 11 17  1  0
 10 18  1  0
  9 19  1  0
  4 20  1  0
  4 21  1  0
  3 22  1  0
  3 23  1  0
  2 24  1  0
 24 25  1  0
 25 26  1  0
 26 27  2  3
 27 28  1  0
 28 29  2  0
 29 30  1  0
 30 31  2  0
 31 32  1  0
 32 33  2  0
 33 34  1  0
 31 35  1  0
 30 36  1  0
 29 37  1  0
 27 38  1  0
 26 39  1  0
 25 40  1  0
 25 41  1  0
 24 42  1  0
 14  5  1  0
 33 28  1  0
 13  8  1  0
M  END
>  <cnnaffinity>  (1) 
-5.10912

>  <filename>  (1) 
O=C(CCN1C(=O)c2ccccc2C1=O)NCC=Cc1cccnc1

$$$$
