
     RDKit          3D

 28 29  0  0  0  0  0  0  0  0999 V2000
    6.6817    3.9133   27.5400 H   0  0  0  0  0  0  0  0  0  0  0  0
    7.0375    4.0878   26.6509 O   0  0  0  0  0  0  0  0  0  0  0  0
    6.9322    2.8671   26.1173 C   0  0  0  0  0  0  0  0  0  0  0  0
    6.4897    1.9660   26.7914 O   0  0  0  0  0  0  0  0  0  0  0  0
    7.3982    2.7536   24.5931 C   0  0  0  0  0  0  0  0  0  0  0  0
    7.6080    3.7627   23.9252 O   0  0  0  0  0  0  0  0  0  0  0  0
    7.5343    1.4285   24.0387 C   0  0  0  0  0  0  0  0  0  0  0  0
    7.5535    0.5872   24.7142 H   0  0  0  0  0  0  0  0  0  0  0  0
    7.6394    1.1940   22.6958 C   0  0  0  0  0  0  0  0  0  0  0  0
    7.6557    2.1833   21.8149 O   0  0  0  0  0  0  0  0  0  0  0  0
    7.7086    3.0328   22.3333 H   0  0  0  0  0  0  0  0  0  0  0  0
    7.7520   -0.2095   22.2003 C   0  0  0  0  0  0  0  0  0  0  0  0
    8.3138   -1.1514   22.9043 N   0  0  0  0  0  0  0  0  0  0  0  0
    8.1438   -2.2759   22.1591 N   0  0  0  0  0  0  0  0  0  0  0  0
    8.2890   -3.1908   22.5445 H   0  0  0  0  0  0  0  0  0  0  0  0
    7.3072   -2.1095   21.0943 C   0  0  0  0  0  0  0  0  0  0  0  0
    6.7627   -2.9736   20.4395 O   0  0  0  0  0  0  0  0  0  0  0  0
    7.2124   -0.7073   21.0137 N   0  0  0  0  0  0  0  0  0  0  0  0
    6.5828    0.0119   19.9403 C   0  0  0  0  0  0  0  0  0  0  0  0
    7.1519    0.0579   18.6494 C   0  0  0  0  0  0  0  0  0  0  0  0
    8.1032   -0.4445   18.4631 H   0  0  0  0  0  0  0  0  0  0  0  0
    6.5816    0.6884   17.6172 N   0  0  0  0  0  0  0  0  0  0  0  0
    5.4107    1.3118   17.8327 C   0  0  0  0  0  0  0  0  0  0  0  0
    4.9868    1.8335   16.9759 H   0  0  0  0  0  0  0  0  0  0  0  0
    4.7659    1.3181   19.0729 C   0  0  0  0  0  0  0  0  0  0  0  0
    3.8310    1.8572   19.1798 H   0  0  0  0  0  0  0  0  0  0  0  0
    5.3615    0.6536   20.1523 C   0  0  0  0  0  0  0  0  0  0  0  0
    4.9025    0.6285   21.1420 H   0  0  0  0  0  0  0  0  0  0  0  0
  1  2  1  0
  2  3  1  0
  3  4  2  0
  3  5  1  0
  5  6  2  0
  5  7  1  0
  7  8  1  0
  7  9  2  3
  9 10  1  0
 10 11  1  0
  9 12  1  0
 12 13  2  0
 13 14  1  0
 14 15  1  0
 14 16  1  0
 16 17  2  0
 16 18  1  0
 18 19  1  0
 19 20  2  0
 20 21  1  0
 20 22  1  0
 22 23  2  0
 23 24  1  0
 23 25  1  0
 25 26  1  0
 25 27  2  0
 27 28  1  0
 18 12  1  0
 27 19  1  0
M  END
>  <cnnaffinity>  (1) 
-4.18555

>  <filename>  (1) 
O=C(O)C(=O)C=C(O)c1n[nH]c(=O)n1-c1cccnc1

$$$$
