
     RDKit          3D

 33 35  0  0  0  0  0  0  0  0999 V2000
    4.9118    1.8341   16.9674 H   0  0  0  0  0  0  0  0  0  0  0  0
    5.3742    1.3102   17.8018 C   0  0  0  0  0  0  0  0  0  0  0  0
    6.5264    0.6766   17.5295 N   0  0  0  0  0  0  0  0  0  0  0  0
    7.1596    0.0652   18.5393 C   0  0  0  0  0  0  0  0  0  0  0  0
    8.1105   -0.4067   18.3047 H   0  0  0  0  0  0  0  0  0  0  0  0
    6.6622    0.0245   19.8572 C   0  0  0  0  0  0  0  0  0  0  0  0
    7.3510   -0.6701   20.9348 N   0  0  0  0  0  0  0  0  0  0  0  0
    6.6999   -1.7039   21.5796 C   0  0  0  0  0  0  0  0  0  0  0  0
    5.7029   -1.9455   21.1999 H   0  0  0  0  0  0  0  0  0  0  0  0
    7.2852   -2.3775   22.6027 C   0  0  0  0  0  0  0  0  0  0  0  0
    6.6504   -3.5321   23.2409 C   0  0  0  0  0  0  0  0  0  0  0  0
    6.0607   -4.3424   22.5402 O   0  0  0  0  0  0  0  0  0  0  0  0
    6.7028   -3.7188   24.7328 C   0  0  0  0  0  0  0  0  0  0  0  0
    6.5172   -5.0246   25.2234 C   0  0  0  0  0  0  0  0  0  0  0  0
    6.3676   -5.8297   24.5047 H   0  0  0  0  0  0  0  0  0  0  0  0
    6.4819   -5.2692   26.5917 C   0  0  0  0  0  0  0  0  0  0  0  0
    6.3446   -6.2618   27.0045 H   0  0  0  0  0  0  0  0  0  0  0  0
    6.6035   -4.1958   27.4701 C   0  0  0  0  0  0  0  0  0  0  0  0
    6.5123   -4.4523   28.7830 F   0  0  0  0  0  0  0  0  0  0  0  0
    6.7889   -2.8910   27.0222 C   0  0  0  0  0  0  0  0  0  0  0  0
    6.8990   -2.0871   27.7405 H   0  0  0  0  0  0  0  0  0  0  0  0
    6.8294   -2.6553   25.6475 C   0  0  0  0  0  0  0  0  0  0  0  0
    6.9518   -1.6285   25.3099 H   0  0  0  0  0  0  0  0  0  0  0  0
    8.6575   -2.1097   22.9893 C   0  0  0  0  0  0  0  0  0  0  0  0
    9.3330   -2.7060   23.7956 O   0  0  0  0  0  0  0  0  0  0  0  0
    9.1995   -1.0480   22.3230 N   0  0  0  0  0  0  0  0  0  0  0  0
   10.1490   -0.8167   22.5325 H   0  0  0  0  0  0  0  0  0  0  0  0
    8.6706   -0.3102   21.3164 C   0  0  0  0  0  0  0  0  0  0  0  0
    9.3275    0.5669   20.8073 O   0  0  0  0  0  0  0  0  0  0  0  0
    5.4421    0.6600   20.1163 C   0  0  0  0  0  0  0  0  0  0  0  0
    5.0387    0.6316   21.1294 H   0  0  0  0  0  0  0  0  0  0  0  0
    4.7878    1.3281   19.0730 C   0  0  0  0  0  0  0  0  0  0  0  0
    3.8551    1.8655   19.2316 H   0  0  0  0  0  0  0  0  0  0  0  0
  1  2  1  0
  2  3  2  0
  3  4  1  0
  4  5  1  0
  4  6  2  0
  6  7  1  0
  7  8  1  0
  8  9  1  0
  8 10  2  0
 10 11  1  0
 11 12  2  0
 11 13  1  0
 13 14  2  0
 14 15  1  0
 14 16  1  0
 16 17  1  0
 16 18  2  0
 18 19  1  0
 18 20  1  0
 20 21  1  0
 20 22  2  0
 22 23  1  0
 10 24  1  0
 24 25  2  0
 24 26  1  0
 26 27  1  0
 26 28  1  0
 28 29  2  0
  6 30  1  0
 30 31  1  0
 30 32  2  0
 32 33  1  0
 32  2  1  0
 28  7  1  0
 22 13  1  0
M  END
>  <cnnaffinity>  (1) 
-5.44251

>  <filename>  (1) 
O=C(c1ccc(F)cc1)c1cn(-c2cccnc2)c(=O)[nH]c1=O

$$$$
