
     RDKit          3D

 34 35  0  0  0  0  0  0  0  0999 V2000
    9.1359    5.6788   24.4824 H   0  0  0  0  0  0  0  0  0  0  0  0
    9.5562    5.0744   25.1223 O   0  0  0  0  0  0  0  0  0  0  0  0
    9.6912    3.8501   24.4771 N   0  0  0  0  0  0  0  0  0  0  0  0
    9.2564    3.0890   24.9755 H   0  0  0  0  0  0  0  0  0  0  0  0
   10.7187    3.5285   23.6115 C   0  0  0  0  0  0  0  0  0  0  0  0
   11.5348    4.3070   23.1618 O   0  0  0  0  0  0  0  0  0  0  0  0
   10.6721    2.0711   23.1670 C   0  0  0  0  0  0  0  0  0  0  0  0
   11.7190    1.7625   23.0949 H   0  0  0  0  0  0  0  0  0  0  0  0
   10.1967    1.4075   23.9021 H   0  0  0  0  0  0  0  0  0  0  0  0
   10.0142    1.9210   21.7720 C   0  0  0  0  0  0  0  0  0  0  0  0
   10.1631    0.8962   21.3963 H   0  0  0  0  0  0  0  0  0  0  0  0
   10.5476    2.5850   21.0803 H   0  0  0  0  0  0  0  0  0  0  0  0
    8.5141    2.2390   21.7367 C   0  0  0  0  0  0  0  0  0  0  0  0
    8.1498    2.1771   20.7007 H   0  0  0  0  0  0  0  0  0  0  0  0
    8.3421    3.2720   22.0591 H   0  0  0  0  0  0  0  0  0  0  0  0
    7.6575    1.2979   22.6069 C   0  0  0  0  0  0  0  0  0  0  0  0
    6.6098    1.6030   22.5086 H   0  0  0  0  0  0  0  0  0  0  0  0
    7.9074    1.3837   23.6722 H   0  0  0  0  0  0  0  0  0  0  0  0
    7.7681   -0.1357   22.1822 C   0  0  0  0  0  0  0  0  0  0  0  0
    8.5739   -1.3442   23.1101 S   0  0  0  0  0  0  0  0  0  0  0  0
    8.4189   -2.4477   21.7942 C   0  0  0  0  0  0  0  0  0  0  0  0
    8.7899   -3.4662   21.8694 H   0  0  0  0  0  0  0  0  0  0  0  0
    7.8235   -1.9688   20.7478 N   0  0  0  0  0  0  0  0  0  0  0  0
    7.4135   -0.6724   20.9712 C   0  0  0  0  0  0  0  0  0  0  0  0
    6.6526    0.0190   19.9223 C   0  0  0  0  0  0  0  0  0  0  0  0
    7.1617    0.0356   18.6141 C   0  0  0  0  0  0  0  0  0  0  0  0
    8.1059   -0.4546   18.3834 H   0  0  0  0  0  0  0  0  0  0  0  0
    6.5666    0.6556   17.5910 N   0  0  0  0  0  0  0  0  0  0  0  0
    5.4090    1.2886   17.8368 C   0  0  0  0  0  0  0  0  0  0  0  0
    4.9556    1.7956   16.9868 H   0  0  0  0  0  0  0  0  0  0  0  0
    4.8005    1.3122   19.0959 C   0  0  0  0  0  0  0  0  0  0  0  0
    3.8660    1.8421   19.2317 H   0  0  0  0  0  0  0  0  0  0  0  0
    5.4307    0.6666   20.1592 C   0  0  0  0  0  0  0  0  0  0  0  0
    4.9794    0.6505   21.1528 H   0  0  0  0  0  0  0  0  0  0  0  0
  1  2  1  0
  2  3  1  0
  3  4  1  0
  3  5  1  0
  5  6  2  0
  5  7  1  0
  7  8  1  0
  7  9  1  0
  7 10  1  0
 10 11  1  0
 10 12  1  0
 10 13  1  0
 13 14  1  0
 13 15  1  0
 13 16  1  0
 16 17  1  0
 16 18  1  0
 16 19  1  0
 19 20  1  0
 20 21  1  0
 21 22  1  0
 21 23  2  0
 23 24  1  0
 24 25  1  0
 25 26  2  0
 26 27  1  0
 26 28  1  0
 28 29  2  0
 29 30  1  0
 29 31  1  0
 31 32  1  0
 31 33  2  0
 33 34  1  0
 24 19  2  0
 33 25  1  0
M  END
>  <cnnaffinity>  (1) 
-5.0483

>  <filename>  (1) 
O=C(CCCCc1scnc1-c1cccnc1)NO

$$$$
