
     RDKit          3D

 42 45  0  0  0  0  0  0  0  0999 V2000
    4.9947    1.7558   16.9738 H   0  0  0  0  0  0  0  0  0  0  0  0
    5.4545    1.3092   17.8507 C   0  0  0  0  0  0  0  0  0  0  0  0
    6.6072    0.6645   17.6305 N   0  0  0  0  0  0  0  0  0  0  0  0
    7.2005    0.1038   18.6888 C   0  0  0  0  0  0  0  0  0  0  0  0
    8.1276   -0.4203   18.4604 H   0  0  0  0  0  0  0  0  0  0  0  0
    6.7111    0.1516   20.0147 C   0  0  0  0  0  0  0  0  0  0  0  0
    7.4827   -0.4634   21.2051 C   0  0  2  0  0  0  0  0  0  0  0  0
    8.1964    0.6839   22.0141 C   0  0  0  0  0  0  0  0  0  0  0  0
    7.9039    0.9854   23.1575 O   0  0  0  0  0  0  0  0  0  0  0  0
    9.2100    1.3064   21.3255 N   0  0  0  0  0  0  0  0  0  0  0  0
    9.3646    0.9852   20.3882 H   0  0  0  0  0  0  0  0  0  0  0  0
   10.0565    2.3244   21.8064 C   0  0  0  0  0  0  0  0  0  0  0  0
    9.6022    3.2486   22.7508 C   0  0  0  0  0  0  0  0  0  0  0  0
    8.5846    3.1557   23.0969 H   0  0  0  0  0  0  0  0  0  0  0  0
   10.4456    4.2543   23.2345 C   0  0  0  0  0  0  0  0  0  0  0  0
   10.0769    4.9551   23.9789 H   0  0  0  0  0  0  0  0  0  0  0  0
   11.7624    4.3073   22.7662 C   0  0  0  0  0  0  0  0  0  0  0  0
   12.8899    5.4848   23.3703 Cl  0  0  0  0  0  0  0  0  0  0  0  0
   12.2271    3.3882   21.8254 C   0  0  0  0  0  0  0  0  0  0  0  0
   13.2551    3.4722   21.4958 H   0  0  0  0  0  0  0  0  0  0  0  0
   11.3732    2.3950   21.3392 C   0  0  0  0  0  0  0  0  0  0  0  0
   11.7267    1.6666   20.6203 H   0  0  0  0  0  0  0  0  0  0  0  0
    8.5136   -1.5889   20.7909 C   0  0  0  0  0  0  0  0  0  0  0  0
    9.5396   -1.3007   21.0418 H   0  0  0  0  0  0  0  0  0  0  0  0
    8.4971   -1.7519   19.7196 H   0  0  0  0  0  0  0  0  0  0  0  0
    8.1206   -2.8345   21.6126 C   0  0  2  0  0  0  0  0  0  0  0  0
    8.9465   -3.5418   21.7180 H   0  0  0  0  0  0  0  0  0  0  0  0
    6.8065   -3.4719   21.1061 C   0  0  0  0  0  0  0  0  0  0  0  0
    6.7843   -3.7775   20.0567 H   0  0  0  0  0  0  0  0  0  0  0  0
    6.5954   -4.3835   21.6805 H   0  0  0  0  0  0  0  0  0  0  0  0
    5.7642   -2.3613   21.4153 C   0  0  0  0  0  0  0  0  0  0  0  0
    5.3630   -1.9373   20.4898 H   0  0  0  0  0  0  0  0  0  0  0  0
    4.9278   -2.7538   22.0020 H   0  0  0  0  0  0  0  0  0  0  0  0
    6.5874   -1.3025   22.1915 C   0  0  1  0  0  0  0  0  0  0  0  0
    6.0391   -0.6392   22.8599 H   0  0  0  0  0  0  0  0  0  0  0  0
    7.6249   -2.1787   22.9101 C   0  0  0  0  0  0  0  0  0  0  0  0
    8.3757   -1.5915   23.4515 H   0  0  0  0  0  0  0  0  0  0  0  0
    7.1832   -2.8933   23.6182 H   0  0  0  0  0  0  0  0  0  0  0  0
    5.5010    0.8406   20.2149 C   0  0  0  0  0  0  0  0  0  0  0  0
    5.0508    0.9156   21.2090 H   0  0  0  0  0  0  0  0  0  0  0  0
    4.8585    1.4134   19.1115 C   0  0  0  0  0  0  0  0  0  0  0  0
    3.9174    1.9431   19.2119 H   0  0  0  0  0  0  0  0  0  0  0  0
  1  2  1  0
  2  3  2  0
  3  4  1  0
  4  5  1  0
  4  6  2  0
  6  7  1  0
  7  8  1  1
  8  9  2  0
  8 10  1  0
 10 11  1  0
 10 12  1  0
 12 13  2  0
 13 14  1  0
 13 15  1  0
 15 16  1  0
 15 17  2  0
 17 18  1  0
 17 19  1  0
 19 20  1  0
 19 21  2  0
 21 22  1  0
  7 23  1  0
 23 24  1  0
 23 25  1  0
 23 26  1  0
 26 27  1  1
 26 28  1  0
 28 29  1  0
 28 30  1  0
 28 31  1  0
 31 32  1  0
 31 33  1  0
 31 34  1  0
 34 35  1  1
 34 36  1  0
 36 37  1  0
 36 38  1  0
  6 39  1  0
 39 40  1  0
 39 41  2  0
 41 42  1  0
 41  2  1  0
 34  7  1  0
 21 12  1  0
 36 26  1  0
M  END
>  <cnnaffinity>  (1) 
-5.44484

>  <filename>  (1) 
O=C(Nc1ccc(Cl)cc1)[C@@]1(c2cccnc2)C[C@@H]2CC[C@H]1C2

$$$$
