
     RDKit          3D

 38 39  0  0  0  0  0  0  0  0999 V2000
    9.5752   -0.9654   29.1703 H   0  0  0  0  0  0  0  0  0  0  0  0
    9.6186   -0.8205   28.2060 O   0  0  0  0  0  0  0  0  0  0  0  0
    8.3155   -0.9041   27.6998 N   0  0  0  0  0  0  0  0  0  0  0  0
    8.3567   -1.3201   26.7802 H   0  0  0  0  0  0  0  0  0  0  0  0
    7.4455    0.1856   27.7423 C   0  0  0  0  0  0  0  0  0  0  0  0
    7.5311    1.1168   28.5083 O   0  0  0  0  0  0  0  0  0  0  0  0
    6.2902    0.0118   26.7733 C   0  0  0  0  0  0  0  0  0  0  0  0
    5.3921    0.2236   27.3606 H   0  0  0  0  0  0  0  0  0  0  0  0
    6.2284   -1.0308   26.4439 H   0  0  0  0  0  0  0  0  0  0  0  0
    6.3611    0.9619   25.5657 C   0  0  0  0  0  0  0  0  0  0  0  0
    6.4830    1.9900   25.9366 H   0  0  0  0  0  0  0  0  0  0  0  0
    5.3986    0.9257   25.0376 H   0  0  0  0  0  0  0  0  0  0  0  0
    7.4866    0.6114   24.5905 C   0  0  0  0  0  0  0  0  0  0  0  0
    8.4551    0.6576   25.1097 H   0  0  0  0  0  0  0  0  0  0  0  0
    7.3659   -0.4255   24.2386 H   0  0  0  0  0  0  0  0  0  0  0  0
    7.5491    1.5237   23.3494 C   0  0  0  0  0  0  0  0  0  0  0  0
    6.5808    1.5064   22.8293 H   0  0  0  0  0  0  0  0  0  0  0  0
    7.7139    2.5653   23.6521 H   0  0  0  0  0  0  0  0  0  0  0  0
    8.6083    1.1054   22.3782 C   0  0  0  0  0  0  0  0  0  0  0  0
    8.6024    0.0987   21.4293 C   0  0  0  0  0  0  0  0  0  0  0  0
    7.4130   -0.7201   20.9845 C   0  0  0  0  0  0  0  0  0  0  0  0
    7.7579   -1.7011   20.6292 H   0  0  0  0  0  0  0  0  0  0  0  0
    6.7597   -0.9367   21.8437 H   0  0  0  0  0  0  0  0  0  0  0  0
    6.6164   -0.0266   19.8894 C   0  0  0  0  0  0  0  0  0  0  0  0
    7.1384    0.0474   18.5858 C   0  0  0  0  0  0  0  0  0  0  0  0
    8.0912   -0.4337   18.3575 H   0  0  0  0  0  0  0  0  0  0  0  0
    6.5483    0.6790   17.5642 N   0  0  0  0  0  0  0  0  0  0  0  0
    5.3885    1.3053   17.8154 C   0  0  0  0  0  0  0  0  0  0  0  0
    4.9332    1.8250   16.9752 H   0  0  0  0  0  0  0  0  0  0  0  0
    4.7748    1.3167   19.0709 C   0  0  0  0  0  0  0  0  0  0  0  0
    3.8456    1.8637   19.2145 H   0  0  0  0  0  0  0  0  0  0  0  0
    5.4043    0.6412   20.1211 C   0  0  0  0  0  0  0  0  0  0  0  0
    4.9552    0.6507   21.1155 H   0  0  0  0  0  0  0  0  0  0  0  0
    9.9227    0.0818   20.9305 C   0  0  0  0  0  0  0  0  0  0  0  0
   10.3386   -0.5838   20.1865 H   0  0  0  0  0  0  0  0  0  0  0  0
   10.6969    0.9970   21.5014 N   0  0  0  0  0  0  0  0  0  0  0  0
    9.8743    1.6003   22.3745 N   0  0  0  0  0  0  0  0  0  0  0  0
   10.2404    2.3058   22.9950 H   0  0  0  0  0  0  0  0  0  0  0  0
  1  2  1  0
  2  3  1  0
  3  4  1  0
  3  5  1  0
  5  6  2  0
  5  7  1  0
  7  8  1  0
  7  9  1  0
  7 10  1  0
 10 11  1  0
 10 12  1  0
 10 13  1  0
 13 14  1  0
 13 15  1  0
 13 16  1  0
 16 17  1  0
 16 18  1  0
 16 19  1  0
 19 20  2  0
 20 21  1  0
 21 22  1  0
 21 23  1  0
 21 24  1  0
 24 25  2  0
 25 26  1  0
 25 27  1  0
 27 28  2  0
 28 29  1  0
 28 30  1  0
 30 31  1  0
 30 32  2  0
 32 33  1  0
 20 34  1  0
 34 35  1  0
 34 36  2  0
 36 37  1  0
 37 38  1  0
 37 19  1  0
 32 24  1  0
M  END
>  <cnnaffinity>  (1) 
-4.69452

>  <filename>  (1) 
O=C(CCCCc1[nH]ncc1Cc1cccnc1)NO

$$$$
