
     RDKit          3D

 44 46  0  0  0  0  0  0  0  0999 V2000
    5.0171    1.8974   16.9048 H   0  0  0  0  0  0  0  0  0  0  0  0
    5.4383    1.3629   17.7569 C   0  0  0  0  0  0  0  0  0  0  0  0
    6.5908    0.7156   17.5264 N   0  0  0  0  0  0  0  0  0  0  0  0
    7.1433    0.0591   18.5585 C   0  0  0  0  0  0  0  0  0  0  0  0
    8.0830   -0.4523   18.3506 H   0  0  0  0  0  0  0  0  0  0  0  0
    6.5956    0.0150   19.8554 C   0  0  0  0  0  0  0  0  0  0  0  0
    7.2942   -0.7192   20.9370 C   0  0  0  0  0  0  0  0  0  0  0  0
    7.5378   -2.0665   21.0511 C   0  0  0  0  0  0  0  0  0  0  0  0
    7.1698   -2.8149   20.3626 H   0  0  0  0  0  0  0  0  0  0  0  0
    8.2717   -2.2787   22.2510 C   0  0  0  0  0  0  0  0  0  0  0  0
    8.6266   -3.2301   22.6303 H   0  0  0  0  0  0  0  0  0  0  0  0
    8.4295   -1.0543   22.8424 C   0  0  0  0  0  0  0  0  0  0  0  0
    8.8161   -0.7641   23.8131 H   0  0  0  0  0  0  0  0  0  0  0  0
    7.8349   -0.0989   22.0468 N   0  0  0  0  0  0  0  0  0  0  0  0
    7.9015    1.3183   22.3611 C   0  0  0  0  0  0  0  0  0  0  0  0
    8.7530    1.4230   23.0386 H   0  0  0  0  0  0  0  0  0  0  0  0
    8.1176    1.8813   21.4469 H   0  0  0  0  0  0  0  0  0  0  0  0
    6.7379    1.8994   23.0095 N   0  0  0  0  0  0  0  0  0  0  0  0
    5.9969    2.1984   22.4026 H   0  0  0  0  0  0  0  0  0  0  0  0
    6.2695    1.3242   24.1749 C   0  0  0  0  0  0  0  0  0  0  0  0
    6.9256    0.5602   24.8626 O   0  0  0  0  0  0  0  0  0  0  0  0
    5.0094    1.7413   24.4640 N   0  0  0  0  0  0  0  0  0  0  0  0
    4.6281    2.4538   23.8720 H   0  0  0  0  0  0  0  0  0  0  0  0
    4.3025    1.3693   25.6796 C   0  0  0  0  0  0  0  0  0  0  0  0
    4.9652    1.4838   26.5560 H   0  0  0  0  0  0  0  0  0  0  0  0
    3.8702   -0.1082   25.6369 C   0  0  0  0  0  0  0  0  0  0  0  0
    4.7786   -0.7241   25.6299 H   0  0  0  0  0  0  0  0  0  0  0  0
    3.3352   -0.2924   24.6995 H   0  0  0  0  0  0  0  0  0  0  0  0
    2.9416   -0.4776   26.8037 C   0  0  0  0  0  0  0  0  0  0  0  0
    3.5030   -0.4451   27.7495 H   0  0  0  0  0  0  0  0  0  0  0  0
    2.5897   -1.5102   26.6829 H   0  0  0  0  0  0  0  0  0  0  0  0
    1.7405    0.4834   26.8889 C   0  0  0  0  0  0  0  0  0  0  0  0
    1.1521    0.4008   25.9613 H   0  0  0  0  0  0  0  0  0  0  0  0
    1.0731    0.2038   27.7170 H   0  0  0  0  0  0  0  0  0  0  0  0
    2.2029    1.9466   27.0147 C   0  0  0  0  0  0  0  0  0  0  0  0
    2.7538    2.0882   27.9564 H   0  0  0  0  0  0  0  0  0  0  0  0
    1.3432    2.6267   27.0590 H   0  0  0  0  0  0  0  0  0  0  0  0
    3.1077    2.3217   25.8288 C   0  0  0  0  0  0  0  0  0  0  0  0
    3.4890    3.3499   25.9184 H   0  0  0  0  0  0  0  0  0  0  0  0
    2.5168    2.2726   24.8991 H   0  0  0  0  0  0  0  0  0  0  0  0
    5.3686    0.6660   20.0596 C   0  0  0  0  0  0  0  0  0  0  0  0
    4.8771    0.6039   21.0339 H   0  0  0  0  0  0  0  0  0  0  0  0
    4.7866    1.3627   18.9951 C   0  0  0  0  0  0  0  0  0  0  0  0
    3.8501    1.8977   19.1083 H   0  0  0  0  0  0  0  0  0  0  0  0
  1  2  1  0
  2  3  2  0
  3  4  1  0
  4  5  1  0
  4  6  2  0
  6  7  1  0
  7  8  2  0
  8  9  1  0
  8 10  1  0
 10 11  1  0
 10 12  2  0
 12 13  1  0
 12 14  1  0
 14 15  1  0
 15 16  1  0
 15 17  1  0
 15 18  1  0
 18 19  1  0
 18 20  1  0
 20 21  2  0
 20 22  1  0
 22 23  1  0
 22 24  1  0
 24 25  1  0
 24 26  1  0
 26 27  1  0
 26 28  1  0
 26 29  1  0
 29 30  1  0
 29 31  1  0
 29 32  1  0
 32 33  1  0
 32 34  1  0
 32 35  1  0
 35 36  1  0
 35 37  1  0
 35 38  1  0
 38 39  1  0
 38 40  1  0
  6 41  1  0
 41 42  1  0
 41 43  2  0
 43 44  1  0
 43  2  1  0
 14  7  1  0
 38 24  1  0
M  END
>  <cnnaffinity>  (1) 
-4.77627

>  <filename>  (1) 
O=C(NCn1cccc1-c1cccnc1)NC1CCCCC1

$$$$
