
     RDKit          3D

 32 33  0  0  0  0  0  0  0  0999 V2000
    9.3444   -2.3167   22.6493 H   0  0  0  0  0  0  0  0  0  0  0  0
    8.6222   -2.5513   23.2556 O   0  0  0  0  0  0  0  0  0  0  0  0
    7.6100   -1.5412   23.2583 C   0  0  2  0  0  0  0  0  0  0  0  0
    6.8388   -1.9076   23.9443 H   0  0  0  0  0  0  0  0  0  0  0  0
    6.8081   -1.3886   21.9204 C   0  0  0  0  0  0  0  0  0  0  0  0
    5.7684   -1.9852   21.7289 O   0  0  0  0  0  0  0  0  0  0  0  0
    7.3891   -0.5685   20.9565 N   0  0  0  0  0  0  0  0  0  0  0  0
    8.3968   -0.5975   20.9018 H   0  0  0  0  0  0  0  0  0  0  0  0
    6.7033    0.0467   19.8823 C   0  0  0  0  0  0  0  0  0  0  0  0
    7.2026    0.0831   18.5609 C   0  0  0  0  0  0  0  0  0  0  0  0
    8.1476   -0.4104   18.3227 H   0  0  0  0  0  0  0  0  0  0  0  0
    6.5622    0.6829   17.5494 N   0  0  0  0  0  0  0  0  0  0  0  0
    5.3972    1.2988   17.8178 C   0  0  0  0  0  0  0  0  0  0  0  0
    4.9224    1.8037   16.9803 H   0  0  0  0  0  0  0  0  0  0  0  0
    4.8039    1.3141   19.0855 C   0  0  0  0  0  0  0  0  0  0  0  0
    3.8673    1.8482   19.2468 H   0  0  0  0  0  0  0  0  0  0  0  0
    5.4697    0.6601   20.1290 C   0  0  0  0  0  0  0  0  0  0  0  0
    5.0601    0.6016   21.1361 H   0  0  0  0  0  0  0  0  0  0  0  0
    8.2077   -0.2220   23.7973 C   0  0  0  0  0  0  0  0  0  0  0  0
    9.0085    0.1279   23.1286 H   0  0  0  0  0  0  0  0  0  0  0  0
    8.7166   -0.4921   24.7266 H   0  0  0  0  0  0  0  0  0  0  0  0
    7.2046    0.8853   24.0457 C   0  0  0  0  0  0  0  0  0  0  0  0
    6.4192    0.8910   25.2115 C   0  0  0  0  0  0  0  0  0  0  0  0
    6.5574    0.1101   25.9611 H   0  0  0  0  0  0  0  0  0  0  0  0
    5.4474    1.8750   25.4089 C   0  0  0  0  0  0  0  0  0  0  0  0
    4.8208    1.8768   26.2967 H   0  0  0  0  0  0  0  0  0  0  0  0
    5.2466    2.8786   24.4538 C   0  0  0  0  0  0  0  0  0  0  0  0
    4.0212    4.0721   24.7468 Cl  0  0  0  0  0  0  0  0  0  0  0  0
    6.0398    2.8928   23.2936 C   0  0  0  0  0  0  0  0  0  0  0  0
    5.8387    4.1054   22.0665 Cl  0  0  0  0  0  0  0  0  0  0  0  0
    7.0105    1.9037   23.0995 C   0  0  0  0  0  0  0  0  0  0  0  0
    7.5909    1.9247   22.1818 H   0  0  0  0  0  0  0  0  0  0  0  0
  1  2  1  0
  2  3  1  0
  3  4  1  1
  3  5  1  0
  5  6  2  0
  5  7  1  0
  7  8  1  0
  7  9  1  0
  9 10  2  0
 10 11  1  0
 10 12  1  0
 12 13  2  0
 13 14  1  0
 13 15  1  0
 15 16  1  0
 15 17  2  0
 17 18  1  0
  3 19  1  0
 19 20  1  0
 19 21  1  0
 19 22  1  0
 22 23  2  0
 23 24  1  0
 23 25  1  0
 25 26  1  0
 25 27  2  0
 27 28  1  0
 27 29  1  0
 29 30  1  0
 29 31  2  0
 31 32  1  0
 17  9  1  0
 31 22  1  0
M  END
>  <cnnaffinity>  (1) 
-4.89236

>  <filename>  (1) 
O=C(Nc1cccnc1)[C@@H](O)Cc1ccc(Cl)c(Cl)c1

$$$$
