
     RDKit          3D

 34 35  0  0  0  0  0  0  0  0999 V2000
    5.7832   -2.2056   21.5245 O   0  0  0  0  0  0  0  0  0  0  0  0
    6.7686   -1.5563   21.8445 C   0  0  0  0  0  0  0  0  0  0  0  0
    7.5471   -1.9217   22.9218 N   0  0  0  0  0  0  0  0  0  0  0  0
    7.0625   -2.7085   24.0619 C   0  0  0  0  0  0  0  0  0  0  0  0
    6.8699   -4.1669   23.6309 C   0  0  0  0  0  0  0  0  0  0  0  0
    6.1908   -4.9607   24.6235 O   0  0  0  0  0  0  0  0  0  0  0  0
    6.9084   -5.3919   25.7154 C   0  0  0  0  0  0  0  0  0  0  0  0
    8.2971   -5.2009   25.8364 C   0  0  0  0  0  0  0  0  0  0  0  0
    8.9733   -5.5972   26.9909 C   0  0  0  0  0  0  0  0  0  0  0  0
    8.2644   -6.2024   28.0246 C   0  0  0  0  0  0  0  0  0  0  0  0
    6.8968   -6.4631   27.8969 C   0  0  0  0  0  0  0  0  0  0  0  0
    6.2213   -6.0638   26.7421 C   0  0  0  0  0  0  0  0  0  0  0  0
    4.3592   -6.4757   26.5584 Br  0  0  0  0  0  0  0  0  0  0  0  0
    6.3452   -6.9826   28.6757 H   0  0  0  0  0  0  0  0  0  0  0  0
    8.7978   -6.4833   28.9190 H   0  0  0  0  0  0  0  0  0  0  0  0
   10.0445   -5.4427   27.1025 H   0  0  0  0  0  0  0  0  0  0  0  0
    8.8498   -4.7426   25.0257 H   0  0  0  0  0  0  0  0  0  0  0  0
    7.8415   -4.6087   23.3876 H   0  0  0  0  0  0  0  0  0  0  0  0
    6.2777   -4.1774   22.7125 H   0  0  0  0  0  0  0  0  0  0  0  0
    7.7819   -2.6619   24.8887 H   0  0  0  0  0  0  0  0  0  0  0  0
    6.1113   -2.3056   24.4387 H   0  0  0  0  0  0  0  0  0  0  0  0
    8.4454   -1.4494   22.9991 H   0  0  0  0  0  0  0  0  0  0  0  0
    7.3890   -0.7054   20.9601 N   0  0  0  0  0  0  0  0  0  0  0  0
    6.7335   -0.0369   19.9031 C   0  0  0  0  0  0  0  0  0  0  0  0
    5.5035    0.5686   20.1616 C   0  0  0  0  0  0  0  0  0  0  0  0
    4.8599    1.2340   19.1107 C   0  0  0  0  0  0  0  0  0  0  0  0
    5.4577    1.2806   17.8404 C   0  0  0  0  0  0  0  0  0  0  0  0
    6.6456    0.7045   17.5727 N   0  0  0  0  0  0  0  0  0  0  0  0
    7.2660    0.0671   18.5903 C   0  0  0  0  0  0  0  0  0  0  0  0
    8.2282   -0.3914   18.3909 H   0  0  0  0  0  0  0  0  0  0  0  0
    4.9360    1.7992   17.0417 H   0  0  0  0  0  0  0  0  0  0  0  0
    3.9063    1.7304   19.2616 H   0  0  0  0  0  0  0  0  0  0  0  0
    5.0793    0.5406   21.1670 H   0  0  0  0  0  0  0  0  0  0  0  0
    8.4007   -0.7390   20.9900 H   0  0  0  0  0  0  0  0  0  0  0  0
  1  2  2  0
  2  3  1  0
  3  4  1  0
  4  5  1  0
  5  6  1  0
  6  7  1  0
  7  8  2  0
  8  9  1  0
  9 10  2  0
 10 11  1  0
 11 12  2  0
 12 13  1  0
 11 14  1  0
 10 15  1  0
  9 16  1  0
  8 17  1  0
  5 18  1  0
  5 19  1  0
  4 20  1  0
  4 21  1  0
  3 22  1  0
  2 23  1  0
 23 24  1  0
 24 25  2  0
 25 26  1  0
 26 27  2  0
 27 28  1  0
 28 29  2  0
 29 30  1  0
 27 31  1  0
 26 32  1  0
 25 33  1  0
 23 34  1  0
 12  7  1  0
 29 24  1  0
M  END
>  <cnnaffinity>  (1) 
-4.73859

>  <filename>  (1) 
O=C(NCCOc1ccccc1Br)Nc1cccnc1

$$$$
