
     RDKit          3D

 32 33  0  0  0  0  0  0  0  0999 V2000
    8.6740   -1.1380   23.9239 O   0  0  0  0  0  0  0  0  0  0  0  0
    9.5874   -1.5544   23.2256 C   0  0  0  0  0  0  0  0  0  0  0  0
    9.3558   -2.5924   22.3427 N   0  0  0  0  0  0  0  0  0  0  0  0
    8.0311   -2.8905   21.8355 C   0  0  0  0  0  0  0  0  0  0  0  0
    7.7267   -1.8465   20.8169 C   0  0  0  0  0  0  0  0  0  0  0  0
    6.5496   -1.1366   20.8329 C   0  0  0  0  0  0  0  0  0  0  0  0
    6.2196   -0.1883   19.7675 C   0  0  0  0  0  0  0  0  0  0  0  0
    5.1662    0.7122   19.9235 C   0  0  0  0  0  0  0  0  0  0  0  0
    4.8924    1.5889   18.8730 C   0  0  0  0  0  0  0  0  0  0  0  0
    5.6667    1.5471   17.7087 C   0  0  0  0  0  0  0  0  0  0  0  0
    6.6803    0.6778   17.5474 N   0  0  0  0  0  0  0  0  0  0  0  0
    6.9439   -0.1688   18.5610 C   0  0  0  0  0  0  0  0  0  0  0  0
    7.7540   -0.8804   18.4353 H   0  0  0  0  0  0  0  0  0  0  0  0
    5.4448    2.2467   16.9081 H   0  0  0  0  0  0  0  0  0  0  0  0
    4.0954    2.3191   18.9513 H   0  0  0  0  0  0  0  0  0  0  0  0
    4.5892    0.7421   20.8456 H   0  0  0  0  0  0  0  0  0  0  0  0
    5.8553   -1.2921   21.6579 H   0  0  0  0  0  0  0  0  0  0  0  0
    8.4717   -1.6629   20.0479 H   0  0  0  0  0  0  0  0  0  0  0  0
    8.0239   -3.8745   21.3579 H   0  0  0  0  0  0  0  0  0  0  0  0
    7.2744   -2.9046   22.6272 H   0  0  0  0  0  0  0  0  0  0  0  0
   10.1357   -2.7933   21.7303 H   0  0  0  0  0  0  0  0  0  0  0  0
   10.8876   -0.8825   23.1671 C   0  0  0  0  0  0  0  0  0  0  0  0
   11.8490   -1.3168   22.2310 C   0  0  0  0  0  0  0  0  0  0  0  0
   13.0622   -0.6571   22.1121 C   0  0  0  0  0  0  0  0  0  0  0  0
   13.3279    0.4492   22.9034 C   0  0  0  0  0  0  0  0  0  0  0  0
   14.8048    1.2964   22.6786 Cl  0  0  0  0  0  0  0  0  0  0  0  0
   12.3956    0.8879   23.8382 C   0  0  0  0  0  0  0  0  0  0  0  0
   11.1821    0.2240   23.9886 C   0  0  0  0  0  0  0  0  0  0  0  0
    9.9332    0.9073   25.2692 Br  0  0  0  0  0  0  0  0  0  0  0  0
   12.5950    1.7777   24.4243 H   0  0  0  0  0  0  0  0  0  0  0  0
   13.7877   -0.9687   21.3691 H   0  0  0  0  0  0  0  0  0  0  0  0
   11.6485   -2.1483   21.5616 H   0  0  0  0  0  0  0  0  0  0  0  0
  1  2  2  0
  2  3  1  0
  3  4  1  0
  4  5  1  0
  5  6  2  3
  6  7  1  0
  7  8  2  0
  8  9  1  0
  9 10  2  0
 10 11  1  0
 11 12  2  0
 12 13  1  0
 10 14  1  0
  9 15  1  0
  8 16  1  0
  6 17  1  0
  5 18  1  0
  4 19  1  0
  4 20  1  0
  3 21  1  0
  2 22  1  0
 22 23  2  0
 23 24  1  0
 24 25  2  0
 25 26  1  0
 25 27  1  0
 27 28  2  0
 28 29  1  0
 27 30  1  0
 24 31  1  0
 23 32  1  0
 12  7  1  0
 28 22  1  0
M  END
>  <cnnaffinity>  (1) 
-5.62033

>  <filename>  (1) 
O=C(NCC=Cc1cccnc1)c1ccc(Cl)cc1Br

$$$$
