
     RDKit          3D

 32 33  0  0  0  0  0  0  0  0999 V2000
    9.5962    0.2681   21.6084 O   0  0  0  0  0  0  0  0  0  0  0  0
    8.3946    0.3302   21.7049 C   0  0  0  0  0  0  0  0  0  0  0  0
    7.4221   -0.6412   21.0318 C   0  0  0  0  0  0  0  0  0  0  0  0
    6.6400   -0.0004   19.8931 C   0  0  0  0  0  0  0  0  0  0  0  0
    5.4281    0.6547   20.1399 C   0  0  0  0  0  0  0  0  0  0  0  0
    4.7902    1.3182   19.0876 C   0  0  0  0  0  0  0  0  0  0  0  0
    5.3842    1.3018   17.8237 C   0  0  0  0  0  0  0  0  0  0  0  0
    6.5431    0.6763   17.5629 N   0  0  0  0  0  0  0  0  0  0  0  0
    7.1462    0.0516   18.5816 C   0  0  0  0  0  0  0  0  0  0  0  0
    8.1044   -0.4180   18.3521 H   0  0  0  0  0  0  0  0  0  0  0  0
    4.9175    1.8075   16.9779 H   0  0  0  0  0  0  0  0  0  0  0  0
    3.8636    1.8578   19.2367 H   0  0  0  0  0  0  0  0  0  0  0  0
    5.0122    0.6564   21.1491 H   0  0  0  0  0  0  0  0  0  0  0  0
    6.7321   -1.0268   21.7908 H   0  0  0  0  0  0  0  0  0  0  0  0
    8.0275   -1.4806   20.6819 H   0  0  0  0  0  0  0  0  0  0  0  0
    7.7424    1.2699   22.4160 O   0  0  0  0  0  0  0  0  0  0  0  0
    8.5467    2.2824   23.0538 C   0  0  0  0  0  0  0  0  0  0  0  0
    7.6433    3.2440   23.6802 C   0  0  0  0  0  0  0  0  0  0  0  0
    6.9487    4.0713   24.2182 C   0  0  0  0  0  0  0  0  0  0  0  0
    6.0630    5.0306   24.8244 C   0  0  0  0  0  0  0  0  0  0  0  0
    6.5051    5.8468   25.8871 C   0  0  0  0  0  0  0  0  0  0  0  0
    5.6535    6.7764   26.4899 C   0  0  0  0  0  0  0  0  0  0  0  0
    4.3346    6.9135   26.0421 C   0  0  0  0  0  0  0  0  0  0  0  0
    3.8710    6.1196   24.9922 C   0  0  0  0  0  0  0  0  0  0  0  0
    4.7271    5.1898   24.3929 C   0  0  0  0  0  0  0  0  0  0  0  0
    4.0868    4.2234   23.0910 Cl  0  0  0  0  0  0  0  0  0  0  0  0
    2.8535    6.2085   24.6253 H   0  0  0  0  0  0  0  0  0  0  0  0
    3.6684    7.6375   26.5076 H   0  0  0  0  0  0  0  0  0  0  0  0
    6.0154    7.3942   27.3061 H   0  0  0  0  0  0  0  0  0  0  0  0
    7.5292    5.7408   26.2353 H   0  0  0  0  0  0  0  0  0  0  0  0
    9.1960    2.7769   22.3191 H   0  0  0  0  0  0  0  0  0  0  0  0
    9.1990    1.8137   23.7994 H   0  0  0  0  0  0  0  0  0  0  0  0
  1  2  2  0
  2  3  1  0
  3  4  1  0
  4  5  2  0
  5  6  1  0
  6  7  2  0
  7  8  1  0
  8  9  2  0
  9 10  1  0
  7 11  1  0
  6 12  1  0
  5 13  1  0
  3 14  1  0
  3 15  1  0
  2 16  1  0
 16 17  1  0
 17 18  1  0
 18 19  3  0
 19 20  1  0
 20 21  2  0
 21 22  1  0
 22 23  2  0
 23 24  1  0
 24 25  2  0
 25 26  1  0
 24 27  1  0
 23 28  1  0
 22 29  1  0
 21 30  1  0
 17 31  1  0
 17 32  1  0
  9  4  1  0
 25 20  1  0
M  END
>  <cnnaffinity>  (1) 
-4.42919

>  <filename>  (1) 
O=C(Cc1cccnc1)OCC#Cc1ccccc1Cl

$$$$
