
     RDKit          3D

 35 37  0  0  0  0  0  0  0  0999 V2000
    5.2290    2.5627   16.0532 H   0  0  0  0  0  0  0  0  0  0  0  0
    5.5323    2.0020   16.9356 C   0  0  0  0  0  0  0  0  0  0  0  0
    6.6037    1.2056   16.7900 N   0  0  0  0  0  0  0  0  0  0  0  0
    7.0105    0.5012   17.8518 C   0  0  0  0  0  0  0  0  0  0  0  0
    7.8864   -0.1343   17.7263 H   0  0  0  0  0  0  0  0  0  0  0  0
    6.3571    0.5382   19.0959 C   0  0  0  0  0  0  0  0  0  0  0  0
    6.8282   -0.2309   20.2041 N   0  0  0  0  0  0  0  0  0  0  0  0
    6.1631   -1.3481   20.7355 C   0  0  0  0  0  0  0  0  0  0  0  0
    5.3730   -1.8424   20.2006 H   0  0  0  0  0  0  0  0  0  0  0  0
    6.8264   -1.6770   21.8613 C   0  0  0  0  0  0  0  0  0  0  0  0
    6.6093   -2.6648   22.8136 N   0  0  0  0  0  0  0  0  0  0  0  0
    5.8033   -3.2417   22.6853 H   0  0  0  0  0  0  0  0  0  0  0  0
    7.5827   -3.0967   23.6835 C   0  0  0  0  0  0  0  0  0  0  0  0
    8.6370   -2.5074   23.8499 O   0  0  0  0  0  0  0  0  0  0  0  0
    7.2414   -4.2584   24.3461 N   0  0  0  0  0  0  0  0  0  0  0  0
    6.2622   -4.4565   24.4298 H   0  0  0  0  0  0  0  0  0  0  0  0
    8.0633   -4.7431   25.3987 C   0  0  0  0  0  0  0  0  0  0  0  0
    9.4505   -4.7894   25.2088 C   0  0  0  0  0  0  0  0  0  0  0  0
    9.8604   -4.5332   24.2436 H   0  0  0  0  0  0  0  0  0  0  0  0
   10.2912   -5.0796   26.2778 C   0  0  0  0  0  0  0  0  0  0  0  0
   11.3654   -5.0383   26.1243 H   0  0  0  0  0  0  0  0  0  0  0  0
    9.7505   -5.3570   27.5348 C   0  0  0  0  0  0  0  0  0  0  0  0
   10.4167   -5.5371   28.3708 H   0  0  0  0  0  0  0  0  0  0  0  0
    8.3623   -5.3938   27.7047 C   0  0  0  0  0  0  0  0  0  0  0  0
    7.9420   -5.6850   28.6634 H   0  0  0  0  0  0  0  0  0  0  0  0
    7.5104   -5.0998   26.6307 C   0  0  0  0  0  0  0  0  0  0  0  0
    6.4306   -5.0907   26.7588 H   0  0  0  0  0  0  0  0  0  0  0  0
    7.8748   -0.8157   22.0014 N   0  0  0  0  0  0  0  0  0  0  0  0
    8.6077   -0.9351   22.6799 H   0  0  0  0  0  0  0  0  0  0  0  0
    7.9238    0.0848   20.9829 C   0  0  0  0  0  0  0  0  0  0  0  0
    9.1160    1.2166   20.7935 S   0  0  0  0  0  0  0  0  0  0  0  0
    5.2327    1.3573   19.2392 C   0  0  0  0  0  0  0  0  0  0  0  0
    4.7141    1.3958   20.1980 H   0  0  0  0  0  0  0  0  0  0  0  0
    4.8246    2.1147   18.1372 C   0  0  0  0  0  0  0  0  0  0  0  0
    3.9812    2.7938   18.1949 H   0  0  0  0  0  0  0  0  0  0  0  0
  1  2  1  0
  2  3  2  0
  3  4  1  0
  4  5  1  0
  4  6  2  0
  6  7  1  0
  7  8  1  0
  8  9  1  0
  8 10  2  0
 10 11  1  0
 11 12  1  0
 11 13  1  0
 13 14  2  0
 13 15  1  0
 15 16  1  0
 15 17  1  0
 17 18  2  0
 18 19  1  0
 18 20  1  0
 20 21  1  0
 20 22  2  0
 22 23  1  0
 22 24  1  0
 24 25  1  0
 24 26  2  0
 26 27  1  0
 10 28  1  0
 28 29  1  0
 28 30  1  0
 30 31  2  0
  6 32  1  0
 32 33  1  0
 32 34  2  0
 34 35  1  0
 34  2  1  0
 30  7  1  0
 26 17  1  0
M  END
>  <cnnaffinity>  (1) 
-5.19808

>  <filename>  (1) 
O=C(Nc1ccccc1)Nc1cn(-c2cccnc2)c(=S)[nH]1

$$$$
