
     RDKit          3D

 41 43  0  0  0  0  0  0  0  0999 V2000
    7.7720   -1.9313   20.5330 O   0  0  0  0  0  0  0  0  0  0  0  0
    7.2057   -0.9084   20.8875 C   0  0  0  0  0  0  0  0  0  0  0  0
    6.6007   -0.0097   19.8624 C   0  0  0  0  0  0  0  0  0  0  0  0
    5.4257    0.7382   20.0383 C   0  0  0  0  0  0  0  0  0  0  0  0
    4.8950    1.3973   18.9293 C   0  0  0  0  0  0  0  0  0  0  0  0
    5.5720    1.3200   17.7079 C   0  0  0  0  0  0  0  0  0  0  0  0
    6.7114    0.6333   17.5415 N   0  0  0  0  0  0  0  0  0  0  0  0
    7.2016   -0.0181   18.5996 C   0  0  0  0  0  0  0  0  0  0  0  0
    8.1144   -0.5881   18.4431 H   0  0  0  0  0  0  0  0  0  0  0  0
    5.1889    1.8240   16.8203 H   0  0  0  0  0  0  0  0  0  0  0  0
    3.9811    1.9761   18.9884 H   0  0  0  0  0  0  0  0  0  0  0  0
    4.9223    0.8085   21.0055 H   0  0  0  0  0  0  0  0  0  0  0  0
    7.0569   -0.5594   22.2146 N   0  0  0  0  0  0  0  0  0  0  0  0
    7.2192    0.8287   22.6583 C   0  0  0  0  0  0  0  0  0  0  0  0
    8.5531    1.0972   23.3384 C   0  0  0  0  0  0  0  0  0  0  0  0
    8.6268    1.1373   24.7400 C   0  0  0  0  0  0  0  0  0  0  0  0
    9.8504    1.2219   25.4072 C   0  0  0  0  0  0  0  0  0  0  0  0
   11.0368    1.3306   24.6771 C   0  0  0  0  0  0  0  0  0  0  0  0
   10.9920    1.3882   23.2838 C   0  0  0  0  0  0  0  0  0  0  0  0
    9.7577    1.2746   22.6320 C   0  0  0  0  0  0  0  0  0  0  0  0
    9.7736    1.3703   20.8974 Cl  0  0  0  0  0  0  0  0  0  0  0  0
   11.8948    1.5175   22.6913 H   0  0  0  0  0  0  0  0  0  0  0  0
   11.9974    1.3775   25.1818 H   0  0  0  0  0  0  0  0  0  0  0  0
    9.8704    1.1890   26.4906 H   0  0  0  0  0  0  0  0  0  0  0  0
    7.7053    1.1058   25.3175 H   0  0  0  0  0  0  0  0  0  0  0  0
    7.1228    1.4851   21.7907 H   0  0  0  0  0  0  0  0  0  0  0  0
    6.4046    1.0826   23.3504 H   0  0  0  0  0  0  0  0  0  0  0  0
    7.0656   -1.6331   23.2343 C   0  0  0  0  0  0  0  0  0  0  0  0
    8.4725   -2.2327   23.5297 C   0  0  0  0  0  0  0  0  0  0  0  0
    8.2289   -3.7445   23.7085 C   0  0  0  0  0  0  0  0  0  0  0  0
    7.1532   -4.0289   22.6584 C   0  0  0  0  0  0  0  0  0  0  0  0
    6.1730   -2.8624   22.8620 C   0  0  0  0  0  0  0  0  0  0  0  0
    5.5697   -2.6722   21.9717 H   0  0  0  0  0  0  0  0  0  0  0  0
    5.4710   -3.0846   23.6794 H   0  0  0  0  0  0  0  0  0  0  0  0
    6.6812   -5.0125   22.7395 H   0  0  0  0  0  0  0  0  0  0  0  0
    7.5944   -3.9338   21.6615 H   0  0  0  0  0  0  0  0  0  0  0  0
    7.8482   -3.9603   24.7177 H   0  0  0  0  0  0  0  0  0  0  0  0
    9.1316   -4.3513   23.5862 H   0  0  0  0  0  0  0  0  0  0  0  0
    9.1109   -2.0634   22.6567 H   0  0  0  0  0  0  0  0  0  0  0  0
    8.9535   -1.7559   24.3934 H   0  0  0  0  0  0  0  0  0  0  0  0
    6.6698   -1.1728   24.1509 H   0  0  0  0  0  0  0  0  0  0  0  0
  1  2  2  0
  2  3  1  0
  3  4  2  0
  4  5  1  0
  5  6  2  0
  6  7  1  0
  7  8  2  0
  8  9  1  0
  6 10  1  0
  5 11  1  0
  4 12  1  0
  2 13  1  0
 13 14  1  0
 14 15  1  0
 15 16  2  0
 16 17  1  0
 17 18  2  0
 18 19  1  0
 19 20  2  0
 20 21  1  0
 19 22  1  0
 18 23  1  0
 17 24  1  0
 16 25  1  0
 14 26  1  0
 14 27  1  0
 13 28  1  0
 28 29  1  0
 29 30  1  0
 30 31  1  0
 31 32  1  0
 32 33  1  0
 32 34  1  0
 31 35  1  0
 31 36  1  0
 30 37  1  0
 30 38  1  0
 29 39  1  0
 29 40  1  0
 28 41  1  0
  8  3  1  0
 20 15  1  0
 32 28  1  0
M  END
>  <cnnaffinity>  (1) 
-5.76106

>  <filename>  (1) 
O=C(c1cccnc1)N(Cc1ccccc1Cl)C1CCCC1

$$$$
