
     RDKit          3D

 43 45  0  0  0  0  0  0  0  0999 V2000
   10.1528   -2.1472   21.0582 O   0  0  0  0  0  0  0  0  0  0  0  0
    9.9613   -1.7874   22.2107 C   0  0  0  0  0  0  0  0  0  0  0  0
   10.3273   -2.6960   23.3908 C   0  0  0  0  0  0  0  0  0  0  0  0
    9.1534   -3.2398   24.0712 C   0  0  0  0  0  0  0  0  0  0  0  0
    8.1514   -3.6211   24.6224 C   0  0  0  0  0  0  0  0  0  0  0  0
    6.9341   -4.0594   25.2400 C   0  0  0  0  0  0  0  0  0  0  0  0
    5.7236   -3.3982   24.9671 C   0  0  0  0  0  0  0  0  0  0  0  0
    4.5428   -3.8217   25.5783 C   0  0  0  0  0  0  0  0  0  0  0  0
    4.5666   -4.9086   26.4620 C   0  0  0  0  0  0  0  0  0  0  0  0
    5.7691   -5.5735   26.7338 C   0  0  0  0  0  0  0  0  0  0  0  0
    6.9507   -5.1516   26.1243 C   0  0  0  0  0  0  0  0  0  0  0  0
    7.8937   -5.6541   26.3259 H   0  0  0  0  0  0  0  0  0  0  0  0
    5.7925   -6.4166   27.4197 H   0  0  0  0  0  0  0  0  0  0  0  0
    3.6501   -5.2377   26.9410 H   0  0  0  0  0  0  0  0  0  0  0  0
    3.6097   -3.3046   25.3694 H   0  0  0  0  0  0  0  0  0  0  0  0
    5.7248   -2.5543   24.2779 H   0  0  0  0  0  0  0  0  0  0  0  0
   10.8912   -2.1338   24.1359 H   0  0  0  0  0  0  0  0  0  0  0  0
   10.9593   -3.4815   22.9761 H   0  0  0  0  0  0  0  0  0  0  0  0
    9.3954   -0.5816   22.5059 N   0  0  0  0  0  0  0  0  0  0  0  0
    9.5122    0.1357   23.7739 C   0  0  0  0  0  0  0  0  0  0  0  0
    9.0420    1.5581   23.4302 C   0  0  0  0  0  0  0  0  0  0  0  0
    8.1754    1.4173   22.1681 C   0  0  0  0  0  0  0  0  0  0  0  0
    8.6119    0.1178   21.4778 C   0  0  0  0  0  0  0  0  0  0  0  0
    7.4148   -0.7290   20.9756 C   0  0  0  0  0  0  0  0  0  0  0  0
    6.6363   -0.0238   19.8870 C   0  0  0  0  0  0  0  0  0  0  0  0
    5.4305    0.6468   20.1372 C   0  0  0  0  0  0  0  0  0  0  0  0
    4.7954    1.3174   19.0878 C   0  0  0  0  0  0  0  0  0  0  0  0
    5.3878    1.3059   17.8234 C   0  0  0  0  0  0  0  0  0  0  0  0
    6.5492    0.6866   17.5643 N   0  0  0  0  0  0  0  0  0  0  0  0
    7.1490    0.0535   18.5785 C   0  0  0  0  0  0  0  0  0  0  0  0
    8.1080   -0.4171   18.3464 H   0  0  0  0  0  0  0  0  0  0  0  0
    4.9196    1.8073   16.9770 H   0  0  0  0  0  0  0  0  0  0  0  0
    3.8661    1.8522   19.2365 H   0  0  0  0  0  0  0  0  0  0  0  0
    5.0017    0.6435   21.1418 H   0  0  0  0  0  0  0  0  0  0  0  0
    7.8057   -1.6885   20.6147 H   0  0  0  0  0  0  0  0  0  0  0  0
    6.7722   -0.9477   21.8406 H   0  0  0  0  0  0  0  0  0  0  0  0
    9.2743    0.3128   20.6200 H   0  0  0  0  0  0  0  0  0  0  0  0
    7.1107    1.3615   22.4296 H   0  0  0  0  0  0  0  0  0  0  0  0
    8.2754    2.2701   21.4920 H   0  0  0  0  0  0  0  0  0  0  0  0
    8.4850    2.0060   24.2579 H   0  0  0  0  0  0  0  0  0  0  0  0
    9.9040    2.2043   23.2303 H   0  0  0  0  0  0  0  0  0  0  0  0
    8.8897   -0.3441   24.5444 H   0  0  0  0  0  0  0  0  0  0  0  0
   10.5490    0.1330   24.1465 H   0  0  0  0  0  0  0  0  0  0  0  0
  1  2  2  0
  2  3  1  0
  3  4  1  0
  4  5  3  0
  5  6  1  0
  6  7  2  0
  7  8  1  0
  8  9  2  0
  9 10  1  0
 10 11  2  0
 11 12  1  0
 10 13  1  0
  9 14  1  0
  8 15  1  0
  7 16  1  0
  3 17  1  0
  3 18  1  0
  2 19  1  0
 19 20  1  0
 20 21  1  0
 21 22  1  0
 22 23  1  0
 23 24  1  0
 24 25  1  0
 25 26  2  0
 26 27  1  0
 27 28  2  0
 28 29  1  0
 29 30  2  0
 30 31  1  0
 28 32  1  0
 27 33  1  0
 26 34  1  0
 24 35  1  0
 24 36  1  0
 23 37  1  0
 22 38  1  0
 22 39  1  0
 21 40  1  0
 21 41  1  0
 20 42  1  0
 20 43  1  0
 11  6  1  0
 23 19  1  0
 30 25  1  0
M  END
>  <cnnaffinity>  (1) 
-5.5598

>  <filename>  (1) 
O=C(CC#Cc1ccccc1)N1CCCC1Cc1cccnc1

$$$$
