
     RDKit          3D

 28 29  0  0  0  0  0  0  0  0999 V2000
    5.0867    1.7341   16.7678 H   0  0  0  0  0  0  0  0  0  0  0  0
    5.4403    1.2787   17.6915 C   0  0  0  0  0  0  0  0  0  0  0  0
    6.5479    0.5266   17.5900 N   0  0  0  0  0  0  0  0  0  0  0  0
    7.0077   -0.0396   18.7092 C   0  0  0  0  0  0  0  0  0  0  0  0
    7.9015   -0.6536   18.6092 H   0  0  0  0  0  0  0  0  0  0  0  0
    6.4154    0.1316   19.9842 C   0  0  0  0  0  0  0  0  0  0  0  0
    6.9881   -0.5252   21.1882 C   0  0  0  0  0  0  0  0  0  0  0  0
    7.5331   -2.0638   21.1006 S   0  0  0  0  0  0  0  0  0  0  0  0
    7.0728    0.2918   22.5074 C   0  0  0  0  0  0  0  0  0  0  0  0
    6.6508    1.4302   22.5463 O   0  0  0  0  0  0  0  0  0  0  0  0
    7.7724   -0.2911   23.7413 C   0  0  0  0  0  0  0  0  0  0  0  0
    7.5001   -1.3421   23.8811 H   0  0  0  0  0  0  0  0  0  0  0  0
    7.4005    0.2909   24.5925 H   0  0  0  0  0  0  0  0  0  0  0  0
    9.2678   -0.1011   23.5899 C   0  0  0  0  0  0  0  0  0  0  0  0
    9.8124    1.1618   23.8600 C   0  0  0  0  0  0  0  0  0  0  0  0
    9.2075    1.8894   24.3898 H   0  0  0  0  0  0  0  0  0  0  0  0
   11.1159    1.4865   23.4909 C   0  0  0  0  0  0  0  0  0  0  0  0
   11.5086    2.4910   23.6176 H   0  0  0  0  0  0  0  0  0  0  0  0
   11.9178    0.5172   22.8784 C   0  0  0  0  0  0  0  0  0  0  0  0
   13.5456    0.9219   22.4585 Cl  0  0  0  0  0  0  0  0  0  0  0  0
   11.4075   -0.7724   22.6566 C   0  0  0  0  0  0  0  0  0  0  0  0
   12.3444   -1.9852   21.8550 Cl  0  0  0  0  0  0  0  0  0  0  0  0
   10.1036   -1.0888   23.0549 C   0  0  0  0  0  0  0  0  0  0  0  0
    9.7643   -2.1131   22.9356 H   0  0  0  0  0  0  0  0  0  0  0  0
    5.2566    0.9153   20.0644 C   0  0  0  0  0  0  0  0  0  0  0  0
    4.7697    1.0892   21.0239 H   0  0  0  0  0  0  0  0  0  0  0  0
    4.7574    1.4855   18.8923 C   0  0  0  0  0  0  0  0  0  0  0  0
    3.8728    2.1097   18.9048 H   0  0  0  0  0  0  0  0  0  0  0  0
  1  2  1  0
  2  3  2  0
  3  4  1  0
  4  5  1  0
  4  6  2  0
  6  7  1  0
  7  8  2  0
  7  9  1  0
  9 10  2  0
  9 11  1  0
 11 12  1  0
 11 13  1  0
 11 14  1  0
 14 15  2  0
 15 16  1  0
 15 17  1  0
 17 18  1  0
 17 19  2  0
 19 20  1  0
 19 21  1  0
 21 22  1  0
 21 23  2  0
 23 24  1  0
  6 25  1  0
 25 26  1  0
 25 27  2  0
 27 28  1  0
 27  2  1  0
 23 14  1  0
M  END
>  <cnnaffinity>  (1) 
-4.94567

>  <filename>  (1) 
O=C(Cc1ccc(Cl)c(Cl)c1)C(=S)c1cccnc1

$$$$
