
     RDKit          3D

 34 36  0  0  0  0  0  0  0  0999 V2000
    6.2401   -1.2394   22.4546 H   0  0  0  0  0  0  0  0  0  0  0  0
    6.0375   -1.1549   21.5083 O   0  0  0  0  0  0  0  0  0  0  0  0
    7.0311   -0.3594   20.9108 C   0  0  1  0  0  0  0  0  0  0  0  0
    7.8247   -0.9995   20.4844 H   0  0  0  0  0  0  0  0  0  0  0  0
    6.3838    0.3297   19.7342 C   0  0  0  0  0  0  0  0  0  0  0  0
    6.9830    0.2560   18.4701 C   0  0  0  0  0  0  0  0  0  0  0  0
    7.9016   -0.3170   18.3386 H   0  0  0  0  0  0  0  0  0  0  0  0
    6.4962    0.8216   17.3562 N   0  0  0  0  0  0  0  0  0  0  0  0
    5.3363    1.4817   17.4739 C   0  0  0  0  0  0  0  0  0  0  0  0
    4.9577    1.9416   16.5655 H   0  0  0  0  0  0  0  0  0  0  0  0
    4.6198    1.5799   18.6716 C   0  0  0  0  0  0  0  0  0  0  0  0
    3.6765    2.1127   18.6971 H   0  0  0  0  0  0  0  0  0  0  0  0
    5.1427    0.9800   19.8163 C   0  0  0  0  0  0  0  0  0  0  0  0
    4.5770    0.9694   20.7505 H   0  0  0  0  0  0  0  0  0  0  0  0
    7.7375    0.5375   21.9722 C   0  0  0  0  0  0  0  0  0  0  0  0
    8.3459   -0.4975   22.9255 C   0  0  0  0  0  0  0  0  0  0  0  0
    7.6673   -0.9158   23.8566 O   0  0  0  0  0  0  0  0  0  0  0  0
    9.6574   -1.1119   22.6176 C   0  0  0  0  0  0  0  0  0  0  0  0
   10.1869   -2.3820   23.6627 S   0  0  0  0  0  0  0  0  0  0  0  0
   11.5714   -2.6525   22.7093 C   0  0  0  0  0  0  0  0  0  0  0  0
   12.2818   -3.4038   23.0197 H   0  0  0  0  0  0  0  0  0  0  0  0
   11.6369   -1.8253   21.6287 C   0  0  0  0  0  0  0  0  0  0  0  0
   12.4537   -1.8555   20.9163 H   0  0  0  0  0  0  0  0  0  0  0  0
   10.5351   -0.9322   21.5689 C   0  0  0  0  0  0  0  0  0  0  0  0
   10.4228   -0.1952   20.7768 H   0  0  0  0  0  0  0  0  0  0  0  0
    6.8863    1.5932   22.7480 C   0  0  0  0  0  0  0  0  0  0  0  0
    6.7895    1.3678   23.8183 H   0  0  0  0  0  0  0  0  0  0  0  0
    5.8887    1.7511   22.3310 H   0  0  0  0  0  0  0  0  0  0  0  0
    7.8995    2.6946   22.3597 C   0  0  0  0  0  0  0  0  0  0  0  0
    8.4848    3.0846   23.1967 H   0  0  0  0  0  0  0  0  0  0  0  0
    7.4747    3.5484   21.8229 H   0  0  0  0  0  0  0  0  0  0  0  0
    8.6600    1.6846   21.4696 C   0  0  0  0  0  0  0  0  0  0  0  0
    9.7308    1.5764   21.6753 H   0  0  0  0  0  0  0  0  0  0  0  0
    8.5435    1.9004   20.4036 H   0  0  0  0  0  0  0  0  0  0  0  0
  1  2  1  0
  2  3  1  0
  3  4  1  6
  3  5  1  0
  5  6  2  0
  6  7  1  0
  6  8  1  0
  8  9  2  0
  9 10  1  0
  9 11  1  0
 11 12  1  0
 11 13  2  0
 13 14  1  0
  3 15  1  0
 15 16  1  0
 16 17  2  0
 16 18  1  0
 18 19  1  0
 19 20  1  0
 20 21  1  0
 20 22  2  0
 22 23  1  0
 22 24  1  0
 24 25  1  0
 15 26  1  0
 26 27  1  0
 26 28  1  0
 26 29  1  0
 29 30  1  0
 29 31  1  0
 29 32  1  0
 32 33  1  0
 32 34  1  0
 13  5  1  0
 32 15  1  0
 24 18  2  0
M  END
>  <cnnaffinity>  (1) 
-5.18601

>  <filename>  (1) 
O=C(c1cccs1)C1([C@@H](O)c2cccnc2)CCC1

$$$$
