
     RDKit          3D

 37 39  0  0  0  0  0  0  0  0999 V2000
    4.6836    0.6906   31.2969 H   0  0  0  0  0  0  0  0  0  0  0  0
    4.3443    0.9016   30.4069 O   0  0  0  0  0  0  0  0  0  0  0  0
    4.8721   -0.0561   29.5238 N   0  0  0  0  0  0  0  0  0  0  0  0
    4.1132   -0.4313   28.9646 H   0  0  0  0  0  0  0  0  0  0  0  0
    5.9384    0.2926   28.6793 C   0  0  0  0  0  0  0  0  0  0  0  0
    6.7203    1.1930   28.8830 O   0  0  0  0  0  0  0  0  0  0  0  0
    5.9932   -0.6214   27.4581 C   0  0  0  0  0  0  0  0  0  0  0  0
    7.0403   -0.6968   27.1419 H   0  0  0  0  0  0  0  0  0  0  0  0
    5.6822   -1.6398   27.7175 H   0  0  0  0  0  0  0  0  0  0  0  0
    5.1414   -0.0700   26.2885 C   0  0  0  0  0  0  0  0  0  0  0  0
    5.2846   -0.7261   25.4194 H   0  0  0  0  0  0  0  0  0  0  0  0
    4.0759   -0.1446   26.5421 H   0  0  0  0  0  0  0  0  0  0  0  0
    5.4751    1.3789   25.8863 C   0  0  0  0  0  0  0  0  0  0  0  0
    5.2908    2.0611   26.7277 H   0  0  0  0  0  0  0  0  0  0  0  0
    4.8063    1.6867   25.0702 H   0  0  0  0  0  0  0  0  0  0  0  0
    6.9435    1.5397   25.4419 C   0  0  0  0  0  0  0  0  0  0  0  0
    7.1399    2.5696   25.1255 H   0  0  0  0  0  0  0  0  0  0  0  0
    7.6073    1.3103   26.2826 H   0  0  0  0  0  0  0  0  0  0  0  0
    7.3009    0.6244   24.3144 C   0  0  0  0  0  0  0  0  0  0  0  0
    8.0489   -0.5022   24.4902 N   0  0  0  0  0  0  0  0  0  0  0  0
    8.0921   -0.9791   23.2607 C   0  0  0  0  0  0  0  0  0  0  0  0
    8.9622   -2.2078   22.3952 S   0  0  0  0  0  0  0  0  0  0  0  0
    8.3628   -1.5504   20.8936 C   0  0  0  0  0  0  0  0  0  0  0  0
    8.7409   -1.9338   19.9625 H   0  0  0  0  0  0  0  0  0  0  0  0
    7.4755   -0.5449   21.0541 C   0  0  0  0  0  0  0  0  0  0  0  0
    6.6852    0.1243   19.9959 C   0  0  0  0  0  0  0  0  0  0  0  0
    7.1904    0.1045   18.6819 C   0  0  0  0  0  0  0  0  0  0  0  0
    8.1354   -0.3932   18.4691 H   0  0  0  0  0  0  0  0  0  0  0  0
    6.5934    0.6737   17.6312 N   0  0  0  0  0  0  0  0  0  0  0  0
    5.4177    1.2822   17.8491 C   0  0  0  0  0  0  0  0  0  0  0  0
    4.9498    1.7346   16.9781 H   0  0  0  0  0  0  0  0  0  0  0  0
    4.8041    1.3402   19.1038 C   0  0  0  0  0  0  0  0  0  0  0  0
    3.8514    1.8497   19.2097 H   0  0  0  0  0  0  0  0  0  0  0  0
    5.4431    0.7572   20.1980 C   0  0  0  0  0  0  0  0  0  0  0  0
    5.0128    0.7995   21.1980 H   0  0  0  0  0  0  0  0  0  0  0  0
    7.3683   -0.2204   22.4119 N   0  0  0  0  0  0  0  0  0  0  0  0
    6.8660    0.8482   23.0851 N   0  0  0  0  0  0  0  0  0  0  0  0
  1  2  1  0
  2  3  1  0
  3  4  1  0
  3  5  1  0
  5  6  2  0
  5  7  1  0
  7  8  1  0
  7  9  1  0
  7 10  1  0
 10 11  1  0
 10 12  1  0
 10 13  1  0
 13 14  1  0
 13 15  1  0
 13 16  1  0
 16 17  1  0
 16 18  1  0
 16 19  1  0
 19 20  1  0
 20 21  2  0
 21 22  1  0
 22 23  1  0
 23 24  1  0
 23 25  2  0
 25 26  1  0
 26 27  2  0
 27 28  1  0
 27 29  1  0
 29 30  2  0
 30 31  1  0
 30 32  1  0
 32 33  1  0
 32 34  2  0
 34 35  1  0
 25 36  1  0
 36 37  1  0
 37 19  2  0
 36 21  1  0
 34 26  1  0
M  END
>  <cnnaffinity>  (1) 
-5.25157

>  <filename>  (1) 
O=C(CCCCc1nc2scc(-c3cccnc3)n2n1)NO

$$$$
