
     RDKit          3D

 30 32  0  0  0  0  0  0  0  0999 V2000
   10.0002   -0.9962   22.8420 H   0  0  0  0  0  0  0  0  0  0  0  0
    9.0168   -1.0943   22.4031 C   0  0  0  0  0  0  0  0  0  0  0  0
    8.6985   -0.5143   21.2139 N   0  0  0  0  0  0  0  0  0  0  0  0
    7.4381   -0.8254   21.0507 C   0  0  0  0  0  0  0  0  0  0  0  0
    6.5978   -0.2145   20.0246 C   0  0  0  0  0  0  0  0  0  0  0  0
    7.1822   -0.1333   18.7560 C   0  0  0  0  0  0  0  0  0  0  0  0
    8.1392   -0.6226   18.5726 H   0  0  0  0  0  0  0  0  0  0  0  0
    6.6395    0.5181   17.7282 N   0  0  0  0  0  0  0  0  0  0  0  0
    5.4834    1.1624   17.9522 C   0  0  0  0  0  0  0  0  0  0  0  0
    5.0838    1.7203   17.1075 H   0  0  0  0  0  0  0  0  0  0  0  0
    4.8168    1.1527   19.1821 C   0  0  0  0  0  0  0  0  0  0  0  0
    3.9024    1.7269   19.2947 H   0  0  0  0  0  0  0  0  0  0  0  0
    5.3687    0.4341   20.2447 C   0  0  0  0  0  0  0  0  0  0  0  0
    4.8702    0.4084   21.2160 H   0  0  0  0  0  0  0  0  0  0  0  0
    7.0352   -1.6621   22.0416 N   0  0  0  0  0  0  0  0  0  0  0  0
    5.9407   -2.5646   21.8653 C   0  0  0  0  0  0  0  0  0  0  0  0
    5.4699   -2.7604   20.7690 O   0  0  0  0  0  0  0  0  0  0  0  0
    5.5699   -3.1318   23.0518 N   0  0  0  0  0  0  0  0  0  0  0  0
    5.9032   -2.5974   23.8368 H   0  0  0  0  0  0  0  0  0  0  0  0
    4.3860   -3.8319   23.2419 C   0  0  0  0  0  0  0  0  0  0  0  0
    3.9699   -4.7802   22.3196 C   0  0  0  0  0  0  0  0  0  0  0  0
    4.6205   -5.0119   21.4924 H   0  0  0  0  0  0  0  0  0  0  0  0
    2.7146   -5.3526   22.5005 C   0  0  0  0  0  0  0  0  0  0  0  0
    2.3254   -6.0744   21.7869 H   0  0  0  0  0  0  0  0  0  0  0  0
    1.9029   -5.0560   23.5237 N   0  0  0  0  0  0  0  0  0  0  0  0
    2.3637   -4.1911   24.4347 C   0  0  0  0  0  0  0  0  0  0  0  0
    1.7023   -3.9826   25.2702 H   0  0  0  0  0  0  0  0  0  0  0  0
    3.6032   -3.5681   24.3559 C   0  0  0  0  0  0  0  0  0  0  0  0
    3.9376   -2.8823   25.1203 H   0  0  0  0  0  0  0  0  0  0  0  0
    8.0615   -1.7966   22.9676 N   0  0  0  0  0  0  0  0  0  0  0  0
  1  2  1  0
  2  3  1  0
  3  4  2  0
  4  5  1  0
  5  6  2  0
  6  7  1  0
  6  8  1  0
  8  9  2  0
  9 10  1  0
  9 11  1  0
 11 12  1  0
 11 13  2  0
 13 14  1  0
  4 15  1  0
 15 16  1  0
 16 17  2  0
 16 18  1  0
 18 19  1  0
 18 20  1  0
 20 21  2  0
 21 22  1  0
 21 23  1  0
 23 24  1  0
 23 25  2  0
 25 26  1  0
 26 27  1  0
 26 28  2  0
 28 29  1  0
 15 30  1  0
 30  2  2  0
 13  5  1  0
 28 20  1  0
M  END
>  <cnnaffinity>  (1) 
-5.17082

>  <filename>  (1) 
O=C(Nc1ccncc1)n1ncnc1-c1cccnc1

$$$$
