
     RDKit          3D

 36 38  0  0  0  0  0  0  0  0999 V2000
    7.0280    0.0936   25.1738 O   0  0  0  0  0  0  0  0  0  0  0  0
    6.7008    1.0157   24.4361 C   0  0  0  0  0  0  0  0  0  0  0  0
    6.5079    2.4158   25.0006 C   0  0  0  0  0  0  0  0  0  0  0  0
    7.7654    3.2420   24.8582 C   0  0  0  0  0  0  0  0  0  0  0  0
    9.0060    2.6089   24.6766 C   0  0  0  0  0  0  0  0  0  0  0  0
   10.1670    3.3647   24.5523 C   0  0  0  0  0  0  0  0  0  0  0  0
   10.1089    4.7550   24.6347 C   0  0  0  0  0  0  0  0  0  0  0  0
   11.7319    5.7541   24.5531 Br  0  0  0  0  0  0  0  0  0  0  0  0
    8.8764    5.3904   24.7971 C   0  0  0  0  0  0  0  0  0  0  0  0
    7.7100    4.6424   24.9014 C   0  0  0  0  0  0  0  0  0  0  0  0
    6.5154    5.2801   25.0447 O   0  0  0  0  0  0  0  0  0  0  0  0
    5.8193    4.6050   25.0359 H   0  0  0  0  0  0  0  0  0  0  0  0
    8.8299    6.4707   24.8413 H   0  0  0  0  0  0  0  0  0  0  0  0
   11.1220    2.8657   24.4151 H   0  0  0  0  0  0  0  0  0  0  0  0
    9.0726    1.5254   24.6289 H   0  0  0  0  0  0  0  0  0  0  0  0
    6.2319    2.3541   26.0537 H   0  0  0  0  0  0  0  0  0  0  0  0
    5.6867    2.8974   24.4696 H   0  0  0  0  0  0  0  0  0  0  0  0
    6.7091    0.8614   23.0674 N   0  0  0  0  0  0  0  0  0  0  0  0
    7.3242   -0.2169   22.4481 C   0  0  0  0  0  0  0  0  0  0  0  0
    7.4078   -0.5131   21.1221 C   0  0  0  0  0  0  0  0  0  0  0  0
    6.7145    0.1448   19.9885 C   0  0  0  0  0  0  0  0  0  0  0  0
    5.5158    0.8285   20.2002 C   0  0  0  0  0  0  0  0  0  0  0  0
    4.8701    1.3899   19.0974 C   0  0  0  0  0  0  0  0  0  0  0  0
    5.4328    1.2846   17.8244 C   0  0  0  0  0  0  0  0  0  0  0  0
    6.5875    0.6354   17.6082 N   0  0  0  0  0  0  0  0  0  0  0  0
    7.2018    0.0710   18.6696 C   0  0  0  0  0  0  0  0  0  0  0  0
    8.1249   -0.4769   18.5112 H   0  0  0  0  0  0  0  0  0  0  0  0
    4.9313    1.7359   16.9746 H   0  0  0  0  0  0  0  0  0  0  0  0
    3.9252    1.9010   19.2077 H   0  0  0  0  0  0  0  0  0  0  0  0
    5.0798    0.8932   21.1940 H   0  0  0  0  0  0  0  0  0  0  0  0
    8.3282   -1.6434   21.0648 C   0  0  0  0  0  0  0  0  0  0  0  0
    8.7002   -2.0377   22.2640 N   0  0  0  0  0  0  0  0  0  0  0  0
    8.0568   -1.1802   23.1111 N   0  0  0  0  0  0  0  0  0  0  0  0
    8.1289   -1.1910   24.1312 H   0  0  0  0  0  0  0  0  0  0  0  0
    8.6963   -2.0876   20.1465 H   0  0  0  0  0  0  0  0  0  0  0  0
    6.5864    1.7067   22.5226 H   0  0  0  0  0  0  0  0  0  0  0  0
  1  2  2  0
  2  3  1  0
  3  4  1  0
  4  5  2  0
  5  6  1  0
  6  7  2  0
  7  8  1  0
  7  9  1  0
  9 10  2  0
 10 11  1  0
 11 12  1  0
  9 13  1  0
  6 14  1  0
  5 15  1  0
  3 16  1  0
  3 17  1  0
  2 18  1  0
 18 19  1  0
 19 20  2  0
 20 21  1  0
 21 22  2  0
 22 23  1  0
 23 24  2  0
 24 25  1  0
 25 26  2  0
 26 27  1  0
 24 28  1  0
 23 29  1  0
 22 30  1  0
 20 31  1  0
 31 32  2  0
 32 33  1  0
 33 34  1  0
 31 35  1  0
 18 36  1  0
 10  4  1  0
 33 19  1  0
 26 21  1  0
M  END
>  <cnnaffinity>  (1) 
-5.19136

>  <filename>  (1) 
O=C(Cc1ccc(Br)cc1O)Nc1[nH]ncc1-c1cccnc1

$$$$
