
     RDKit          3D

 39 40  0  0  0  0  0  0  0  0999 V2000
    6.9286    0.7592   22.6819 O   0  0  0  0  0  0  0  0  0  0  0  0
    7.3405   -0.3180   22.2996 C   0  0  0  0  0  0  0  0  0  0  0  0
    7.9097   -1.2908   23.2998 C   0  0  0  0  0  0  0  0  0  0  0  0
    6.7643   -1.8511   24.1388 C   0  0  0  0  0  0  0  0  0  0  0  0
    5.9181   -2.7698   23.2879 N   0  0  0  0  0  4  0  0  0  0  0  0
    6.4821   -4.1821   23.1856 C   0  0  0  0  0  0  0  0  0  0  0  0
    6.3711   -4.9060   24.5195 C   0  0  0  0  0  0  0  0  0  0  0  0
    5.0975   -5.1905   25.0442 C   0  0  0  0  0  0  0  0  0  0  0  0
    4.8906   -5.8588   26.1841 N   0  0  0  0  0  0  0  0  0  0  0  0
    5.9557   -6.2798   26.8746 C   0  0  0  0  0  0  0  0  0  0  0  0
    7.2684   -6.0610   26.4505 C   0  0  0  0  0  0  0  0  0  0  0  0
    7.4949   -5.3708   25.2500 C   0  0  0  0  0  0  0  0  0  0  0  0
    8.9171   -5.1657   24.7093 C   0  0  0  0  0  0  0  0  0  0  0  0
    9.8715   -5.6834   25.4890 F   0  0  0  0  0  0  0  0  0  0  0  0
    9.2155   -3.8544   24.5442 F   0  0  0  0  0  0  0  0  0  0  0  0
    9.0427   -5.7430   23.4972 F   0  0  0  0  0  0  0  0  0  0  0  0
    8.0915   -6.4406   27.0531 H   0  0  0  0  0  0  0  0  0  0  0  0
    5.7536   -6.8252   27.7965 H   0  0  0  0  0  0  0  0  0  0  0  0
    4.1922   -4.9099   24.5010 H   0  0  0  0  0  0  0  0  0  0  0  0
    5.9424   -4.7370   22.4159 H   0  0  0  0  0  0  0  0  0  0  0  0
    7.5214   -4.1383   22.8650 H   0  0  0  0  0  0  0  0  0  0  0  0
    5.7926   -2.2925   22.3640 H   0  0  0  0  0  0  0  0  0  0  0  0
    4.9680   -2.8623   23.7194 H   0  0  0  0  0  0  0  0  0  0  0  0
    6.1541   -1.0214   24.4973 H   0  0  0  0  0  0  0  0  0  0  0  0
    7.1302   -2.4060   25.0059 H   0  0  0  0  0  0  0  0  0  0  0  0
    8.5052   -2.0744   22.8327 H   0  0  0  0  0  0  0  0  0  0  0  0
    8.5617   -0.7032   23.9435 H   0  0  0  0  0  0  0  0  0  0  0  0
    7.2583   -0.7550   20.9968 N   0  0  0  0  0  0  0  0  0  0  0  0
    6.6510   -0.0419   19.9144 C   0  0  0  0  0  0  0  0  0  0  0  0
    5.4515    0.6417   20.1546 C   0  0  0  0  0  0  0  0  0  0  0  0
    4.8135    1.3014   19.0987 C   0  0  0  0  0  0  0  0  0  0  0  0
    5.4139    1.2854   17.8362 C   0  0  0  0  0  0  0  0  0  0  0  0
    6.5752    0.6592   17.5848 N   0  0  0  0  0  0  0  0  0  0  0  0
    7.1782    0.0182   18.5975 C   0  0  0  0  0  0  0  0  0  0  0  0
    8.1327   -0.4517   18.3584 H   0  0  0  0  0  0  0  0  0  0  0  0
    4.9487    1.7989   16.9950 H   0  0  0  0  0  0  0  0  0  0  0  0
    3.8805    1.8411   19.2496 H   0  0  0  0  0  0  0  0  0  0  0  0
    5.0490    0.6693   21.1633 H   0  0  0  0  0  0  0  0  0  0  0  0
    7.9006   -1.4952   20.7741 H   0  0  0  0  0  0  0  0  0  0  0  0
  1  2  2  0
  2  3  1  0
  3  4  1  0
  4  5  1  0
  5  6  1  0
  6  7  1  0
  7  8  2  0
  8  9  1  0
  9 10  2  0
 10 11  1  0
 11 12  2  0
 12 13  1  0
 13 14  1  0
 13 15  1  0
 13 16  1  0
 11 17  1  0
 10 18  1  0
  8 19  1  0
  6 20  1  0
  6 21  1  0
  5 22  1  0
  5 23  1  0
  4 24  1  0
  4 25  1  0
  3 26  1  0
  3 27  1  0
  2 28  1  0
 28 29  1  0
 29 30  2  0
 30 31  1  0
 31 32  2  0
 32 33  1  0
 33 34  2  0
 34 35  1  0
 32 36  1  0
 31 37  1  0
 30 38  1  0
 28 39  1  0
 12  7  1  0
 34 29  1  0
M  CHG  1   5   1
M  END
>  <cnnaffinity>  (1) 
-5.33219

>  <filename>  (1) 
O=C(CC[NH2+]Cc1cnccc1C(F)(F)F)Nc1cccnc1

$$$$
