
     RDKit          3D

 31 33  0  0  0  0  0  0  0  0999 V2000
    4.7712    2.0744   16.9168 H   0  0  0  0  0  0  0  0  0  0  0  0
    5.0515    1.3439   17.6702 C   0  0  0  0  0  0  0  0  0  0  0  0
    5.8391    0.3442   17.2424 N   0  0  0  0  0  0  0  0  0  0  0  0
    6.2425   -0.5522   18.1458 C   0  0  0  0  0  0  0  0  0  0  0  0
    6.8546   -1.3828   17.7952 H   0  0  0  0  0  0  0  0  0  0  0  0
    5.9407   -0.4611   19.5201 C   0  0  0  0  0  0  0  0  0  0  0  0
    6.6555   -1.2631   20.4623 N   0  0  0  0  0  0  0  0  0  0  0  0
    6.1952   -2.1783   21.3731 C   0  0  0  0  0  0  0  0  0  0  0  0
    5.1459   -2.3556   21.5533 H   0  0  0  0  0  0  0  0  0  0  0  0
    7.1843   -2.7646   21.9870 N   0  0  0  0  0  0  0  0  0  0  0  0
    8.3475   -2.2038   21.5169 N   0  0  0  0  0  0  0  0  0  0  0  0
    8.0253   -1.2830   20.6485 C   0  0  0  0  0  0  0  0  0  0  0  0
    8.9927   -0.3401   19.9569 C   0  0  0  0  0  0  0  0  0  0  0  0
    8.4338    0.4153   19.4031 H   0  0  0  0  0  0  0  0  0  0  0  0
    9.5585   -0.8912   19.2041 H   0  0  0  0  0  0  0  0  0  0  0  0
    9.9283    0.3562   20.8358 N   0  0  0  0  0  0  0  0  0  0  0  0
   10.7052   -0.1623   21.1989 H   0  0  0  0  0  0  0  0  0  0  0  0
    9.6186    1.5220   21.4734 C   0  0  0  0  0  0  0  0  0  0  0  0
    8.5953    2.1379   21.2242 O   0  0  0  0  0  0  0  0  0  0  0  0
   10.6219    2.0148   22.4501 C   0  0  0  0  0  0  0  0  0  0  0  0
   10.4030    3.6533   22.9531 S   0  0  0  0  0  0  0  0  0  0  0  0
   11.7749    3.5758   23.9633 C   0  0  0  0  0  0  0  0  0  0  0  0
   12.1006    4.4652   24.4835 H   0  0  0  0  0  0  0  0  0  0  0  0
   12.3687    2.3442   23.9320 C   0  0  0  0  0  0  0  0  0  0  0  0
   13.2438    2.0657   24.5023 H   0  0  0  0  0  0  0  0  0  0  0  0
   11.7199    1.4430   23.0465 C   0  0  0  0  0  0  0  0  0  0  0  0
   12.1001    0.4379   22.8657 H   0  0  0  0  0  0  0  0  0  0  0  0
    5.0418    0.5218   19.9418 C   0  0  0  0  0  0  0  0  0  0  0  0
    4.7323    0.5717   20.9858 H   0  0  0  0  0  0  0  0  0  0  0  0
    4.6002    1.4507   18.9913 C   0  0  0  0  0  0  0  0  0  0  0  0
    3.9304    2.2574   19.2665 H   0  0  0  0  0  0  0  0  0  0  0  0
  1  2  1  0
  2  3  2  0
  3  4  1  0
  4  5  1  0
  4  6  2  0
  6  7  1  0
  7  8  1  0
  8  9  1  0
  8 10  2  0
 10 11  1  0
 11 12  2  0
 12 13  1  0
 13 14  1  0
 13 15  1  0
 13 16  1  0
 16 17  1  0
 16 18  1  0
 18 19  2  0
 18 20  1  0
 20 21  1  0
 21 22  1  0
 22 23  1  0
 22 24  2  0
 24 25  1  0
 24 26  1  0
 26 27  1  0
  6 28  1  0
 28 29  1  0
 28 30  2  0
 30 31  1  0
 30  2  1  0
 12  7  1  0
 26 20  2  0
M  END
>  <cnnaffinity>  (1) 
-5.13151

>  <filename>  (1) 
O=C(NCc1nncn1-c1cccnc1)c1cccs1

$$$$
