
     RDKit          3D

 32 34  0  0  0  0  0  0  0  0999 V2000
    5.1122    1.7277   17.1259 H   0  0  0  0  0  0  0  0  0  0  0  0
    5.5539    1.1905   17.9629 C   0  0  0  0  0  0  0  0  0  0  0  0
    6.7253    0.5797   17.7176 N   0  0  0  0  0  0  0  0  0  0  0  0
    7.3032   -0.0806   18.7278 C   0  0  0  0  0  0  0  0  0  0  0  0
    8.2613   -0.5584   18.5282 H   0  0  0  0  0  0  0  0  0  0  0  0
    6.7451   -0.2005   20.0183 C   0  0  0  0  0  0  0  0  0  0  0  0
    7.4388   -0.9572   21.0209 N   0  0  0  0  0  0  0  0  0  0  0  0
    8.2148   -0.4915   21.4702 H   0  0  0  0  0  0  0  0  0  0  0  0
    6.8177   -1.7580   21.9591 C   0  0  0  0  0  0  0  0  0  0  0  0
    5.7883   -2.3686   21.8148 O   0  0  0  0  0  0  0  0  0  0  0  0
    7.6306   -1.7662   23.1038 N   0  0  0  0  0  0  0  0  0  0  0  0
    8.4868   -2.2762   22.9385 H   0  0  0  0  0  0  0  0  0  0  0  0
    7.1052   -2.3256   24.2557 C   0  0  0  0  0  0  0  0  0  0  0  0
    7.8321   -3.2953   24.7397 N   0  0  0  0  0  0  0  0  0  0  0  0
    7.3912   -3.8788   25.9040 C   0  0  0  0  0  0  0  0  0  0  0  0
    8.2120   -4.8630   26.5187 C   0  0  0  0  0  0  0  0  0  0  0  0
    9.1401   -5.0881   26.0043 H   0  0  0  0  0  0  0  0  0  0  0  0
    7.8290   -5.4648   27.7003 C   0  0  0  0  0  0  0  0  0  0  0  0
    8.4779   -6.2005   28.1743 H   0  0  0  0  0  0  0  0  0  0  0  0
    6.5851   -5.1241   28.3073 C   0  0  0  0  0  0  0  0  0  0  0  0
    6.2993   -5.6124   29.2351 H   0  0  0  0  0  0  0  0  0  0  0  0
    5.7575   -4.1811   27.7380 C   0  0  0  0  0  0  0  0  0  0  0  0
    4.8027   -3.9154   28.1963 H   0  0  0  0  0  0  0  0  0  0  0  0
    6.1575   -3.5196   26.5374 C   0  0  0  0  0  0  0  0  0  0  0  0
    5.4270   -2.4380   25.9525 C   0  0  0  0  0  0  0  0  0  0  0  0
    4.4955   -2.1204   26.4134 H   0  0  0  0  0  0  0  0  0  0  0  0
    5.9248   -1.8021   24.8445 C   0  0  0  0  0  0  0  0  0  0  0  0
    5.5179   -0.8853   24.4365 H   0  0  0  0  0  0  0  0  0  0  0  0
    5.5338    0.4637   20.2670 C   0  0  0  0  0  0  0  0  0  0  0  0
    5.0825    0.4351   21.2585 H   0  0  0  0  0  0  0  0  0  0  0  0
    4.9312    1.1705   19.2147 C   0  0  0  0  0  0  0  0  0  0  0  0
    4.0036    1.7183   19.3528 H   0  0  0  0  0  0  0  0  0  0  0  0
  1  2  1  0
  2  3  2  0
  3  4  1  0
  4  5  1  0
  4  6  2  0
  6  7  1  0
  7  8  1  0
  7  9  1  0
  9 10  2  0
  9 11  1  0
 11 12  1  0
 11 13  1  0
 13 14  2  0
 14 15  1  0
 15 16  2  0
 16 17  1  0
 16 18  1  0
 18 19  1  0
 18 20  2  0
 20 21  1  0
 20 22  1  0
 22 23  1  0
 22 24  2  0
 24 25  1  0
 25 26  1  0
 25 27  2  0
 27 28  1  0
  6 29  1  0
 29 30  1  0
 29 31  2  0
 31 32  1  0
 31  2  1  0
 27 13  1  0
 24 15  1  0
M  END
>  <cnnaffinity>  (1) 
-4.8025

>  <filename>  (1) 
O=C(Nc1cccnc1)Nc1ccc2ccccc2n1

$$$$
