
     RDKit          3D

 31 33  0  0  0  0  0  0  0  0999 V2000
    6.2075   -2.8094   20.2694 O   0  0  0  0  0  0  0  0  0  0  0  0
    6.7242   -2.1939   21.2035 C   0  0  0  0  0  0  0  0  0  0  0  0
    6.7162   -2.8226   22.4428 N   0  0  0  0  0  0  0  0  0  0  0  0
    5.9988   -3.9715   22.6877 C   0  0  0  0  0  0  0  0  0  0  0  0
    6.2133   -4.6656   23.8871 C   0  0  0  0  0  0  0  0  0  0  0  0
    7.4981   -4.0717   25.1711 Br  0  0  0  0  0  0  0  0  0  0  0  0
    5.4540   -5.8061   24.1278 C   0  0  0  0  0  0  0  0  0  0  0  0
    4.5308   -6.1915   23.1798 C   0  0  0  0  0  0  0  0  0  0  0  0
    4.3661   -5.4352   22.0301 C   0  0  0  0  0  0  0  0  0  0  0  0
    5.0940   -4.3402   21.7757 N   0  0  0  0  0  0  0  0  0  0  0  0
    3.5941   -5.7320   21.3404 H   0  0  0  0  0  0  0  0  0  0  0  0
    3.8894   -7.3335   23.6380 N   0  0  0  0  0  0  0  0  0  0  0  0
    4.3543   -7.6571   24.9015 C   0  0  0  0  0  0  0  0  0  0  0  0
    5.3419   -6.7556   25.2199 C   0  0  0  0  0  0  0  0  0  0  0  0
    5.9384   -6.7432   26.1254 H   0  0  0  0  0  0  0  0  0  0  0  0
    3.9838   -8.4717   25.5128 H   0  0  0  0  0  0  0  0  0  0  0  0
    3.1920   -7.8567   23.1148 H   0  0  0  0  0  0  0  0  0  0  0  0
    7.1678   -2.3882   23.2385 H   0  0  0  0  0  0  0  0  0  0  0  0
    7.3586   -0.7724   20.9744 C   0  0  0  0  0  0  0  0  0  0  0  0
    7.3037   -0.0385   22.1218 F   0  0  0  0  0  0  0  0  0  0  0  0
    8.6840   -0.8610   20.6595 F   0  0  0  0  0  0  0  0  0  0  0  0
    6.6537    0.0143   19.8883 C   0  0  0  0  0  0  0  0  0  0  0  0
    5.4421    0.6581   20.1456 C   0  0  0  0  0  0  0  0  0  0  0  0
    4.8222    1.3097   19.0882 C   0  0  0  0  0  0  0  0  0  0  0  0
    5.4108    1.3080   17.8226 C   0  0  0  0  0  0  0  0  0  0  0  0
    6.5823    0.6953   17.5745 N   0  0  0  0  0  0  0  0  0  0  0  0
    7.1912    0.0688   18.5933 C   0  0  0  0  0  0  0  0  0  0  0  0
    8.1350   -0.4329   18.3998 H   0  0  0  0  0  0  0  0  0  0  0  0
    4.8990    1.8161   17.0128 H   0  0  0  0  0  0  0  0  0  0  0  0
    3.8829    1.8269   19.2344 H   0  0  0  0  0  0  0  0  0  0  0  0
    4.9907    0.6543   21.1375 H   0  0  0  0  0  0  0  0  0  0  0  0
  1  2  2  0
  2  3  1  0
  3  4  1  0
  4  5  2  0
  5  6  1  0
  5  7  1  0
  7  8  2  0
  8  9  1  0
  9 10  2  0
  9 11  1  0
  8 12  1  0
 12 13  1  0
 13 14  2  0
 14 15  1  0
 13 16  1  0
 12 17  1  0
  3 18  1  0
  2 19  1  0
 19 20  1  0
 19 21  1  0
 19 22  1  0
 22 23  2  0
 23 24  1  0
 24 25  2  0
 25 26  1  0
 26 27  2  0
 27 28  1  0
 25 29  1  0
 24 30  1  0
 23 31  1  0
 10  4  1  0
 27 22  1  0
 14  7  1  0
M  END
>  <cnnaffinity>  (1) 
-5.32478

>  <filename>  (1) 
O=C(Nc1ncc2[nH]ccc2c1Br)C(F)(F)c1cccnc1

$$$$
