
     RDKit          3D

 33 36  0  0  0  0  0  0  0  0999 V2000
    4.9617    1.7986   16.9770 H   0  0  0  0  0  0  0  0  0  0  0  0
    5.4052    1.2843   17.8298 C   0  0  0  0  0  0  0  0  0  0  0  0
    6.5618    0.6478   17.5908 N   0  0  0  0  0  0  0  0  0  0  0  0
    7.1573    0.0345   18.6174 C   0  0  0  0  0  0  0  0  0  0  0  0
    8.1013   -0.4533   18.3830 H   0  0  0  0  0  0  0  0  0  0  0  0
    6.6454    0.0221   19.9252 C   0  0  0  0  0  0  0  0  0  0  0  0
    7.3963   -0.6513   20.9743 C   0  0  0  0  0  0  0  0  0  0  0  0
    8.0708   -1.8233   20.7433 N   0  0  0  0  0  0  0  0  0  0  0  0
    8.5003   -2.1827   21.9245 C   0  0  0  0  0  0  0  0  0  0  0  0
    9.4212   -3.4887   22.5987 S   0  0  0  0  0  0  0  0  0  0  0  0
    9.5204   -2.6800   24.1418 C   0  0  0  0  0  0  0  0  0  0  0  0
   10.1271   -3.1392   24.9135 H   0  0  0  0  0  0  0  0  0  0  0  0
    8.7979   -1.5440   24.1453 C   0  0  0  0  0  0  0  0  0  0  0  0
    8.5868   -0.8232   24.9243 H   0  0  0  0  0  0  0  0  0  0  0  0
    8.2011   -1.2966   22.9144 N   0  0  0  0  0  0  0  0  0  0  0  0
    7.4954   -0.2788   22.3066 C   0  0  0  0  0  0  0  0  0  0  0  0
    7.0641    0.9717   22.9251 C   0  0  0  0  0  0  0  0  0  0  0  0
    7.1483    2.0139   22.2988 O   0  0  0  0  0  0  0  0  0  0  0  0
    6.5135    0.9539   24.3316 C   0  0  0  0  0  0  0  0  0  0  0  0
    6.6212    2.1168   25.1156 C   0  0  0  0  0  0  0  0  0  0  0  0
    7.1064    2.9963   24.6926 H   0  0  0  0  0  0  0  0  0  0  0  0
    6.1096    2.1418   26.4126 C   0  0  0  0  0  0  0  0  0  0  0  0
    6.1829    3.0294   27.0316 H   0  0  0  0  0  0  0  0  0  0  0  0
    5.4671    1.0100   26.9213 C   0  0  0  0  0  0  0  0  0  0  0  0
    4.8122    1.0521   28.5311 Cl  0  0  0  0  0  0  0  0  0  0  0  0
    5.3399   -0.1520   26.1597 C   0  0  0  0  0  0  0  0  0  0  0  0
    4.8295   -1.0096   26.5837 H   0  0  0  0  0  0  0  0  0  0  0  0
    5.8790   -0.1822   24.8709 C   0  0  0  0  0  0  0  0  0  0  0  0
    5.8288   -1.1071   24.2962 H   0  0  0  0  0  0  0  0  0  0  0  0
    5.4133    0.6610   20.1509 C   0  0  0  0  0  0  0  0  0  0  0  0
    4.9543    0.6729   21.1397 H   0  0  0  0  0  0  0  0  0  0  0  0
    4.7904    1.3063   19.0862 C   0  0  0  0  0  0  0  0  0  0  0  0
    3.8622    1.8490   19.2219 H   0  0  0  0  0  0  0  0  0  0  0  0
  1  2  1  0
  2  3  2  0
  3  4  1  0
  4  5  1  0
  4  6  2  0
  6  7  1  0
  7  8  1  0
  8  9  2  0
  9 10  1  0
 10 11  1  0
 11 12  1  0
 11 13  2  0
 13 14  1  0
 13 15  1  0
 15 16  1  0
 16 17  1  0
 17 18  2  0
 17 19  1  0
 19 20  2  0
 20 21  1  0
 20 22  1  0
 22 23  1  0
 22 24  2  0
 24 25  1  0
 24 26  1  0
 26 27  1  0
 26 28  2  0
 28 29  1  0
  6 30  1  0
 30 31  1  0
 30 32  2  0
 32 33  1  0
 32  2  1  0
 16  7  2  0
 28 19  1  0
 15  9  1  0
M  END
>  <cnnaffinity>  (1) 
-5.23562

>  <filename>  (1) 
O=C(c1ccc(Cl)cc1)c1c(-c2cccnc2)nc2sccn12

$$$$
