
     RDKit          3D

 38 40  0  0  0  0  0  0  0  0999 V2000
    4.9228    1.7991   16.9753 H   0  0  0  0  0  0  0  0  0  0  0  0
    5.3927    1.2989   17.8186 C   0  0  0  0  0  0  0  0  0  0  0  0
    6.5505    0.6778   17.5620 N   0  0  0  0  0  0  0  0  0  0  0  0
    7.1517    0.0614   18.5870 C   0  0  0  0  0  0  0  0  0  0  0  0
    8.1057   -0.4021   18.3414 H   0  0  0  0  0  0  0  0  0  0  0  0
    6.6460   -0.0007   19.9017 C   0  0  0  0  0  0  0  0  0  0  0  0
    7.3406   -0.8195   20.9929 C   0  0  2  0  0  0  0  0  0  0  0  0
    6.7427   -2.2557   20.9154 C   0  0  0  0  0  0  0  0  0  0  0  0
    6.8666   -2.6121   19.8953 H   0  0  0  0  0  0  0  0  0  0  0  0
    5.6625   -2.1921   21.0599 H   0  0  0  0  0  0  0  0  0  0  0  0
    7.3797   -3.2895   21.8290 C   0  0  0  0  0  0  0  0  0  0  0  0
    8.3415   -3.9168   21.4284 O   0  0  0  0  0  0  0  0  0  0  0  0
    6.8374   -3.5159   23.2343 C   0  0  0  0  0  0  0  0  0  0  0  0
    7.6621   -4.1201   24.2015 C   0  0  0  0  0  0  0  0  0  0  0  0
    8.6623   -4.4299   23.9117 H   0  0  0  0  0  0  0  0  0  0  0  0
    7.2017   -4.3532   25.4968 C   0  0  0  0  0  0  0  0  0  0  0  0
    7.8369   -4.8336   26.2340 H   0  0  0  0  0  0  0  0  0  0  0  0
    5.9020   -3.9717   25.8445 C   0  0  0  0  0  0  0  0  0  0  0  0
    5.3329   -4.2639   27.4624 Cl  0  0  0  0  0  0  0  0  0  0  0  0
    5.0512   -3.3802   24.9068 C   0  0  0  0  0  0  0  0  0  0  0  0
    4.0454   -3.0880   25.2010 H   0  0  0  0  0  0  0  0  0  0  0  0
    5.5210   -3.1886   23.6012 C   0  0  0  0  0  0  0  0  0  0  0  0
    4.8322   -2.8582   22.8321 H   0  0  0  0  0  0  0  0  0  0  0  0
    7.1790   -0.1848   22.4075 C   0  0  0  0  0  0  0  0  0  0  0  0
    6.2733   -0.5447   22.9137 H   0  0  0  0  0  0  0  0  0  0  0  0
    7.0676    0.9051   22.2957 H   0  0  0  0  0  0  0  0  0  0  0  0
    8.3727   -0.4930   23.1954 N   0  0  0  0  0  0  0  0  0  0  0  0
    8.1748   -1.2077   23.8836 H   0  0  0  0  0  0  0  0  0  0  0  0
    9.4569   -0.8991   22.2918 C   0  0  0  0  0  0  0  0  0  0  0  0
    9.8079   -1.9145   22.5254 H   0  0  0  0  0  0  0  0  0  0  0  0
   10.3266   -0.2337   22.4056 H   0  0  0  0  0  0  0  0  0  0  0  0
    8.8831   -0.8154   20.8621 C   0  0  0  0  0  0  0  0  0  0  0  0
    9.1905    0.1274   20.3940 H   0  0  0  0  0  0  0  0  0  0  0  0
    9.2513   -1.6215   20.2228 H   0  0  0  0  0  0  0  0  0  0  0  0
    5.4262    0.6538   20.1406 C   0  0  0  0  0  0  0  0  0  0  0  0
    4.9840    0.6587   21.1415 H   0  0  0  0  0  0  0  0  0  0  0  0
    4.7991    1.3137   19.0844 C   0  0  0  0  0  0  0  0  0  0  0  0
    3.8729    1.8476   19.2421 H   0  0  0  0  0  0  0  0  0  0  0  0
  1  2  1  0
  2  3  2  0
  3  4  1  0
  4  5  1  0
  4  6  2  0
  6  7  1  0
  7  8  1  1
  8  9  1  0
  8 10  1  0
  8 11  1  0
 11 12  2  0
 11 13  1  0
 13 14  2  0
 14 15  1  0
 14 16  1  0
 16 17  1  0
 16 18  2  0
 18 19  1  0
 18 20  1  0
 20 21  1  0
 20 22  2  0
 22 23  1  0
  7 24  1  0
 24 25  1  0
 24 26  1  0
 24 27  1  0
 27 28  1  0
 27 29  1  0
 29 30  1  0
 29 31  1  0
 29 32  1  0
 32 33  1  0
 32 34  1  0
  6 35  1  0
 35 36  1  0
 35 37  2  0
 37 38  1  0
 37  2  1  0
 32  7  1  0
 22 13  1  0
M  END
>  <cnnaffinity>  (1) 
-4.99785

>  <filename>  (1) 
O=C(C[C@]1(c2cccnc2)CCNC1)c1ccc(Cl)cc1

$$$$
