
     RDKit          3D

 36 38  0  0  0  0  0  0  0  0999 V2000
    6.3300    0.3553   25.0976 O   0  0  0  0  0  0  0  0  0  0  0  0
    6.3823    1.1904   24.2190 C   0  0  0  0  0  0  0  0  0  0  0  0
    5.8993    2.6236   24.4062 C   0  0  0  0  0  0  0  0  0  0  0  0
    4.6501    2.9407   23.5961 C   0  0  0  0  0  0  0  0  0  0  0  0
    3.3922    2.7202   24.1644 C   0  0  0  0  0  0  0  0  0  0  0  0
    2.2148    2.9988   23.4639 C   0  0  0  0  0  0  0  0  0  0  0  0
    2.2792    3.5309   22.1767 C   0  0  0  0  0  0  0  0  0  0  0  0
    3.5251    3.7658   21.5845 C   0  0  0  0  0  0  0  0  0  0  0  0
    4.6954    3.4621   22.2832 C   0  0  0  0  0  0  0  0  0  0  0  0
    5.9151    3.6708   21.6910 O   0  0  0  0  0  0  0  0  0  0  0  0
    5.7708    4.2025   20.8919 H   0  0  0  0  0  0  0  0  0  0  0  0
    3.6018    4.1901   20.5844 H   0  0  0  0  0  0  0  0  0  0  0  0
    1.3648    3.8089   21.6623 H   0  0  0  0  0  0  0  0  0  0  0  0
    1.2586    2.8281   23.9442 H   0  0  0  0  0  0  0  0  0  0  0  0
    3.3526    2.3574   25.1918 H   0  0  0  0  0  0  0  0  0  0  0  0
    5.6992    2.7397   25.4740 H   0  0  0  0  0  0  0  0  0  0  0  0
    6.7218    3.2971   24.1369 H   0  0  0  0  0  0  0  0  0  0  0  0
    6.8728    0.9781   22.9595 N   0  0  0  0  0  0  0  0  0  0  0  0
    7.4210   -0.2000   22.4507 C   0  0  0  0  0  0  0  0  0  0  0  0
    7.3933   -0.5339   21.1128 C   0  0  0  0  0  0  0  0  0  0  0  0
    6.6785    0.1180   19.9960 C   0  0  0  0  0  0  0  0  0  0  0  0
    5.4487    0.7762   20.1950 C   0  0  0  0  0  0  0  0  0  0  0  0
    4.8203    1.3812   19.1060 C   0  0  0  0  0  0  0  0  0  0  0  0
    5.4392    1.3341   17.8537 C   0  0  0  0  0  0  0  0  0  0  0  0
    6.6026    0.7022   17.6321 N   0  0  0  0  0  0  0  0  0  0  0  0
    7.1912    0.1042   18.6756 C   0  0  0  0  0  0  0  0  0  0  0  0
    8.1289   -0.4101   18.4625 H   0  0  0  0  0  0  0  0  0  0  0  0
    4.9826    1.8047   16.9861 H   0  0  0  0  0  0  0  0  0  0  0  0
    3.8744    1.9004   19.2193 H   0  0  0  0  0  0  0  0  0  0  0  0
    4.9910    0.7731   21.1839 H   0  0  0  0  0  0  0  0  0  0  0  0
    8.3506   -1.9575   20.8661 S   0  0  0  0  0  0  0  0  0  0  0  0
    8.6825   -2.1326   22.5402 C   0  0  0  0  0  0  0  0  0  0  0  0
    8.1440   -1.1155   23.2644 C   0  0  0  0  0  0  0  0  0  0  0  0
    8.2222   -0.9797   24.3352 H   0  0  0  0  0  0  0  0  0  0  0  0
    9.2481   -2.9854   22.8966 H   0  0  0  0  0  0  0  0  0  0  0  0
    6.7709    1.7545   22.3214 H   0  0  0  0  0  0  0  0  0  0  0  0
  1  2  2  0
  2  3  1  0
  3  4  1  0
  4  5  2  0
  5  6  1  0
  6  7  2  0
  7  8  1  0
  8  9  2  0
  9 10  1  0
 10 11  1  0
  8 12  1  0
  7 13  1  0
  6 14  1  0
  5 15  1  0
  3 16  1  0
  3 17  1  0
  2 18  1  0
 18 19  1  0
 19 20  2  0
 20 21  1  0
 21 22  2  0
 22 23  1  0
 23 24  2  0
 24 25  1  0
 25 26  2  0
 26 27  1  0
 24 28  1  0
 23 29  1  0
 22 30  1  0
 20 31  1  0
 31 32  1  0
 32 33  2  0
 33 34  1  0
 32 35  1  0
 18 36  1  0
  9  4  1  0
 33 19  1  0
 26 21  1  0
M  END
>  <cnnaffinity>  (1) 
-4.82918

>  <filename>  (1) 
O=C(Cc1ccccc1O)Nc1ccsc1-c1cccnc1

$$$$
