
     RDKit          3D

 26 27  0  0  0  0  0  0  0  0999 V2000
    6.2918    1.9896   26.2523 H   0  0  0  0  0  0  0  0  0  0  0  0
    6.2998    1.1448   25.7652 O   0  0  0  0  0  0  0  0  0  0  0  0
    7.2640    1.2776   24.7489 N   0  0  0  0  0  0  0  0  0  0  0  0
    7.8545    0.4440   24.7331 H   0  0  0  0  0  0  0  0  0  0  0  0
    6.8258    1.5017   23.4416 C   0  0  0  0  0  0  0  0  0  0  0  0
    5.7056    1.7940   23.1028 O   0  0  0  0  0  0  0  0  0  0  0  0
    7.9644    1.3581   22.4460 C   0  0  0  0  0  0  0  0  0  0  0  0
    8.9134    1.6284   22.9010 H   0  0  0  0  0  0  0  0  0  0  0  0
    7.7618    2.0126   21.6019 H   0  0  0  0  0  0  0  0  0  0  0  0
    7.9738   -0.0690   22.0729 C   0  0  0  0  0  0  0  0  0  0  0  0
    8.5473   -0.9567   22.8269 N   0  0  0  0  0  0  0  0  0  0  0  0
    8.1283   -2.1377   22.2876 N   0  0  0  0  0  0  0  0  0  0  0  0
    8.3723   -3.0351   22.6763 H   0  0  0  0  0  0  0  0  0  0  0  0
    7.2405   -2.0187   21.2826 C   0  0  0  0  0  0  0  0  0  0  0  0
    6.3639   -3.2380   20.5729 S   0  0  0  0  0  0  0  0  0  0  0  0
    7.2049   -0.6421   21.0824 N   0  0  0  0  0  0  0  0  0  0  0  0
    6.5717    0.0280   19.9804 C   0  0  0  0  0  0  0  0  0  0  0  0
    7.1394    0.0325   18.6889 C   0  0  0  0  0  0  0  0  0  0  0  0
    8.0794   -0.4902   18.5349 H   0  0  0  0  0  0  0  0  0  0  0  0
    6.5818    0.6488   17.6403 N   0  0  0  0  0  0  0  0  0  0  0  0
    5.4214    1.2918   17.8499 C   0  0  0  0  0  0  0  0  0  0  0  0
    4.9853    1.7799   16.9805 H   0  0  0  0  0  0  0  0  0  0  0  0
    4.7894    1.3442   19.0982 C   0  0  0  0  0  0  0  0  0  0  0  0
    3.8586    1.8841   19.2016 H   0  0  0  0  0  0  0  0  0  0  0  0
    5.3795    0.7100   20.1974 C   0  0  0  0  0  0  0  0  0  0  0  0
    4.9849    0.7771   21.2141 H   0  0  0  0  0  0  0  0  0  0  0  0
  1  2  1  0
  2  3  1  0
  3  4  1  0
  3  5  1  0
  5  6  2  0
  5  7  1  0
  7  8  1  0
  7  9  1  0
  7 10  1  0
 10 11  2  0
 11 12  1  0
 12 13  1  0
 12 14  1  0
 14 15  2  0
 14 16  1  0
 16 17  1  0
 17 18  2  0
 18 19  1  0
 18 20  1  0
 20 21  2  0
 21 22  1  0
 21 23  1  0
 23 24  1  0
 23 25  2  0
 25 26  1  0
 16 10  1  0
 25 17  1  0
M  END
>  <cnnaffinity>  (1) 
-4.85937

>  <filename>  (1) 
O=C(Cc1n[nH]c(=S)n1-c1cccnc1)NO

$$$$
