
     RDKit          3D

 34 35  0  0  0  0  0  0  0  0999 V2000
    5.6570   -2.0651   21.5312 O   0  0  0  0  0  0  0  0  0  0  0  0
    6.7529   -1.5947   21.7461 C   0  0  0  0  0  0  0  0  0  0  0  0
    7.6238   -1.9834   22.9233 C   0  0  0  0  0  0  0  0  0  0  0  0
    8.4867   -3.2182   22.6180 C   0  0  0  0  0  0  0  0  0  0  0  0
    7.4805   -4.6823   22.2440 S   0  0  0  0  0  0  0  0  0  0  0  0
    7.3693   -5.5034   23.8692 C   0  0  0  0  0  0  0  0  0  0  0  0
    6.7269   -4.7352   25.0024 C   0  0  0  0  0  0  0  0  0  0  0  0
    7.4973   -4.1298   26.0084 C   0  0  0  0  0  0  0  0  0  0  0  0
    7.0160   -3.4228   27.0350 N   0  0  0  0  0  0  0  0  0  0  0  0
    5.6895   -3.2915   27.1214 C   0  0  0  0  0  0  0  0  0  0  0  0
    4.8022   -3.8587   26.2129 C   0  0  0  0  0  0  0  0  0  0  0  0
    5.3373   -4.5845   25.1495 C   0  0  0  0  0  0  0  0  0  0  0  0
    4.2458   -5.3082   24.0180 Cl  0  0  0  0  0  0  0  0  0  0  0  0
    3.7340   -3.7409   26.3233 H   0  0  0  0  0  0  0  0  0  0  0  0
    5.3160   -2.6992   27.9512 H   0  0  0  0  0  0  0  0  0  0  0  0
    8.5832   -4.2332   25.9915 H   0  0  0  0  0  0  0  0  0  0  0  0
    6.7947   -6.4009   23.6278 H   0  0  0  0  0  0  0  0  0  0  0  0
    8.3751   -5.8364   24.1430 H   0  0  0  0  0  0  0  0  0  0  0  0
    9.1360   -3.0430   21.7486 H   0  0  0  0  0  0  0  0  0  0  0  0
    9.1608   -3.4385   23.4564 H   0  0  0  0  0  0  0  0  0  0  0  0
    8.2598   -1.1325   23.1988 H   0  0  0  0  0  0  0  0  0  0  0  0
    6.9469   -2.1982   23.7543 H   0  0  0  0  0  0  0  0  0  0  0  0
    7.3637   -0.6645   20.9303 N   0  0  0  0  0  0  0  0  0  0  0  0
    6.7116    0.0157   19.8707 C   0  0  0  0  0  0  0  0  0  0  0  0
    5.4832    0.6355   20.1244 C   0  0  0  0  0  0  0  0  0  0  0  0
    4.8431    1.3028   19.0783 C   0  0  0  0  0  0  0  0  0  0  0  0
    5.4338    1.3005   17.8110 C   0  0  0  0  0  0  0  0  0  0  0  0
    6.6058    0.6953   17.5474 N   0  0  0  0  0  0  0  0  0  0  0  0
    7.2318    0.0784   18.5590 C   0  0  0  0  0  0  0  0  0  0  0  0
    8.1747   -0.4175   18.3188 H   0  0  0  0  0  0  0  0  0  0  0  0
    4.9513    1.8047   16.9785 H   0  0  0  0  0  0  0  0  0  0  0  0
    3.8971    1.8077   19.2397 H   0  0  0  0  0  0  0  0  0  0  0  0
    5.0645    0.5752   21.1261 H   0  0  0  0  0  0  0  0  0  0  0  0
    8.3523   -0.5390   21.0699 H   0  0  0  0  0  0  0  0  0  0  0  0
  1  2  2  0
  2  3  1  0
  3  4  1  0
  4  5  1  0
  5  6  1  0
  6  7  1  0
  7  8  2  0
  8  9  1  0
  9 10  2  0
 10 11  1  0
 11 12  2  0
 12 13  1  0
 11 14  1  0
 10 15  1  0
  8 16  1  0
  6 17  1  0
  6 18  1  0
  4 19  1  0
  4 20  1  0
  3 21  1  0
  3 22  1  0
  2 23  1  0
 23 24  1  0
 24 25  2  0
 25 26  1  0
 26 27  2  0
 27 28  1  0
 28 29  2  0
 29 30  1  0
 27 31  1  0
 26 32  1  0
 25 33  1  0
 23 34  1  0
 12  7  1  0
 29 24  1  0
M  END
>  <cnnaffinity>  (1) 
-5.37406

>  <filename>  (1) 
O=C(CCSCc1cnccc1Cl)Nc1cccnc1

$$$$
