
     RDKit          3D

 33 35  0  0  0  0  0  0  0  0999 V2000
    9.4998   -2.3649   25.0082 O   0  0  0  0  0  0  0  0  0  0  0  0
    8.5312   -1.7431   25.3970 C   0  0  0  0  0  0  0  0  0  0  0  0
    8.1706   -1.7009   26.8585 C   0  0  0  0  0  0  0  0  0  0  0  0
    7.5510   -3.0196   27.2519 C   0  0  0  0  0  0  0  0  0  0  0  0
    8.3510   -4.0878   27.6698 C   0  0  0  0  0  0  0  0  0  0  0  0
    7.7524   -5.2689   28.1137 C   0  0  0  0  0  0  0  0  0  0  0  0
    6.4283   -5.4715   28.0851 N   0  0  0  0  0  0  0  0  0  0  0  0
    5.6629   -4.4939   27.5917 C   0  0  0  0  0  0  0  0  0  0  0  0
    6.1760   -3.2617   27.1655 C   0  0  0  0  0  0  0  0  0  0  0  0
    5.0792   -2.0601   26.5503 Cl  0  0  0  0  0  0  0  0  0  0  0  0
    4.5927   -4.6826   27.5389 H   0  0  0  0  0  0  0  0  0  0  0  0
    8.3513   -6.0753   28.5298 H   0  0  0  0  0  0  0  0  0  0  0  0
    9.4290   -3.9943   27.6500 H   0  0  0  0  0  0  0  0  0  0  0  0
    7.5019   -0.8670   27.0628 H   0  0  0  0  0  0  0  0  0  0  0  0
    9.1144   -1.5376   27.3879 H   0  0  0  0  0  0  0  0  0  0  0  0
    7.7221   -1.0910   24.5117 N   0  0  0  0  0  0  0  0  0  0  0  0
    7.8615   -1.1761   23.1476 C   0  0  0  0  0  0  0  0  0  0  0  0
    7.1005   -0.4352   22.4131 N   0  0  0  0  0  0  0  0  0  0  0  0
    7.3891   -0.6593   21.0827 C   0  0  0  0  0  0  0  0  0  0  0  0
    6.6424    0.0338   20.0267 C   0  0  0  0  0  0  0  0  0  0  0  0
    5.4090    0.6812   20.2347 C   0  0  0  0  0  0  0  0  0  0  0  0
    4.8061    1.2992   19.1422 C   0  0  0  0  0  0  0  0  0  0  0  0
    5.4445    1.2551   17.8975 C   0  0  0  0  0  0  0  0  0  0  0  0
    6.6090    0.6285   17.6797 N   0  0  0  0  0  0  0  0  0  0  0  0
    7.1813    0.0413   18.7294 C   0  0  0  0  0  0  0  0  0  0  0  0
    8.1331   -0.4433   18.5160 H   0  0  0  0  0  0  0  0  0  0  0  0
    5.0042    1.7434   17.0347 H   0  0  0  0  0  0  0  0  0  0  0  0
    3.8635    1.8266   19.2431 H   0  0  0  0  0  0  0  0  0  0  0  0
    4.9451    0.7000   21.2247 H   0  0  0  0  0  0  0  0  0  0  0  0
    8.3717   -1.5691   20.8484 C   0  0  0  0  0  0  0  0  0  0  0  0
    8.9630   -2.2301   22.3258 S   0  0  0  0  0  0  0  0  0  0  0  0
    8.7886   -1.8610   19.9010 H   0  0  0  0  0  0  0  0  0  0  0  0
    6.9694   -0.4770   24.7711 H   0  0  0  0  0  0  0  0  0  0  0  0
  1  2  2  0
  2  3  1  0
  3  4  1  0
  4  5  2  0
  5  6  1  0
  6  7  2  0
  7  8  1  0
  8  9  2  0
  9 10  1  0
  8 11  1  0
  6 12  1  0
  5 13  1  0
  3 14  1  0
  3 15  1  0
  2 16  1  0
 16 17  1  0
 17 18  2  0
 18 19  1  0
 19 20  1  0
 20 21  2  0
 21 22  1  0
 22 23  2  0
 23 24  1  0
 24 25  2  0
 25 26  1  0
 23 27  1  0
 22 28  1  0
 21 29  1  0
 19 30  2  0
 30 31  1  0
 30 32  1  0
 16 33  1  0
  9  4  1  0
 31 17  1  0
 25 20  1  0
M  END
>  <cnnaffinity>  (1) 
-5.32591

>  <filename>  (1) 
O=C(Cc1ccncc1Cl)Nc1nc(-c2cccnc2)cs1

$$$$
