
     RDKit          3D

 40 42  0  0  0  0  0  0  0  0999 V2000
    5.6231   -2.5072   21.1580 O   0  0  0  0  0  0  0  0  0  0  0  0
    6.6112   -1.9864   21.6318 C   0  0  0  0  0  0  0  0  0  0  0  0
    7.2713   -2.4739   22.7565 N   0  0  0  0  0  0  0  0  0  0  0  0
    6.6060   -3.3965   23.6682 C   0  0  0  0  0  0  0  0  0  0  0  0
    5.4914   -2.7008   24.4828 C   0  0  0  0  0  0  0  0  0  0  0  0
    5.6243   -3.1728   25.9249 C   0  0  0  0  0  0  0  0  0  0  0  0
    5.4958   -2.1256   26.8012 F   0  0  0  0  0  0  0  0  0  0  0  0
    4.6215   -4.0453   26.2520 F   0  0  0  0  0  0  0  0  0  0  0  0
    6.9760   -3.8288   26.0046 C   0  0  0  0  0  0  0  0  0  0  0  0
    7.6376   -4.3034   27.1361 C   0  0  0  0  0  0  0  0  0  0  0  0
    8.9120   -4.8571   26.9849 C   0  0  0  0  0  0  0  0  0  0  0  0
    9.5036   -4.9571   25.7171 C   0  0  0  0  0  0  0  0  0  0  0  0
    8.8199   -4.5009   24.5811 C   0  0  0  0  0  0  0  0  0  0  0  0
    7.5488   -3.9331   24.7345 C   0  0  0  0  0  0  0  0  0  0  0  0
    9.2637   -4.5806   23.5931 H   0  0  0  0  0  0  0  0  0  0  0  0
   10.4877   -5.4109   25.6170 H   0  0  0  0  0  0  0  0  0  0  0  0
    9.4385   -5.2127   27.8649 H   0  0  0  0  0  0  0  0  0  0  0  0
    7.1562   -4.2484   28.1060 H   0  0  0  0  0  0  0  0  0  0  0  0
    5.6433   -1.6174   24.4863 H   0  0  0  0  0  0  0  0  0  0  0  0
    4.4997   -2.9090   24.0818 H   0  0  0  0  0  0  0  0  0  0  0  0
    6.1957   -4.2315   23.0834 H   0  0  0  0  0  0  0  0  0  0  0  0
    7.6908   -1.7180   23.2702 H   0  0  0  0  0  0  0  0  0  0  0  0
    7.2435   -0.8504   21.0597 N   0  0  0  0  0  0  0  0  0  0  0  0
    8.5571   -0.3284   21.4449 C   0  0  0  0  0  0  0  0  0  0  0  0
    8.5279    0.9237   22.3170 C   0  0  0  0  0  0  0  0  0  0  0  0
    9.8156    1.1926   22.6789 F   0  0  0  0  0  0  0  0  0  0  0  0
    8.0722    1.9978   21.6210 F   0  0  0  0  0  0  0  0  0  0  0  0
    7.9155    0.8201   23.2199 H   0  0  0  0  0  0  0  0  0  0  0  0
    9.1147   -0.0245   20.5523 H   0  0  0  0  0  0  0  0  0  0  0  0
    9.1564   -1.1004   21.9392 H   0  0  0  0  0  0  0  0  0  0  0  0
    6.6159   -0.1317   19.9777 C   0  0  0  0  0  0  0  0  0  0  0  0
    5.4216    0.5637   20.1968 C   0  0  0  0  0  0  0  0  0  0  0  0
    4.8603    1.2871   19.1373 C   0  0  0  0  0  0  0  0  0  0  0  0
    5.5077    1.2897   17.8980 C   0  0  0  0  0  0  0  0  0  0  0  0
    6.6550    0.6308   17.6652 N   0  0  0  0  0  0  0  0  0  0  0  0
    7.1945   -0.0427   18.6890 C   0  0  0  0  0  0  0  0  0  0  0  0
    8.1321   -0.5598   18.4798 H   0  0  0  0  0  0  0  0  0  0  0  0
    5.0951    1.8410   17.0545 H   0  0  0  0  0  0  0  0  0  0  0  0
    3.9478    1.8581   19.2683 H   0  0  0  0  0  0  0  0  0  0  0  0
    4.9681    0.5293   21.1875 H   0  0  0  0  0  0  0  0  0  0  0  0
  1  2  2  0
  2  3  1  0
  3  4  1  0
  4  5  1  0
  5  6  1  0
  6  7  1  0
  6  8  1  0
  6  9  1  0
  9 10  2  0
 10 11  1  0
 11 12  2  0
 12 13  1  0
 13 14  2  0
 13 15  1  0
 12 16  1  0
 11 17  1  0
 10 18  1  0
  5 19  1  0
  5 20  1  0
  4 21  1  0
  3 22  1  0
  2 23  1  0
 23 24  1  0
 24 25  1  0
 25 26  1  0
 25 27  1  0
 25 28  1  0
 24 29  1  0
 24 30  1  0
 23 31  1  0
 31 32  2  0
 32 33  1  0
 33 34  2  0
 34 35  1  0
 35 36  2  0
 36 37  1  0
 34 38  1  0
 33 39  1  0
 32 40  1  0
 14  4  1  0
 36 31  1  0
 14  9  1  0
M  END
>  <cnnaffinity>  (1) 
-5.73779

>  <filename>  (1) 
O=C(NC1CC(F)(F)c2ccccc21)N(CC(F)F)c1cccnc1

$$$$
