
     RDKit          3D

 43 45  0  0  0  0  0  0  0  0999 V2000
    6.7082    2.3760   22.8189 O   0  0  0  0  0  0  0  0  0  0  0  0
    7.2338    3.1722   23.5632 C   0  0  0  0  0  0  0  0  0  0  0  0
    8.5540    3.4455   23.5682 O   0  0  0  0  0  0  0  0  0  0  0  0
    9.3808    2.6387   22.6912 C   0  0  0  0  0  0  0  0  0  0  0  0
    9.5486    1.2392   23.2520 C   0  0  0  0  0  0  0  0  0  0  0  0
   10.1113    1.0927   24.5289 C   0  0  0  0  0  0  0  0  0  0  0  0
   10.0793   -0.1396   25.1825 C   0  0  0  0  0  0  0  0  0  0  0  0
   10.5369   -0.2352   26.8524 Cl  0  0  0  0  0  0  0  0  0  0  0  0
    9.6181   -1.2861   24.5354 C   0  0  0  0  0  0  0  0  0  0  0  0
    9.1269   -1.1663   23.2345 C   0  0  0  0  0  0  0  0  0  0  0  0
    9.0450    0.0872   22.6051 C   0  0  0  0  0  0  0  0  0  0  0  0
    8.4959    0.2372   21.3611 O   0  0  0  0  0  0  0  0  0  0  0  0
    7.4680   -0.6676   20.9356 C   0  0  0  0  0  0  0  0  0  0  0  0
    6.6644    0.0199   19.8683 C   0  0  0  0  0  0  0  0  0  0  0  0
    5.4607    0.6885   20.1227 C   0  0  0  0  0  0  0  0  0  0  0  0
    4.8199    1.3375   19.0631 C   0  0  0  0  0  0  0  0  0  0  0  0
    5.4181    1.3053   17.8002 C   0  0  0  0  0  0  0  0  0  0  0  0
    6.5698    0.6657   17.5383 N   0  0  0  0  0  0  0  0  0  0  0  0
    7.1703    0.0498   18.5634 C   0  0  0  0  0  0  0  0  0  0  0  0
    8.1153   -0.4480   18.3384 H   0  0  0  0  0  0  0  0  0  0  0  0
    4.9538    1.8080   16.9543 H   0  0  0  0  0  0  0  0  0  0  0  0
    3.8863    1.8729   19.2014 H   0  0  0  0  0  0  0  0  0  0  0  0
    5.0553    0.7238   21.1361 H   0  0  0  0  0  0  0  0  0  0  0  0
    7.9332   -1.5778   20.5244 H   0  0  0  0  0  0  0  0  0  0  0  0
    6.8229   -0.9473   21.7825 H   0  0  0  0  0  0  0  0  0  0  0  0
    8.7926   -2.0392   22.6847 H   0  0  0  0  0  0  0  0  0  0  0  0
    9.6187   -2.2389   25.0610 H   0  0  0  0  0  0  0  0  0  0  0  0
   10.5336    1.9390   25.0640 H   0  0  0  0  0  0  0  0  0  0  0  0
    8.9545    2.6162   21.6828 H   0  0  0  0  0  0  0  0  0  0  0  0
   10.3402    3.1669   22.6941 H   0  0  0  0  0  0  0  0  0  0  0  0
    6.4882    4.0388   24.5539 C   0  0  0  0  0  0  0  0  0  0  0  0
    5.2163    4.4944   24.1653 C   0  0  0  0  0  0  0  0  0  0  0  0
    4.4898    5.3683   24.9724 C   0  0  0  0  0  0  0  0  0  0  0  0
    5.0031    5.7816   26.2044 C   0  0  0  0  0  0  0  0  0  0  0  0
    6.2503    5.3264   26.6310 C   0  0  0  0  0  0  0  0  0  0  0  0
    6.9723    4.4535   25.8164 C   0  0  0  0  0  0  0  0  0  0  0  0
    8.2582    3.9491   26.3646 N   0  0  0  0  0  4  0  0  0  0  0  0
    9.0976    4.7702   26.6738 O   0  0  0  0  0  0  0  0  0  0  0  0
    8.3572    2.7435   26.4993 O   0  0  0  0  0  1  0  0  0  0  0  0
    6.6639    5.6403   27.5834 H   0  0  0  0  0  0  0  0  0  0  0  0
    4.4334    6.4553   26.8384 H   0  0  0  0  0  0  0  0  0  0  0  0
    3.5236    5.7317   24.6384 H   0  0  0  0  0  0  0  0  0  0  0  0
    4.8083    4.1659   23.2127 H   0  0  0  0  0  0  0  0  0  0  0  0
  1  2  2  0
  2  3  1  0
  3  4  1  0
  4  5  1  0
  5  6  2  0
  6  7  1  0
  7  8  1  0
  7  9  2  0
  9 10  1  0
 10 11  2  0
 11 12  1  0
 12 13  1  0
 13 14  1  0
 14 15  2  0
 15 16  1  0
 16 17  2  0
 17 18  1  0
 18 19  2  0
 19 20  1  0
 17 21  1  0
 16 22  1  0
 15 23  1  0
 13 24  1  0
 13 25  1  0
 10 26  1  0
  9 27  1  0
  6 28  1  0
  4 29  1  0
  4 30  1  0
  2 31  1  0
 31 32  2  0
 32 33  1  0
 33 34  2  0
 34 35  1  0
 35 36  2  0
 36 37  1  0
 37 38  2  0
 37 39  1  0
 35 40  1  0
 34 41  1  0
 33 42  1  0
 32 43  1  0
 11  5  1  0
 19 14  1  0
 36 31  1  0
M  CHG  2  37   1  39  -1
M  END
>  <cnnaffinity>  (1) 
-5.49783

>  <filename>  (1) 
O=C(OCc1cc(Cl)ccc1OCc1cccnc1)c1ccccc1[N+](=O)[O-]

$$$$
