
     RDKit          3D

 29 31  0  0  0  0  0  0  0  0999 V2000
    5.5584   -1.9148   21.4798 O   0  0  0  0  0  0  0  0  0  0  0  0
    6.7108   -1.5721   21.7288 C   0  0  0  0  0  0  0  0  0  0  0  0
    7.3683   -0.7355   20.8350 N   0  0  0  0  0  0  0  0  0  0  0  0
    6.7339   -0.0127   19.7952 C   0  0  0  0  0  0  0  0  0  0  0  0
    5.5098    0.5935   20.0752 C   0  0  0  0  0  0  0  0  0  0  0  0
    4.8523    1.2695   19.0403 C   0  0  0  0  0  0  0  0  0  0  0  0
    5.4325    1.3418   17.7636 C   0  0  0  0  0  0  0  0  0  0  0  0
    6.6272    0.7882   17.4815 N   0  0  0  0  0  0  0  0  0  0  0  0
    7.2595    0.1343   18.4825 C   0  0  0  0  0  0  0  0  0  0  0  0
    8.2173   -0.3210   18.2611 H   0  0  0  0  0  0  0  0  0  0  0  0
    4.8920    1.8544   16.9715 H   0  0  0  0  0  0  0  0  0  0  0  0
    3.8953    1.7493   19.2136 H   0  0  0  0  0  0  0  0  0  0  0  0
    5.0954    0.5454   21.0841 H   0  0  0  0  0  0  0  0  0  0  0  0
    8.3721   -0.6664   20.9618 H   0  0  0  0  0  0  0  0  0  0  0  0
    7.4739   -2.1994   22.8365 C   0  0  0  0  0  0  0  0  0  0  0  0
    8.7969   -2.5765   22.7448 C   0  0  0  0  0  0  0  0  0  0  0  0
    9.9192   -2.2752   21.2376 Br  0  0  0  0  0  0  0  0  0  0  0  0
    9.1915   -3.2459   23.9708 C   0  0  0  0  0  0  0  0  0  0  0  0
   10.3685   -3.9008   24.3596 C   0  0  0  0  0  0  0  0  0  0  0  0
   10.4229   -4.5065   25.6204 C   0  0  0  0  0  0  0  0  0  0  0  0
    9.3361   -4.3976   26.4978 C   0  0  0  0  0  0  0  0  0  0  0  0
    8.1692   -3.7217   26.1091 C   0  0  0  0  0  0  0  0  0  0  0  0
    8.0983   -3.1771   24.8236 C   0  0  0  0  0  0  0  0  0  0  0  0
    7.0706   -2.5367   24.1402 N   0  0  0  0  0  0  0  0  0  0  0  0
    6.1635   -2.3266   24.5585 H   0  0  0  0  0  0  0  0  0  0  0  0
    7.3255   -3.6558   26.7875 H   0  0  0  0  0  0  0  0  0  0  0  0
    9.3894   -4.8741   27.4699 H   0  0  0  0  0  0  0  0  0  0  0  0
   11.2979   -5.0768   25.9170 H   0  0  0  0  0  0  0  0  0  0  0  0
   11.2181   -3.9563   23.6874 H   0  0  0  0  0  0  0  0  0  0  0  0
  1  2  2  0
  2  3  1  0
  3  4  1  0
  4  5  2  0
  5  6  1  0
  6  7  2  0
  7  8  1  0
  8  9  2  0
  9 10  1  0
  7 11  1  0
  6 12  1  0
  5 13  1  0
  3 14  1  0
  2 15  1  0
 15 16  2  0
 16 17  1  0
 16 18  1  0
 18 19  2  0
 19 20  1  0
 20 21  2  0
 21 22  1  0
 22 23  2  0
 23 24  1  0
 24 25  1  0
 22 26  1  0
 21 27  1  0
 20 28  1  0
 19 29  1  0
  9  4  1  0
 24 15  1  0
 23 18  1  0
M  END
>  <cnnaffinity>  (1) 
-5.10767

>  <filename>  (1) 
O=C(Nc1cccnc1)c1[nH]c2ccccc2c1Br

$$$$
