
     RDKit          3D

 35 38  0  0  0  0  0  0  0  0999 V2000
    4.9453    1.7706   17.0260 H   0  0  0  0  0  0  0  0  0  0  0  0
    5.4228    1.2701   17.8651 C   0  0  0  0  0  0  0  0  0  0  0  0
    6.5871    0.6524   17.6051 N   0  0  0  0  0  0  0  0  0  0  0  0
    7.1992    0.0328   18.6235 C   0  0  0  0  0  0  0  0  0  0  0  0
    8.1467   -0.4417   18.3739 H   0  0  0  0  0  0  0  0  0  0  0  0
    6.7009   -0.0327   19.9629 C   0  0  0  0  0  0  0  0  0  0  0  0
    7.3677   -0.6841   20.9772 N   0  0  0  0  0  0  0  0  0  0  0  0
    8.6261   -1.4104   20.9993 C   0  0  0  0  0  0  0  0  0  0  0  0
    9.5136   -0.8119   20.7555 H   0  0  0  0  0  0  0  0  0  0  0  0
    8.6581   -2.3034   20.3757 H   0  0  0  0  0  0  0  0  0  0  0  0
    8.3704   -1.6956   22.4995 C   0  0  0  0  0  0  0  0  0  0  0  0
    9.1064   -1.2398   23.1649 H   0  0  0  0  0  0  0  0  0  0  0  0
    8.2254   -3.1632   22.8500 C   0  0  0  0  0  0  0  0  0  0  0  0
    8.6699   -4.0362   22.1290 O   0  0  0  0  0  0  0  0  0  0  0  0
    7.5363   -3.5555   24.1070 C   0  0  0  0  0  0  0  0  0  0  0  0
    7.0530   -2.6005   24.9850 O   0  0  0  0  0  0  0  0  0  0  0  0
    6.4792   -3.2871   26.0147 C   0  0  0  0  0  0  0  0  0  0  0  0
    5.8640   -2.7524   27.1513 C   0  0  0  0  0  0  0  0  0  0  0  0
    5.8011   -1.6810   27.3071 H   0  0  0  0  0  0  0  0  0  0  0  0
    5.3411   -3.6631   28.0704 C   0  0  0  0  0  0  0  0  0  0  0  0
    4.8539   -3.2959   28.9714 H   0  0  0  0  0  0  0  0  0  0  0  0
    5.4292   -5.0582   27.8680 C   0  0  0  0  0  0  0  0  0  0  0  0
    5.0115   -5.7362   28.6056 H   0  0  0  0  0  0  0  0  0  0  0  0
    6.0478   -5.5739   26.7354 C   0  0  0  0  0  0  0  0  0  0  0  0
    6.1277   -6.6453   26.5698 H   0  0  0  0  0  0  0  0  0  0  0  0
    6.5817   -4.6721   25.7962 C   0  0  0  0  0  0  0  0  0  0  0  0
    7.2759   -4.8143   24.5532 C   0  0  0  0  0  0  0  0  0  0  0  0
    7.5359   -5.7392   24.0578 H   0  0  0  0  0  0  0  0  0  0  0  0
    7.0504   -0.8880   22.3811 C   0  0  0  0  0  0  0  0  0  0  0  0
    6.1325   -1.4538   22.5646 H   0  0  0  0  0  0  0  0  0  0  0  0
    7.0024    0.0257   22.9840 H   0  0  0  0  0  0  0  0  0  0  0  0
    5.4703    0.6225   20.1959 C   0  0  0  0  0  0  0  0  0  0  0  0
    5.0282    0.6190   21.1917 H   0  0  0  0  0  0  0  0  0  0  0  0
    4.8376    1.2802   19.1357 C   0  0  0  0  0  0  0  0  0  0  0  0
    3.9035    1.8136   19.2838 H   0  0  0  0  0  0  0  0  0  0  0  0
  1  2  1  0
  2  3  2  0
  3  4  1  0
  4  5  1  0
  4  6  2  0
  6  7  1  0
  7  8  1  0
  8  9  1  0
  8 10  1  0
  8 11  1  0
 11 12  1  0
 11 13  1  0
 13 14  2  0
 13 15  1  0
 15 16  1  0
 16 17  1  0
 17 18  2  0
 18 19  1  0
 18 20  1  0
 20 21  1  0
 20 22  2  0
 22 23  1  0
 22 24  1  0
 24 25  1  0
 24 26  2  0
 26 27  1  0
 27 28  1  0
 11 29  1  0
 29 30  1  0
 29 31  1  0
  6 32  1  0
 32 33  1  0
 32 34  2  0
 34 35  1  0
 34  2  1  0
 29  7  1  0
 27 15  2  0
 26 17  1  0
M  END
>  <cnnaffinity>  (1) 
-5.18453

>  <filename>  (1) 
O=C(c1cc2ccccc2o1)C1CN(c2cccnc2)C1

$$$$
