
     RDKit          3D

 33 35  0  0  0  0  0  0  0  0999 V2000
    4.9184    1.8168   16.9649 H   0  0  0  0  0  0  0  0  0  0  0  0
    5.3826    1.3100   17.8114 C   0  0  0  0  0  0  0  0  0  0  0  0
    6.5411    0.6828   17.5552 N   0  0  0  0  0  0  0  0  0  0  0  0
    7.1489    0.0648   18.5752 C   0  0  0  0  0  0  0  0  0  0  0  0
    8.0924   -0.4202   18.3328 H   0  0  0  0  0  0  0  0  0  0  0  0
    6.6527    0.0022   19.8939 C   0  0  0  0  0  0  0  0  0  0  0  0
    7.3758   -0.7239   20.9886 C   0  0  0  0  0  0  0  0  0  0  0  0
    8.7721   -0.6235   21.1986 C   0  0  0  0  0  0  0  0  0  0  0  0
    9.3868    0.0066   20.5636 H   0  0  0  0  0  0  0  0  0  0  0  0
    9.4181   -1.2479   22.1880 N   0  0  0  0  0  0  0  0  0  0  0  0
    8.7475   -2.0206   23.0499 N   0  0  0  0  0  0  0  0  0  0  0  0
    7.4192   -2.1776   22.9166 C   0  0  0  0  0  0  0  0  0  0  0  0
    6.6678   -3.1202   23.8660 C   0  0  0  0  0  0  0  0  0  0  0  0
    5.4810   -3.3474   23.6763 O   0  0  0  0  0  0  0  0  0  0  0  0
    7.3772   -3.6939   24.8891 N   0  0  0  0  0  0  0  0  0  0  0  0
    8.3127   -3.3449   25.0363 H   0  0  0  0  0  0  0  0  0  0  0  0
    6.9155   -4.7693   25.6875 C   0  0  0  0  0  0  0  0  0  0  0  0
    7.3159   -4.8621   27.0244 C   0  0  0  0  0  0  0  0  0  0  0  0
    7.9763   -4.1010   27.4270 H   0  0  0  0  0  0  0  0  0  0  0  0
    6.8486   -5.9127   27.8237 C   0  0  0  0  0  0  0  0  0  0  0  0
    7.1609   -5.9787   28.8644 H   0  0  0  0  0  0  0  0  0  0  0  0
    5.9914   -6.8798   27.2855 C   0  0  0  0  0  0  0  0  0  0  0  0
    5.6377   -7.7047   27.9017 H   0  0  0  0  0  0  0  0  0  0  0  0
    5.6103   -6.7950   25.9422 C   0  0  0  0  0  0  0  0  0  0  0  0
    4.9432   -7.5359   25.5056 H   0  0  0  0  0  0  0  0  0  0  0  0
    6.0703   -5.7466   25.1431 C   0  0  0  0  0  0  0  0  0  0  0  0
    5.7814   -5.6546   24.1045 H   0  0  0  0  0  0  0  0  0  0  0  0
    6.7019   -1.5375   21.8895 C   0  0  0  0  0  0  0  0  0  0  0  0
    5.6352   -1.7123   21.7954 H   0  0  0  0  0  0  0  0  0  0  0  0
    5.4327    0.6586   20.1319 C   0  0  0  0  0  0  0  0  0  0  0  0
    5.0169    0.6521   21.1401 H   0  0  0  0  0  0  0  0  0  0  0  0
    4.7939    1.3258   19.0808 C   0  0  0  0  0  0  0  0  0  0  0  0
    3.8616    1.8568   19.2278 H   0  0  0  0  0  0  0  0  0  0  0  0
  1  2  1  0
  2  3  2  0
  3  4  1  0
  4  5  1  0
  4  6  2  0
  6  7  1  0
  7  8  2  0
  8  9  1  0
  8 10  1  0
 10 11  2  0
 11 12  1  0
 12 13  1  0
 13 14  2  0
 13 15  1  0
 15 16  1  0
 15 17  1  0
 17 18  2  0
 18 19  1  0
 18 20  1  0
 20 21  1  0
 20 22  2  0
 22 23  1  0
 22 24  1  0
 24 25  1  0
 24 26  2  0
 26 27  1  0
 12 28  2  0
 28 29  1  0
  6 30  1  0
 30 31  1  0
 30 32  2  0
 32 33  1  0
 32  2  1  0
 28  7  1  0
 26 17  1  0
M  END
>  <cnnaffinity>  (1) 
-5.01137

>  <filename>  (1) 
O=C(Nc1ccccc1)c1cc(-c2cccnc2)cnn1

$$$$
