
     RDKit          3D

 29 31  0  0  0  0  0  0  0  0999 V2000
    4.9556    1.7893   16.9380 H   0  0  0  0  0  0  0  0  0  0  0  0
    5.4041    1.3141   17.8118 C   0  0  0  0  0  0  0  0  0  0  0  0
    6.5725    0.6846   17.6127 N   0  0  0  0  0  0  0  0  0  0  0  0
    7.1348    0.0887   18.6713 C   0  0  0  0  0  0  0  0  0  0  0  0
    8.0878   -0.4021   18.4799 H   0  0  0  0  0  0  0  0  0  0  0  0
    6.5874    0.0789   19.9674 C   0  0  0  0  0  0  0  0  0  0  0  0
    7.2864   -0.6507   21.0244 C   0  0  0  0  0  0  0  0  0  0  0  0
    7.7975   -1.8871   21.0467 C   0  0  0  0  0  0  0  0  0  0  0  0
    7.7826   -2.6991   20.3553 H   0  0  0  0  0  0  0  0  0  0  0  0
    8.3096   -2.1852   22.2817 O   0  0  0  0  0  0  0  0  0  0  0  0
    8.0933   -1.1318   23.1013 C   0  0  0  0  0  0  0  0  0  0  0  0
    8.3931   -1.0770   24.2719 O   0  0  0  0  0  0  0  0  0  0  0  0
    7.4616   -0.1796   22.3396 N   0  0  0  0  0  0  0  0  0  0  0  0
    7.3310    1.1180   22.8347 C   0  0  0  0  0  0  0  0  0  0  0  0
    7.5719    2.0933   22.1643 O   0  0  0  0  0  0  0  0  0  0  0  0
    6.8490    1.1141   24.1041 N   0  0  0  0  0  0  0  0  0  0  0  0
    7.0546    0.2618   24.6100 H   0  0  0  0  0  0  0  0  0  0  0  0
    6.6732    2.3376   24.8087 C   0  0  0  0  0  0  0  0  0  0  0  0
    5.7630    2.8916   24.5571 H   0  0  0  0  0  0  0  0  0  0  0  0
    7.1564    2.4255   26.2196 C   0  0  0  0  0  0  0  0  0  0  0  0
    7.6156    1.5464   26.6701 H   0  0  0  0  0  0  0  0  0  0  0  0
    6.5522    3.0099   26.9069 H   0  0  0  0  0  0  0  0  0  0  0  0
    7.9060    3.1357   25.1304 C   0  0  0  0  0  0  0  0  0  0  0  0
    7.8507    4.2168   25.0328 H   0  0  0  0  0  0  0  0  0  0  0  0
    8.8531    2.6926   24.8263 H   0  0  0  0  0  0  0  0  0  0  0  0
    5.3516    0.7270   20.1491 C   0  0  0  0  0  0  0  0  0  0  0  0
    4.8704    0.7381   21.1282 H   0  0  0  0  0  0  0  0  0  0  0  0
    4.7574    1.3531   19.0522 C   0  0  0  0  0  0  0  0  0  0  0  0
    3.8102    1.8734   19.1427 H   0  0  0  0  0  0  0  0  0  0  0  0
  1  2  1  0
  2  3  2  0
  3  4  1  0
  4  5  1  0
  4  6  2  0
  6  7  1  0
  7  8  2  0
  8  9  1  0
  8 10  1  0
 10 11  1  0
 11 12  2  0
 11 13  1  0
 13 14  1  0
 14 15  2  0
 14 16  1  0
 16 17  1  0
 16 18  1  0
 18 19  1  0
 18 20  1  0
 20 21  1  0
 20 22  1  0
 20 23  1  0
 23 24  1  0
 23 25  1  0
  6 26  1  0
 26 27  1  0
 26 28  2  0
 28 29  1  0
 28  2  1  0
 13  7  1  0
 23 18  1  0
M  END
>  <cnnaffinity>  (1) 
-4.66628

>  <filename>  (1) 
O=C(NC1CC1)n1c(-c2cccnc2)coc1=O

$$$$
