
     RDKit          3D

 39 40  0  0  0  0  0  0  0  0999 V2000
   14.9498    3.6926   21.9856 H   0  0  0  0  0  0  0  0  0  0  0  0
   14.4616    4.5378   21.8789 O   0  0  0  0  0  0  0  0  0  0  0  0
   13.1450    4.2856   22.2585 N   0  0  0  0  0  0  0  0  0  0  0  0
   12.4876    4.6804   21.6016 H   0  0  0  0  0  0  0  0  0  0  0  0
   12.7721    3.1924   22.9809 C   0  0  0  0  0  0  0  0  0  0  0  0
   13.5914    2.4087   23.4422 O   0  0  0  0  0  0  0  0  0  0  0  0
   11.2708    3.0693   23.1671 C   0  0  0  0  0  0  0  0  0  0  0  0
   11.1373    2.9611   24.2466 H   0  0  0  0  0  0  0  0  0  0  0  0
   10.7572    3.9948   22.8783 H   0  0  0  0  0  0  0  0  0  0  0  0
   10.6452    1.8527   22.4604 C   0  0  0  0  0  0  0  0  0  0  0  0
    9.5595    1.8833   22.6258 H   0  0  0  0  0  0  0  0  0  0  0  0
   10.7831    1.9213   21.3714 H   0  0  0  0  0  0  0  0  0  0  0  0
   11.2209    0.5217   22.9555 C   0  0  0  0  0  0  0  0  0  0  0  0
   12.3072    0.6153   23.0473 H   0  0  0  0  0  0  0  0  0  0  0  0
   10.8533    0.3387   23.9760 H   0  0  0  0  0  0  0  0  0  0  0  0
   10.8596   -0.6599   22.0397 C   0  0  0  0  0  0  0  0  0  0  0  0
   11.3578   -1.5713   22.3957 H   0  0  0  0  0  0  0  0  0  0  0  0
   11.2205   -0.4725   21.0204 H   0  0  0  0  0  0  0  0  0  0  0  0
    9.3764   -0.9035   21.9923 C   0  0  0  0  0  0  0  0  0  0  0  0
    8.7226   -0.5403   20.9468 N   0  0  0  0  0  0  0  0  0  0  0  0
    7.3411   -0.7470   20.9305 N   0  0  0  0  0  0  0  0  0  0  0  0
    6.6668   -0.0235   19.9063 C   0  0  0  0  0  0  0  0  0  0  0  0
    7.2355    0.0710   18.6218 C   0  0  0  0  0  0  0  0  0  0  0  0
    8.1985   -0.3906   18.4274 H   0  0  0  0  0  0  0  0  0  0  0  0
    6.6373    0.6914   17.5988 N   0  0  0  0  0  0  0  0  0  0  0  0
    5.4590    1.2911   17.8393 C   0  0  0  0  0  0  0  0  0  0  0  0
    4.9978    1.7904   16.9899 H   0  0  0  0  0  0  0  0  0  0  0  0
    4.8372    1.2904   19.0928 C   0  0  0  0  0  0  0  0  0  0  0  0
    3.9008    1.8209   19.2245 H   0  0  0  0  0  0  0  0  0  0  0  0
    5.4449    0.6090   20.1543 C   0  0  0  0  0  0  0  0  0  0  0  0
    4.9910    0.5679   21.1445 H   0  0  0  0  0  0  0  0  0  0  0  0
    6.6708   -1.7564   21.6602 C   0  0  0  0  0  0  0  0  0  0  0  0
    5.5605   -2.1633   21.3803 O   0  0  0  0  0  0  0  0  0  0  0  0
    7.4894   -2.3452   22.8001 C   0  0  0  0  0  0  0  0  0  0  0  0
    7.8223   -3.3272   22.4387 H   0  0  0  0  0  0  0  0  0  0  0  0
    6.8004   -2.5304   23.6263 H   0  0  0  0  0  0  0  0  0  0  0  0
    8.6770   -1.4653   23.2172 C   0  0  0  0  0  0  0  0  0  0  0  0
    9.3918   -2.0338   23.8251 H   0  0  0  0  0  0  0  0  0  0  0  0
    8.3414   -0.6164   23.8394 H   0  0  0  0  0  0  0  0  0  0  0  0
  1  2  1  0
  2  3  1  0
  3  4  1  0
  3  5  1  0
  5  6  2  0
  5  7  1  0
  7  8  1  0
  7  9  1  0
  7 10  1  0
 10 11  1  0
 10 12  1  0
 10 13  1  0
 13 14  1  0
 13 15  1  0
 13 16  1  0
 16 17  1  0
 16 18  1  0
 16 19  1  0
 19 20  2  0
 20 21  1  0
 21 22  1  0
 22 23  2  0
 23 24  1  0
 23 25  1  0
 25 26  2  0
 26 27  1  0
 26 28  1  0
 28 29  1  0
 28 30  2  0
 30 31  1  0
 21 32  1  0
 32 33  2  0
 32 34  1  0
 34 35  1  0
 34 36  1  0
 34 37  1  0
 37 38  1  0
 37 39  1  0
 37 19  1  0
 30 22  1  0
M  END
>  <cnnaffinity>  (1) 
-5.62264

>  <filename>  (1) 
O=C(CCCCC1=NN(c2cccnc2)C(=O)CC1)NO

$$$$
