
     RDKit          3D

 31 33  0  0  0  0  0  0  0  0999 V2000
    4.9277    1.8206   16.9924 H   0  0  0  0  0  0  0  0  0  0  0  0
    5.3848    1.2867   17.8226 C   0  0  0  0  0  0  0  0  0  0  0  0
    6.5363    0.6536   17.5541 N   0  0  0  0  0  0  0  0  0  0  0  0
    7.1489    0.0226   18.5617 C   0  0  0  0  0  0  0  0  0  0  0  0
    8.1039   -0.4530   18.3292 H   0  0  0  0  0  0  0  0  0  0  0  0
    6.6343   -0.0178   19.8717 C   0  0  0  0  0  0  0  0  0  0  0  0
    7.5631   -0.8058   21.1977 S   0  0  0  0  0  0  0  0  0  0  0  0
    8.4933    0.6028   21.7326 C   0  0  0  0  0  0  0  0  0  0  0  0
    9.6082    1.0064   21.1650 N   0  0  0  0  0  0  0  0  0  0  0  0
    9.9238    2.1839   21.7508 N   0  0  0  0  0  0  0  0  0  0  0  0
    9.0727    2.5128   22.6380 N   0  0  0  0  0  0  0  0  0  0  0  0
    8.1489    1.5163   22.6659 N   0  0  0  0  0  0  0  0  0  0  0  0
    7.0024    1.5030   23.5276 C   0  0  0  0  0  0  0  0  0  0  0  0
    6.2448    0.5564   23.5300 O   0  0  0  0  0  0  0  0  0  0  0  0
    6.8683    2.6114   24.2736 N   0  0  0  0  0  0  0  0  0  0  0  0
    7.5627    3.3298   24.1371 H   0  0  0  0  0  0  0  0  0  0  0  0
    5.7991    2.7329   25.2518 C   0  0  0  0  0  0  0  0  0  0  0  0
    5.7418    3.7837   25.5609 H   0  0  0  0  0  0  0  0  0  0  0  0
    4.8481    2.4880   24.7611 H   0  0  0  0  0  0  0  0  0  0  0  0
    5.9939    1.8320   26.4561 C   0  0  0  0  0  0  0  0  0  0  0  0
    7.0011    1.8520   26.8646 H   0  0  0  0  0  0  0  0  0  0  0  0
    4.8743    1.6546   27.4449 C   0  0  0  0  0  0  0  0  0  0  0  0
    3.9282    2.1518   27.2474 H   0  0  0  0  0  0  0  0  0  0  0  0
    5.1266    1.6111   28.5019 H   0  0  0  0  0  0  0  0  0  0  0  0
    5.2792    0.5123   26.5605 C   0  0  0  0  0  0  0  0  0  0  0  0
    4.6242    0.2262   25.7403 H   0  0  0  0  0  0  0  0  0  0  0  0
    5.8055   -0.3252   27.0093 H   0  0  0  0  0  0  0  0  0  0  0  0
    5.4217    0.6323   20.1354 C   0  0  0  0  0  0  0  0  0  0  0  0
    5.0095    0.6314   21.1467 H   0  0  0  0  0  0  0  0  0  0  0  0
    4.7850    1.2991   19.0840 C   0  0  0  0  0  0  0  0  0  0  0  0
    3.8629    1.8509   19.2389 H   0  0  0  0  0  0  0  0  0  0  0  0
  1  2  1  0
  2  3  2  0
  3  4  1  0
  4  5  1  0
  4  6  2  0
  6  7  1  0
  7  8  1  0
  8  9  2  0
  9 10  1  0
 10 11  2  0
 11 12  1  0
 12 13  1  0
 13 14  2  0
 13 15  1  0
 15 16  1  0
 15 17  1  0
 17 18  1  0
 17 19  1  0
 17 20  1  0
 20 21  1  0
 20 22  1  0
 22 23  1  0
 22 24  1  0
 22 25  1  0
 25 26  1  0
 25 27  1  0
  6 28  1  0
 28 29  1  0
 28 30  2  0
 30 31  1  0
 30  2  1  0
 12  8  1  0
 25 20  1  0
M  END
>  <cnnaffinity>  (1) 
-4.91187

>  <filename>  (1) 
O=C(NCC1CC1)n1nnnc1Sc1cccnc1

$$$$
