
     RDKit          3D

 32 34  0  0  0  0  0  0  0  0999 V2000
    5.0598    1.7347   16.9217 H   0  0  0  0  0  0  0  0  0  0  0  0
    5.5658    1.2955   17.7807 C   0  0  0  0  0  0  0  0  0  0  0  0
    6.7249    0.6662   17.5212 N   0  0  0  0  0  0  0  0  0  0  0  0
    7.3509    0.0779   18.5489 C   0  0  0  0  0  0  0  0  0  0  0  0
    8.2903   -0.4266   18.3324 H   0  0  0  0  0  0  0  0  0  0  0  0
    6.8547    0.0832   19.8720 C   0  0  0  0  0  0  0  0  0  0  0  0
    7.4645   -0.7003   20.9336 N   0  0  0  0  0  0  0  0  0  0  0  0
    8.0795   -0.0873   22.0747 C   0  0  0  0  0  0  0  0  0  0  0  0
    8.0610    1.1158   22.2114 O   0  0  0  0  0  0  0  0  0  0  0  0
    8.7212   -0.9870   23.0005 C   0  0  0  0  0  0  0  0  0  0  0  0
    9.2023   -0.5242   23.8458 H   0  0  0  0  0  0  0  0  0  0  0  0
    8.6209   -2.3142   22.8293 C   0  0  0  0  0  0  0  0  0  0  0  0
    9.0937   -3.2455   23.7192 N   0  0  0  0  0  0  0  0  0  0  0  0
    9.6587   -2.8398   24.4380 H   0  0  0  0  0  0  0  0  0  0  0  0
    8.5908   -4.4988   23.9222 C   0  0  0  0  0  0  0  0  0  0  0  0
    7.7938   -5.0526   23.2001 O   0  0  0  0  0  0  0  0  0  0  0  0
    9.1308   -5.2335   25.1244 C   0  0  0  0  0  0  0  0  0  0  0  0
   10.4649   -4.9010   25.7550 O   0  0  0  0  0  0  0  0  0  0  0  0
   10.4821   -4.8714   25.7917 C   0  0  0  0  0  0  0  0  0  0  0  0
   11.4195   -4.4273   26.2666 H   0  0  0  0  0  0  0  0  0  0  0  0
   10.0240   -6.3571   25.9791 C   0  0  0  0  0  0  0  0  0  0  0  0
   10.6950   -7.2124   26.1466 H   0  0  0  0  0  0  0  0  0  0  0  0
    8.6714   -6.2194   25.9020 C   0  0  0  0  0  0  0  0  0  0  0  0
    7.8197   -6.8637   25.9492 H   0  0  0  0  0  0  0  0  0  0  0  0
    7.9806   -2.8144   21.7457 N   0  0  0  0  0  0  0  0  0  0  0  0
    7.6410   -3.7558   21.8259 H   0  0  0  0  0  0  0  0  0  0  0  0
    7.1097   -2.0397   21.0238 C   0  0  0  0  0  0  0  0  0  0  0  0
    6.1607   -2.5540   20.4879 O   0  0  0  0  0  0  0  0  0  0  0  0
    5.6752    0.7789   20.1325 C   0  0  0  0  0  0  0  0  0  0  0  0
    5.3063    0.8435   21.1556 H   0  0  0  0  0  0  0  0  0  0  0  0
    5.0087    1.3870   19.0596 C   0  0  0  0  0  0  0  0  0  0  0  0
    4.0744    1.9183   19.2026 H   0  0  0  0  0  0  0  0  0  0  0  0
  1  2  1  0
  2  3  2  0
  3  4  1  0
  4  5  1  0
  4  6  2  0
  6  7  1  0
  7  8  1  0
  8  9  2  0
  8 10  1  0
 10 11  1  0
 10 12  2  0
 12 13  1  0
 13 14  1  0
 13 15  1  0
 15 16  2  0
 15 17  1  0
 17 18  1  0
 18 19  1  0
 19 20  1  0
 19 21  2  0
 21 22  1  0
 21 23  1  0
 23 24  1  0
 12 25  1  0
 25 26  1  0
 25 27  1  0
 27 28  2  0
  6 29  1  0
 29 30  1  0
 29 31  2  0
 31 32  1  0
 31  2  1  0
 27  7  1  0
 23 17  2  0
M  END
>  <cnnaffinity>  (1) 
-5.19681

>  <filename>  (1) 
O=C(Nc1cc(=O)n(-c2cccnc2)c(=O)[nH]1)c1ccco1

$$$$
