
     RDKit          3D

 30 32  0  0  0  0  0  0  0  0999 V2000
    6.9512    0.7999   22.7275 O   0  0  0  0  0  0  0  0  0  0  0  0
    7.3848   -0.2547   22.3083 C   0  0  0  0  0  0  0  0  0  0  0  0
    7.4269   -0.5935   20.9686 N   0  0  0  0  0  0  0  0  0  0  0  0
    6.7080    0.0357   19.9086 C   0  0  0  0  0  0  0  0  0  0  0  0
    5.4895    0.6784   20.1469 C   0  0  0  0  0  0  0  0  0  0  0  0
    4.8395    1.2943   19.0704 C   0  0  0  0  0  0  0  0  0  0  0  0
    5.4264    1.2762   17.8013 C   0  0  0  0  0  0  0  0  0  0  0  0
    6.5801    0.6365   17.5490 N   0  0  0  0  0  0  0  0  0  0  0  0
    7.1923    0.0296   18.5768 C   0  0  0  0  0  0  0  0  0  0  0  0
    8.1297   -0.4667   18.3355 H   0  0  0  0  0  0  0  0  0  0  0  0
    4.9571    1.7917   16.9638 H   0  0  0  0  0  0  0  0  0  0  0  0
    3.9008    1.8104   19.2183 H   0  0  0  0  0  0  0  0  0  0  0  0
    5.0859    0.7090   21.1579 H   0  0  0  0  0  0  0  0  0  0  0  0
    7.7059   -1.5544   20.8366 H   0  0  0  0  0  0  0  0  0  0  0  0
    7.9811   -1.3222   23.2477 C   0  0  0  0  0  0  0  0  0  0  0  0
    9.5317   -1.4249   23.2036 C   0  0  0  0  0  0  0  0  0  0  0  0
    9.9951   -3.1198   23.7004 S   0  0  0  0  0  0  0  0  0  0  0  0
    8.3839   -3.7415   23.3430 C   0  0  0  0  0  0  0  0  0  0  0  0
    8.0110   -5.0927   23.3024 C   0  0  0  0  0  0  0  0  0  0  0  0
    6.6806   -5.4227   23.0356 C   0  0  0  0  0  0  0  0  0  0  0  0
    5.7345   -4.4276   22.7602 C   0  0  0  0  0  0  0  0  0  0  0  0
    6.1390   -3.0926   22.7257 C   0  0  0  0  0  0  0  0  0  0  0  0
    7.4478   -2.7382   23.0716 C   0  0  0  0  0  0  0  0  0  0  0  0
    5.4566   -2.3253   22.3802 H   0  0  0  0  0  0  0  0  0  0  0  0
    4.6945   -4.7027   22.5969 H   0  0  0  0  0  0  0  0  0  0  0  0
    6.3792   -6.4668   23.0123 H   0  0  0  0  0  0  0  0  0  0  0  0
    8.7374   -5.8839   23.4703 H   0  0  0  0  0  0  0  0  0  0  0  0
   10.0105   -0.7301   23.8978 H   0  0  0  0  0  0  0  0  0  0  0  0
    9.9289   -1.2486   22.1989 H   0  0  0  0  0  0  0  0  0  0  0  0
    7.7047   -0.9766   24.2517 H   0  0  0  0  0  0  0  0  0  0  0  0
  1  2  2  0
  2  3  1  0
  3  4  1  0
  4  5  2  0
  5  6  1  0
  6  7  2  0
  7  8  1  0
  8  9  2  0
  9 10  1  0
  7 11  1  0
  6 12  1  0
  5 13  1  0
  3 14  1  0
  2 15  1  0
 15 16  1  0
 16 17  1  0
 17 18  1  0
 18 19  2  0
 19 20  1  0
 20 21  2  0
 21 22  1  0
 22 23  2  0
 22 24  1  0
 21 25  1  0
 20 26  1  0
 19 27  1  0
 16 28  1  0
 16 29  1  0
 15 30  1  0
  9  4  1  0
 23 15  1  0
 23 18  1  0
M  END
>  <cnnaffinity>  (1) 
-5.06301

>  <filename>  (1) 
O=C(Nc1cccnc1)C1CSc2ccccc21

$$$$
