
     RDKit          3D

 40 41  0  0  0  0  0  0  0  0999 V2000
    7.2560   -0.4769   23.5749 O   0  0  0  0  0  0  0  0  0  0  0  0
    7.0975    0.2150   22.5869 C   0  0  0  0  0  0  0  0  0  0  0  0
    7.2085    1.5808   22.6062 N   0  0  0  0  0  0  0  0  0  0  0  0
    7.8043    2.2055   23.7916 C   0  0  0  0  0  0  0  0  0  0  0  0
    9.2789    1.8769   24.0554 C   0  0  0  0  0  0  0  0  0  0  0  0
   10.3258    2.4173   23.2889 C   0  0  0  0  0  0  0  0  0  0  0  0
   11.6703    2.1698   23.6036 C   0  0  0  0  0  0  0  0  0  0  0  0
   11.9895    1.3394   24.6849 C   0  0  0  0  0  0  0  0  0  0  0  0
   10.9709    0.7673   25.4550 C   0  0  0  0  0  0  0  0  0  0  0  0
    9.6425    1.0454   25.1361 C   0  0  0  0  0  0  0  0  0  0  0  0
    8.6118    0.5880   25.9478 O   0  0  0  0  0  0  0  0  0  0  0  0
    8.6111   -0.6551   26.4803 C   0  0  0  0  0  0  0  0  0  0  0  0
    9.0395   -1.6179   25.6552 F   0  0  0  0  0  0  0  0  0  0  0  0
    7.3644   -0.9308   26.8483 F   0  0  0  0  0  0  0  0  0  0  0  0
    9.3865   -0.7198   27.5810 F   0  0  0  0  0  0  0  0  0  0  0  0
   11.1724    0.1127   26.2976 H   0  0  0  0  0  0  0  0  0  0  0  0
   13.0294    1.1371   24.9344 H   0  0  0  0  0  0  0  0  0  0  0  0
   12.4640    2.6267   23.0135 H   0  0  0  0  0  0  0  0  0  0  0  0
   10.0905    3.0508   22.4336 H   0  0  0  0  0  0  0  0  0  0  0  0
    7.2295    1.8604   24.6544 H   0  0  0  0  0  0  0  0  0  0  0  0
    7.6598    3.2901   23.7091 H   0  0  0  0  0  0  0  0  0  0  0  0
    7.4352    1.9527   21.6999 H   0  0  0  0  0  0  0  0  0  0  0  0
    6.8809   -0.3750   21.3188 N   0  0  0  0  0  0  0  0  0  0  0  0
    7.4234   -1.7324   21.1707 C   0  0  0  0  0  0  0  0  0  0  0  0
    8.9491   -1.7514   21.2140 C   0  0  0  0  0  0  0  0  0  0  0  0
    9.3579   -3.0087   20.9293 F   0  0  0  0  0  0  0  0  0  0  0  0
    9.4947   -0.9087   20.2845 F   0  0  0  0  0  0  0  0  0  0  0  0
    9.3317   -1.4669   22.1971 H   0  0  0  0  0  0  0  0  0  0  0  0
    7.1163   -2.1537   20.2092 H   0  0  0  0  0  0  0  0  0  0  0  0
    7.0610   -2.4044   21.9610 H   0  0  0  0  0  0  0  0  0  0  0  0
    6.3690    0.2690   20.1396 C   0  0  0  0  0  0  0  0  0  0  0  0
    5.1560    0.9757   20.1450 C   0  0  0  0  0  0  0  0  0  0  0  0
    4.6880    1.5122   18.9340 C   0  0  0  0  0  0  0  0  0  0  0  0
    5.4484    1.3513   17.7693 C   0  0  0  0  0  0  0  0  0  0  0  0
    6.6129    0.6849   17.7470 N   0  0  0  0  0  0  0  0  0  0  0  0
    7.0524    0.1659   18.8990 C   0  0  0  0  0  0  0  0  0  0  0  0
    8.0092   -0.3458   18.8548 H   0  0  0  0  0  0  0  0  0  0  0  0
    5.1253    1.7635   16.8165 H   0  0  0  0  0  0  0  0  0  0  0  0
    3.7553    2.0611   18.8729 H   0  0  0  0  0  0  0  0  0  0  0  0
    4.6032    1.1141   21.0758 H   0  0  0  0  0  0  0  0  0  0  0  0
  1  2  2  0
  2  3  1  0
  3  4  1  0
  4  5  1  0
  5  6  2  0
  6  7  1  0
  7  8  2  0
  8  9  1  0
  9 10  2  0
 10 11  1  0
 11 12  1  0
 12 13  1  0
 12 14  1  0
 12 15  1  0
  9 16  1  0
  8 17  1  0
  7 18  1  0
  6 19  1  0
  4 20  1  0
  4 21  1  0
  3 22  1  0
  2 23  1  0
 23 24  1  0
 24 25  1  0
 25 26  1  0
 25 27  1  0
 25 28  1  0
 24 29  1  0
 24 30  1  0
 23 31  1  0
 31 32  2  0
 32 33  1  0
 33 34  2  0
 34 35  1  0
 35 36  2  0
 36 37  1  0
 34 38  1  0
 33 39  1  0
 32 40  1  0
 10  5  1  0
 36 31  1  0
M  END
>  <cnnaffinity>  (1) 
-5.6732

>  <filename>  (1) 
O=C(NCc1ccccc1OC(F)(F)F)N(CC(F)F)c1cccnc1

$$$$
