
     RDKit          3D

 36 39  0  0  0  0  0  0  0  0999 V2000
    5.1279    1.7624   16.7786 H   0  0  0  0  0  0  0  0  0  0  0  0
    5.5353    1.2811   17.6685 C   0  0  0  0  0  0  0  0  0  0  0  0
    6.7362    0.7018   17.5354 N   0  0  0  0  0  0  0  0  0  0  0  0
    7.2726    0.1419   18.6270 C   0  0  0  0  0  0  0  0  0  0  0  0
    8.2452   -0.3171   18.4755 H   0  0  0  0  0  0  0  0  0  0  0  0
    6.6569    0.0830   19.8960 C   0  0  0  0  0  0  0  0  0  0  0  0
    7.4127   -0.4841   21.0638 C   0  0  0  0  0  0  0  0  0  0  0  0
    7.1973   -1.6196   22.0048 C   0  0  0  0  0  0  0  0  0  0  0  0
    5.9963   -2.5118   22.4720 C   0  0  0  0  0  0  0  0  0  0  0  0
    6.0161   -2.4014   22.1685 O   0  0  0  0  0  0  0  0  0  0  0  0
    4.7114   -3.9228   23.5295 C   0  0  0  0  0  0  0  0  0  0  0  0
    5.7379   -4.7925   23.8126 C   0  0  0  0  0  0  0  0  0  0  0  0
    6.6349   -4.8220   23.1870 H   0  0  0  0  0  0  0  0  0  0  0  0
    5.6319   -5.5714   24.9821 C   0  0  0  0  0  0  0  0  0  0  0  0
    6.4222   -6.2596   25.2612 H   0  0  0  0  0  0  0  0  0  0  0  0
    4.6036   -5.4722   25.8329 N   0  0  0  0  0  0  0  0  0  0  0  0
    3.6514   -4.5851   25.5426 C   0  0  0  0  0  0  0  0  0  0  0  0
    2.8300   -4.5030   26.2498 H   0  0  0  0  0  0  0  0  0  0  0  0
    3.6603   -3.7656   24.3819 C   0  0  0  0  0  0  0  0  0  0  0  0
    2.8263   -3.0865   24.2410 H   0  0  0  0  0  0  0  0  0  0  0  0
    8.2954   -1.7273   22.7786 N   0  0  0  0  0  0  0  0  0  0  0  0
    9.1261   -0.7988   22.3853 N   0  0  0  0  0  0  0  0  0  0  0  0
    8.6633    0.0130   21.4427 C   0  0  0  0  0  0  0  0  0  0  0  0
    9.5560    1.2366   21.4039 C   0  0  0  0  0  0  0  0  0  0  0  0
    9.8852    1.4668   20.4032 H   0  0  0  0  0  0  0  0  0  0  0  0
    9.0361    2.1144   21.8026 H   0  0  0  0  0  0  0  0  0  0  0  0
   10.7673    0.8351   22.2772 C   0  0  0  0  0  0  0  0  0  0  0  0
   11.1373    1.6605   22.8837 H   0  0  0  0  0  0  0  0  0  0  0  0
   11.5813    0.5003   21.6314 H   0  0  0  0  0  0  0  0  0  0  0  0
   10.2649   -0.3286   23.1505 C   0  0  0  0  0  0  0  0  0  0  0  0
   10.9792   -1.1411   23.2894 H   0  0  0  0  0  0  0  0  0  0  0  0
    9.9010    0.0023   24.1294 H   0  0  0  0  0  0  0  0  0  0  0  0
    5.3794    0.6650   19.9931 C   0  0  0  0  0  0  0  0  0  0  0  0
    4.8339    0.6573   20.9383 H   0  0  0  0  0  0  0  0  0  0  0  0
    4.8168    1.2734   18.8671 C   0  0  0  0  0  0  0  0  0  0  0  0
    3.8414    1.7490   18.9080 H   0  0  0  0  0  0  0  0  0  0  0  0
  1  2  1  0
  2  3  2  0
  3  4  1  0
  4  5  1  0
  4  6  2  0
  6  7  1  0
  7  8  1  0
  8  9  1  0
  9 10  2  0
  9 11  1  0
 11 12  2  0
 12 13  1  0
 12 14  1  0
 14 15  1  0
 14 16  2  0
 16 17  1  0
 17 18  1  0
 17 19  2  0
 19 20  1  0
  8 21  2  0
 21 22  1  0
 22 23  1  0
 23 24  1  0
 24 25  1  0
 24 26  1  0
 24 27  1  0
 27 28  1  0
 27 29  1  0
 27 30  1  0
 30 31  1  0
 30 32  1  0
  6 33  1  0
 33 34  1  0
 33 35  2  0
 35 36  1  0
 35  2  1  0
 23  7  2  0
 19 11  1  0
 30 22  1  0
M  END
>  <cnnaffinity>  (1) 
-5.34682

>  <filename>  (1) 
O=C(c1ccncc1)c1nn2c(c1-c1cccnc1)CCC2

$$$$
