
     RDKit          3D

 37 39  0  0  0  0  0  0  0  0999 V2000
    5.4913   -2.1186   21.3216 O   0  0  0  0  0  0  0  0  0  0  0  0
    6.5949   -1.7201   21.5981 C   0  0  0  0  0  0  0  0  0  0  0  0
    7.3673   -2.1054   22.7235 N   0  0  0  0  0  0  0  0  0  0  0  0
    6.8827   -3.0594   23.6335 N   0  0  0  0  0  0  0  0  0  0  0  0
    6.7470   -4.4197   23.4137 C   0  0  0  0  0  0  0  0  0  0  0  0
    7.2647   -5.0088   22.4880 O   0  0  0  0  0  0  0  0  0  0  0  0
    5.9609   -5.0554   24.5424 C   0  0  0  0  0  0  0  0  0  0  0  0
    4.5891   -5.2250   24.4728 C   0  0  0  0  0  0  0  0  0  0  0  0
    3.8774   -5.7858   25.5699 C   0  0  0  0  0  0  0  0  0  0  0  0
    4.5405   -6.2036   26.6986 C   0  0  0  0  0  0  0  0  0  0  0  0
    5.9555   -6.0399   26.8072 C   0  0  0  0  0  0  0  0  0  0  0  0
    6.6732   -6.4479   27.9703 C   0  0  0  0  0  0  0  0  0  0  0  0
    8.0181   -6.1925   28.0936 C   0  0  0  0  0  0  0  0  0  0  0  0
    8.7252   -5.5362   27.0554 C   0  0  0  0  0  0  0  0  0  0  0  0
    8.0770   -5.1764   25.8967 C   0  0  0  0  0  0  0  0  0  0  0  0
    6.6761   -5.4227   25.7298 C   0  0  0  0  0  0  0  0  0  0  0  0
    8.6360   -4.7013   25.0948 H   0  0  0  0  0  0  0  0  0  0  0  0
    9.7869   -5.3449   27.1787 H   0  0  0  0  0  0  0  0  0  0  0  0
    8.5659   -6.4915   28.9787 H   0  0  0  0  0  0  0  0  0  0  0  0
    6.1251   -6.9600   28.7579 H   0  0  0  0  0  0  0  0  0  0  0  0
    4.0023   -6.6492   27.5350 H   0  0  0  0  0  0  0  0  0  0  0  0
    2.7965   -5.8722   25.5080 H   0  0  0  0  0  0  0  0  0  0  0  0
    4.0345   -4.9124   23.5903 H   0  0  0  0  0  0  0  0  0  0  0  0
    6.3425   -2.6955   24.4046 H   0  0  0  0  0  0  0  0  0  0  0  0
    8.3072   -2.3109   22.4036 H   0  0  0  0  0  0  0  0  0  0  0  0
    7.3246   -0.8187   20.8398 N   0  0  0  0  0  0  0  0  0  0  0  0
    6.7437   -0.0371   19.7905 C   0  0  0  0  0  0  0  0  0  0  0  0
    5.4989    0.5843   19.9615 C   0  0  0  0  0  0  0  0  0  0  0  0
    4.9593    1.3197   18.8997 C   0  0  0  0  0  0  0  0  0  0  0  0
    5.6720    1.3822   17.6960 C   0  0  0  0  0  0  0  0  0  0  0  0
    6.8617    0.7862   17.5110 N   0  0  0  0  0  0  0  0  0  0  0  0
    7.3879    0.1141   18.5432 C   0  0  0  0  0  0  0  0  0  0  0  0
    8.3536   -0.3658   18.3883 H   0  0  0  0  0  0  0  0  0  0  0  0
    5.2672    1.9105   16.8365 H   0  0  0  0  0  0  0  0  0  0  0  0
    4.0247    1.8646   19.0063 H   0  0  0  0  0  0  0  0  0  0  0  0
    4.9769    0.4718   20.9105 H   0  0  0  0  0  0  0  0  0  0  0  0
    8.1315   -0.4317   21.3056 H   0  0  0  0  0  0  0  0  0  0  0  0
  1  2  2  0
  2  3  1  0
  3  4  1  0
  4  5  1  0
  5  6  2  0
  5  7  1  0
  7  8  2  0
  8  9  1  0
  9 10  2  0
 10 11  1  0
 11 12  2  0
 12 13  1  0
 13 14  2  0
 14 15  1  0
 15 16  2  0
 15 17  1  0
 14 18  1  0
 13 19  1  0
 12 20  1  0
 10 21  1  0
  9 22  1  0
  8 23  1  0
  4 24  1  0
  3 25  1  0
  2 26  1  0
 26 27  1  0
 27 28  2  0
 28 29  1  0
 29 30  2  0
 30 31  1  0
 31 32  2  0
 32 33  1  0
 30 34  1  0
 29 35  1  0
 28 36  1  0
 26 37  1  0
 16  7  1  0
 32 27  1  0
 16 11  1  0
M  END
>  <cnnaffinity>  (1) 
-5.05031

>  <filename>  (1) 
O=C(NNC(=O)c1cccc2ccccc12)Nc1cccnc1

$$$$
