
     RDKit          3D

 32 34  0  0  0  0  0  0  0  0999 V2000
    5.0499    1.8901   16.7108 H   0  0  0  0  0  0  0  0  0  0  0  0
    5.4044    1.3697   17.5994 C   0  0  0  0  0  0  0  0  0  0  0  0
    6.5505    0.6831   17.4659 N   0  0  0  0  0  0  0  0  0  0  0  0
    7.0250    0.0595   18.5484 C   0  0  0  0  0  0  0  0  0  0  0  0
    7.9612   -0.4881   18.4395 H   0  0  0  0  0  0  0  0  0  0  0  0
    6.3772    0.0837   19.7861 C   0  0  0  0  0  0  0  0  0  0  0  0
    7.0416   -0.6348   20.8924 C   0  0  0  0  0  0  0  0  0  0  0  0
    7.9419   -1.4200   20.7679 O   0  0  0  0  0  0  0  0  0  0  0  0
    6.4563   -0.2524   22.0991 O   0  0  0  0  0  0  0  0  0  0  0  0
    6.9925   -0.6689   23.3406 N   0  0  0  0  0  0  0  0  0  0  0  0
    6.6445   -1.6087   23.5103 H   0  0  0  0  0  0  0  0  0  0  0  0
    8.4047   -0.6452   23.3972 C   0  0  0  0  0  0  0  0  0  0  0  0
    9.0724   -1.8148   23.6872 C   0  0  0  0  0  0  0  0  0  0  0  0
    8.4979   -2.6902   23.9652 H   0  0  0  0  0  0  0  0  0  0  0  0
   10.4762   -1.8864   23.5465 C   0  0  0  0  0  0  0  0  0  0  0  0
   10.9610   -2.8439   23.7114 H   0  0  0  0  0  0  0  0  0  0  0  0
   11.2057   -0.7631   23.2270 C   0  0  0  0  0  0  0  0  0  0  0  0
   12.2868   -0.8050   23.1276 H   0  0  0  0  0  0  0  0  0  0  0  0
   10.5559    0.4946   23.0426 C   0  0  0  0  0  0  0  0  0  0  0  0
   11.2742    1.7138   22.8151 C   0  0  0  0  0  0  0  0  0  0  0  0
   12.3626    1.6980   22.8085 H   0  0  0  0  0  0  0  0  0  0  0  0
   10.6001    2.9014   22.6297 C   0  0  0  0  0  0  0  0  0  0  0  0
   11.1472    3.8280   22.4659 H   0  0  0  0  0  0  0  0  0  0  0  0
    9.1796    2.9423   22.6646 C   0  0  0  0  0  0  0  0  0  0  0  0
    8.6586    3.8843   22.5119 H   0  0  0  0  0  0  0  0  0  0  0  0
    8.4555    1.7977   22.8978 C   0  0  0  0  0  0  0  0  0  0  0  0
    7.3709    1.8114   22.9582 H   0  0  0  0  0  0  0  0  0  0  0  0
    9.1246    0.5521   23.1031 C   0  0  0  0  0  0  0  0  0  0  0  0
    5.1715    0.7845   19.9218 C   0  0  0  0  0  0  0  0  0  0  0  0
    4.6548    0.8114   20.8811 H   0  0  0  0  0  0  0  0  0  0  0  0
    4.6789    1.4413   18.7953 C   0  0  0  0  0  0  0  0  0  0  0  0
    3.7612    2.0171   18.8427 H   0  0  0  0  0  0  0  0  0  0  0  0
  1  2  1  0
  2  3  2  0
  3  4  1  0
  4  5  1  0
  4  6  2  0
  6  7  1  0
  7  8  2  0
  7  9  1  0
  9 10  1  0
 10 11  1  0
 10 12  1  0
 12 13  2  0
 13 14  1  0
 13 15  1  0
 15 16  1  0
 15 17  2  0
 17 18  1  0
 17 19  1  0
 19 20  2  0
 20 21  1  0
 20 22  1  0
 22 23  1  0
 22 24  2  0
 24 25  1  0
 24 26  1  0
 26 27  1  0
 26 28  2  0
  6 29  1  0
 29 30  1  0
 29 31  2  0
 31 32  1  0
 31  2  1  0
 28 12  1  0
 28 19  1  0
M  END
>  <cnnaffinity>  (1) 
-5.15625

>  <filename>  (1) 
O=C(ONc1cccc2ccccc12)c1cccnc1

$$$$
