
     RDKit          3D

 34 36  0  0  0  0  0  0  0  0999 V2000
    6.9924    1.7666   22.1467 H   0  0  0  0  0  0  0  0  0  0  0  0
    7.3599    0.9738   22.7935 C   0  0  0  0  0  0  0  0  0  0  0  0
    7.6018    1.3701   24.2141 C   0  0  0  0  0  0  0  0  0  0  0  0
    7.7010    0.5359   25.1015 O   0  0  0  0  0  0  0  0  0  0  0  0
    7.7109    2.8383   24.5404 C   0  0  0  0  0  0  0  0  0  0  0  0
    7.4474    3.2585   25.8599 C   0  0  0  0  0  0  0  0  0  0  0  0
    7.1669    2.5153   26.6014 H   0  0  0  0  0  0  0  0  0  0  0  0
    7.5527    4.5991   26.2224 C   0  0  0  0  0  0  0  0  0  0  0  0
    7.3449    4.9174   27.2394 H   0  0  0  0  0  0  0  0  0  0  0  0
    7.9351    5.5346   25.2572 C   0  0  0  0  0  0  0  0  0  0  0  0
    8.0642    7.2085   25.7011 Cl  0  0  0  0  0  0  0  0  0  0  0  0
    8.2188    5.1487   23.9447 C   0  0  0  0  0  0  0  0  0  0  0  0
    8.5141    5.8908   23.2087 H   0  0  0  0  0  0  0  0  0  0  0  0
    8.1077    3.8025   23.5935 C   0  0  0  0  0  0  0  0  0  0  0  0
    8.3556    3.5121   22.5736 H   0  0  0  0  0  0  0  0  0  0  0  0
    7.5898   -0.2685   22.2990 C   0  0  0  0  0  0  0  0  0  0  0  0
    7.3782   -0.7673   20.9187 C   0  0  0  0  0  0  0  0  0  0  0  0
    6.6490    0.0086   19.8990 C   0  0  0  0  0  0  0  0  0  0  0  0
    7.1693    0.0527   18.6025 C   0  0  0  0  0  0  0  0  0  0  0  0
    8.1131   -0.4373   18.3779 H   0  0  0  0  0  0  0  0  0  0  0  0
    6.5706    0.6787   17.5876 N   0  0  0  0  0  0  0  0  0  0  0  0
    5.4049    1.2921   17.8419 C   0  0  0  0  0  0  0  0  0  0  0  0
    4.9244    1.7796   16.9970 H   0  0  0  0  0  0  0  0  0  0  0  0
    4.8009    1.3103   19.1044 C   0  0  0  0  0  0  0  0  0  0  0  0
    3.8692    1.8448   19.2548 H   0  0  0  0  0  0  0  0  0  0  0  0
    5.4343    0.6575   20.1599 C   0  0  0  0  0  0  0  0  0  0  0  0
    4.9949    0.6376   21.1625 H   0  0  0  0  0  0  0  0  0  0  0  0
    7.8817   -1.9239   20.6924 N   0  0  0  0  0  0  0  0  0  0  0  0
    8.4732   -2.4369   21.9294 C   0  0  0  0  0  0  0  0  0  0  0  0
    9.5369   -2.6069   21.7494 H   0  0  0  0  0  0  0  0  0  0  0  0
    8.0214   -3.4023   22.1683 H   0  0  0  0  0  0  0  0  0  0  0  0
    8.2447   -1.3954   23.0520 C   0  0  0  0  0  0  0  0  0  0  0  0
    9.1720   -1.0671   23.5310 H   0  0  0  0  0  0  0  0  0  0  0  0
    7.6010   -1.7624   23.8579 H   0  0  0  0  0  0  0  0  0  0  0  0
  1  2  1  0
  2  3  1  0
  3  4  2  0
  3  5  1  0
  5  6  2  0
  6  7  1  0
  6  8  1  0
  8  9  1  0
  8 10  2  0
 10 11  1  0
 10 12  1  0
 12 13  1  0
 12 14  2  0
 14 15  1  0
  2 16  2  3
 16 17  1  0
 17 18  1  0
 18 19  2  0
 19 20  1  0
 19 21  1  0
 21 22  2  0
 22 23  1  0
 22 24  1  0
 24 25  1  0
 24 26  2  0
 26 27  1  0
 17 28  2  0
 28 29  1  0
 29 30  1  0
 29 31  1  0
 29 32  1  0
 32 33  1  0
 32 34  1  0
 14  5  1  0
 32 16  1  0
 26 18  1  0
M  END
>  <cnnaffinity>  (1) 
-5.08184

>  <filename>  (1) 
O=C(C=C1CCN=C1c1cccnc1)c1ccc(Cl)cc1

$$$$
