
     RDKit          3D

 28 29  0  0  0  0  0  0  0  0999 V2000
    5.0014    1.7381   17.0425 H   0  0  0  0  0  0  0  0  0  0  0  0
    5.4773    1.2528   17.8898 C   0  0  0  0  0  0  0  0  0  0  0  0
    6.6393    0.6324   17.6404 N   0  0  0  0  0  0  0  0  0  0  0  0
    7.2472    0.0224   18.6638 C   0  0  0  0  0  0  0  0  0  0  0  0
    8.1804   -0.4731   18.3937 H   0  0  0  0  0  0  0  0  0  0  0  0
    6.7268   -0.0023   19.9584 C   0  0  0  0  0  0  0  0  0  0  0  0
    7.4030   -0.7131   21.0625 C   0  0  0  0  0  0  0  0  0  0  0  0
    6.8080   -1.1871   22.0060 O   0  0  0  0  0  0  0  0  0  0  0  0
    8.7622   -0.7928   21.0072 N   0  0  0  0  0  0  0  0  0  0  0  0
    9.4364   -0.2870   20.4650 H   0  0  0  0  0  0  0  0  0  0  0  0
    9.5341   -1.7148   22.1153 S   0  0  0  0  0  0  0  0  0  0  0  0
   10.8991   -1.4154   21.7391 O   0  0  0  0  0  0  0  0  0  0  0  0
    8.9664   -3.0441   22.0863 O   0  0  0  0  0  0  0  0  0  0  0  0
    9.1518   -1.0186   23.7021 C   0  0  0  0  0  0  0  0  0  0  0  0
    8.6156   -1.8460   24.7090 C   0  0  0  0  0  0  0  0  0  0  0  0
    8.3901   -2.8920   24.5038 H   0  0  0  0  0  0  0  0  0  0  0  0
    8.3668   -1.3335   25.9829 C   0  0  0  0  0  0  0  0  0  0  0  0
    7.9326   -1.9732   26.7496 H   0  0  0  0  0  0  0  0  0  0  0  0
    8.6775   -0.0004   26.2765 C   0  0  0  0  0  0  0  0  0  0  0  0
    8.4856    0.4074   27.2695 H   0  0  0  0  0  0  0  0  0  0  0  0
    9.2504    0.8126   25.2941 C   0  0  0  0  0  0  0  0  0  0  0  0
    9.5279    1.8409   25.5125 H   0  0  0  0  0  0  0  0  0  0  0  0
    9.4961    0.3042   24.0121 C   0  0  0  0  0  0  0  0  0  0  0  0
   10.2547    1.3654   22.8718 Cl  0  0  0  0  0  0  0  0  0  0  0  0
    5.4891    0.6269   20.2046 C   0  0  0  0  0  0  0  0  0  0  0  0
    5.0421    0.6016   21.2014 H   0  0  0  0  0  0  0  0  0  0  0  0
    4.8651    1.2774   19.1485 C   0  0  0  0  0  0  0  0  0  0  0  0
    3.9212    1.7975   19.2833 H   0  0  0  0  0  0  0  0  0  0  0  0
  1  2  1  0
  2  3  2  0
  3  4  1  0
  4  5  1  0
  4  6  2  0
  6  7  1  0
  7  8  2  0
  7  9  1  0
  9 10  1  0
  9 11  1  0
 11 12  2  0
 11 13  2  0
 11 14  1  0
 14 15  2  0
 15 16  1  0
 15 17  1  0
 17 18  1  0
 17 19  2  0
 19 20  1  0
 19 21  1  0
 21 22  1  0
 21 23  2  0
 23 24  1  0
  6 25  1  0
 25 26  1  0
 25 27  2  0
 27 28  1  0
 27  2  1  0
 23 14  1  0
M  END
>  <cnnaffinity>  (1) 
-5.25867

>  <filename>  (1) 
O=C(NS(=O)(=O)c1ccccc1Cl)c1cccnc1

$$$$
