
     RDKit          3D

 28 29  0  0  0  0  0  0  0  0999 V2000
    4.9387    1.8211   16.9522 H   0  0  0  0  0  0  0  0  0  0  0  0
    5.4048    1.3156   17.7970 C   0  0  0  0  0  0  0  0  0  0  0  0
    6.5620    0.6837   17.5475 N   0  0  0  0  0  0  0  0  0  0  0  0
    7.1456    0.0526   18.5755 C   0  0  0  0  0  0  0  0  0  0  0  0
    8.0934   -0.4404   18.3479 H   0  0  0  0  0  0  0  0  0  0  0  0
    6.6321    0.0054   19.8806 C   0  0  0  0  0  0  0  0  0  0  0  0
    7.3130   -0.7659   20.9784 C   0  0  0  0  0  0  0  0  0  0  0  0
    7.3204   -0.1789   21.9046 H   0  0  0  0  0  0  0  0  0  0  0  0
    8.3584   -0.9721   20.7167 H   0  0  0  0  0  0  0  0  0  0  0  0
    6.6053   -2.0775   21.3540 C   0  0  1  0  0  0  0  0  0  0  0  0
    5.6507   -1.8559   21.8354 H   0  0  0  0  0  0  0  0  0  0  0  0
    6.3256   -2.8661   20.2373 F   0  0  0  0  0  0  0  0  0  0  0  0
    7.4151   -2.8505   22.4029 C   0  0  0  0  0  0  0  0  0  0  0  0
    7.7297   -2.3095   23.4500 O   0  0  0  0  0  0  0  0  0  0  0  0
    7.7368   -4.1333   22.1046 N   0  0  0  0  0  0  0  0  0  0  0  0
    7.4990   -4.4867   21.1926 H   0  0  0  0  0  0  0  0  0  0  0  0
    8.4378   -4.9453   23.0450 C   0  0  0  0  0  0  0  0  0  0  0  0
    9.4822   -4.6853   23.2315 H   0  0  0  0  0  0  0  0  0  0  0  0
    8.0342   -6.3749   23.1470 C   0  0  0  0  0  0  0  0  0  0  0  0
    7.2200   -6.7157   22.5084 H   0  0  0  0  0  0  0  0  0  0  0  0
    8.8124   -7.1070   23.3307 H   0  0  0  0  0  0  0  0  0  0  0  0
    7.6568   -5.4124   24.2381 C   0  0  0  0  0  0  0  0  0  0  0  0
    6.6110   -5.1103   24.2543 H   0  0  0  0  0  0  0  0  0  0  0  0
    8.1683   -5.4323   25.1971 H   0  0  0  0  0  0  0  0  0  0  0  0
    5.4275    0.6837   20.1154 C   0  0  0  0  0  0  0  0  0  0  0  0
    4.9934    0.7076   21.1179 H   0  0  0  0  0  0  0  0  0  0  0  0
    4.8015    1.3404   19.0562 C   0  0  0  0  0  0  0  0  0  0  0  0
    3.8632    1.8643   19.1916 H   0  0  0  0  0  0  0  0  0  0  0  0
  1  2  1  0
  2  3  2  0
  3  4  1  0
  4  5  1  0
  4  6  2  0
  6  7  1  0
  7  8  1  0
  7  9  1  0
  7 10  1  0
 10 11  1  1
 10 12  1  0
 10 13  1  0
 13 14  2  0
 13 15  1  0
 15 16  1  0
 15 17  1  0
 17 18  1  0
 17 19  1  0
 19 20  1  0
 19 21  1  0
 19 22  1  0
 22 23  1  0
 22 24  1  0
  6 25  1  0
 25 26  1  0
 25 27  2  0
 27 28  1  0
 27  2  1  0
 22 17  1  0
M  END
>  <cnnaffinity>  (1) 
-4.47976

>  <filename>  (1) 
O=C(NC1CC1)[C@H](F)Cc1cccnc1

$$$$
