
     RDKit          3D

 28 29  0  0  0  0  0  0  0  0999 V2000
   11.8975   -4.5794   24.6773 H   0  0  0  0  0  0  0  0  0  0  0  0
   11.3208   -5.1759   25.1970 O   0  0  0  0  0  0  0  0  0  0  0  0
   10.1406   -4.4623   25.4509 N   0  0  0  0  0  0  0  0  0  0  0  0
    9.5340   -5.0294   26.0238 H   0  0  0  0  0  0  0  0  0  0  0  0
    9.5897   -3.6051   24.5272 C   0  0  0  0  0  0  0  0  0  0  0  0
   10.2869   -3.0404   23.6893 O   0  0  0  0  0  0  0  0  0  0  0  0
    8.1293   -3.4302   24.7146 C   0  0  0  0  0  0  0  0  0  0  0  0
    7.7386   -3.9012   25.6116 H   0  0  0  0  0  0  0  0  0  0  0  0
    7.2440   -2.7795   23.9247 C   0  0  0  0  0  0  0  0  0  0  0  0
    6.1875   -2.9060   24.1696 H   0  0  0  0  0  0  0  0  0  0  0  0
    7.4408   -1.9143   22.7653 C   0  0  0  0  0  0  0  0  0  0  0  0
    6.5303   -1.4658   21.8560 C   0  0  0  0  0  0  0  0  0  0  0  0
    5.4986   -1.7415   21.7055 H   0  0  0  0  0  0  0  0  0  0  0  0
    7.1549   -0.5380   21.0280 N   0  0  0  0  0  0  0  0  0  0  0  0
    6.5267    0.1015   19.9076 C   0  0  0  0  0  0  0  0  0  0  0  0
    7.0899    0.0424   18.6131 C   0  0  0  0  0  0  0  0  0  0  0  0
    8.0185   -0.4992   18.4490 H   0  0  0  0  0  0  0  0  0  0  0  0
    6.5434    0.6242   17.5392 N   0  0  0  0  0  0  0  0  0  0  0  0
    5.4051    1.3123   17.7184 C   0  0  0  0  0  0  0  0  0  0  0  0
    4.9860    1.7830   16.8323 H   0  0  0  0  0  0  0  0  0  0  0  0
    4.7632    1.4217   18.9572 C   0  0  0  0  0  0  0  0  0  0  0  0
    3.8446    1.9926   19.0324 H   0  0  0  0  0  0  0  0  0  0  0  0
    5.3252    0.8008   20.0780 C   0  0  0  0  0  0  0  0  0  0  0  0
    4.8659    0.8694   21.0686 H   0  0  0  0  0  0  0  0  0  0  0  0
    8.4741   -0.3863   21.4254 C   0  0  0  0  0  0  0  0  0  0  0  0
    9.6922    0.5870   20.8490 S   0  0  0  0  0  0  0  0  0  0  0  0
    8.6146   -1.2569   22.4523 N   0  0  0  0  0  0  0  0  0  0  0  0
    9.5227   -1.5152   22.8125 H   0  0  0  0  0  0  0  0  0  0  0  0
  1  2  1  0
  2  3  1  0
  3  4  1  0
  3  5  1  0
  5  6  2  0
  5  7  1  0
  7  8  1  0
  7  9  2  3
  9 10  1  0
  9 11  1  0
 11 12  2  0
 12 13  1  0
 12 14  1  0
 14 15  1  0
 15 16  2  0
 16 17  1  0
 16 18  1  0
 18 19  2  0
 19 20  1  0
 19 21  1  0
 21 22  1  0
 21 23  2  0
 23 24  1  0
 14 25  1  0
 25 26  2  0
 25 27  1  0
 27 28  1  0
 27 11  1  0
 23 15  1  0
M  END
>  <cnnaffinity>  (1) 
-5.05216

>  <filename>  (1) 
O=C(C=Cc1cn(-c2cccnc2)c(=S)[nH]1)NO

$$$$
