
     RDKit          3D

 37 39  0  0  0  0  0  0  0  0999 V2000
    7.8424   -4.5399   22.2891 O   0  0  0  0  0  0  0  0  0  0  0  0
    8.0477   -3.3955   22.6363 C   0  0  0  0  0  0  0  0  0  0  0  0
    8.9035   -2.4246   21.7745 C   0  0  0  0  0  0  0  0  0  0  0  0
    8.2093   -1.6098   20.7643 N   0  0  0  0  0  0  0  0  0  0  0  0
    7.3870   -0.5726   21.1033 C   0  0  0  0  0  0  0  0  0  0  0  0
    7.2455   -0.2283   22.2699 O   0  0  0  0  0  0  0  0  0  0  0  0
    6.6666    0.0651   19.9700 C   0  0  0  0  0  0  0  0  0  0  0  0
    5.4425    0.7270   20.1582 C   0  0  0  0  0  0  0  0  0  0  0  0
    4.8362    1.3079   19.0463 C   0  0  0  0  0  0  0  0  0  0  0  0
    5.4793    1.2349   17.8061 C   0  0  0  0  0  0  0  0  0  0  0  0
    6.6578    0.6222   17.6223 N   0  0  0  0  0  0  0  0  0  0  0  0
    7.2239    0.0536   18.6880 C   0  0  0  0  0  0  0  0  0  0  0  0
    8.1903   -0.4159   18.5018 H   0  0  0  0  0  0  0  0  0  0  0  0
    5.0352    1.6866   16.9221 H   0  0  0  0  0  0  0  0  0  0  0  0
    3.8907    1.8332   19.1241 H   0  0  0  0  0  0  0  0  0  0  0  0
    4.9859    0.7918   21.1486 H   0  0  0  0  0  0  0  0  0  0  0  0
    8.0439   -2.0194   19.8578 H   0  0  0  0  0  0  0  0  0  0  0  0
    9.4347   -1.7533   22.4540 H   0  0  0  0  0  0  0  0  0  0  0  0
    9.6491   -3.0268   21.2595 H   0  0  0  0  0  0  0  0  0  0  0  0
    7.5963   -2.8361   23.8217 N   0  0  0  0  0  0  0  0  0  0  0  0
    6.5432   -3.4650   24.5488 C   0  0  0  0  0  0  0  0  0  0  0  0
    5.2943   -3.5197   23.9732 C   0  0  0  0  0  0  0  0  0  0  0  0
    4.1634   -3.9606   24.7085 C   0  0  0  0  0  0  0  0  0  0  0  0
    4.3110   -4.3874   26.0079 C   0  0  0  0  0  0  0  0  0  0  0  0
    5.6018   -4.4373   26.6029 C   0  0  0  0  0  0  0  0  0  0  0  0
    5.8245   -4.9758   27.8983 C   0  0  0  0  0  0  0  0  0  0  0  0
    7.0973   -5.0210   28.3978 C   0  0  0  0  0  0  0  0  0  0  0  0
    8.1852   -4.5312   27.7481 N   0  0  0  0  0  0  0  0  0  0  0  0
    8.0003   -4.0111   26.5460 C   0  0  0  0  0  0  0  0  0  0  0  0
    6.7431   -3.9553   25.8795 C   0  0  0  0  0  0  0  0  0  0  0  0
    8.8806   -3.5925   26.0636 H   0  0  0  0  0  0  0  0  0  0  0  0
    7.2850   -5.4181   29.3950 H   0  0  0  0  0  0  0  0  0  0  0  0
    4.9951   -5.3722   28.4730 H   0  0  0  0  0  0  0  0  0  0  0  0
    3.4552   -4.7020   26.5982 H   0  0  0  0  0  0  0  0  0  0  0  0
    3.1847   -3.9498   24.2363 H   0  0  0  0  0  0  0  0  0  0  0  0
    5.1913   -3.2142   22.9359 H   0  0  0  0  0  0  0  0  0  0  0  0
    7.4819   -1.8285   23.7286 H   0  0  0  0  0  0  0  0  0  0  0  0
  1  2  2  0
  2  3  1  0
  3  4  1  0
  4  5  1  0
  5  6  2  0
  5  7  1  0
  7  8  2  0
  8  9  1  0
  9 10  2  0
 10 11  1  0
 11 12  2  0
 12 13  1  0
 10 14  1  0
  9 15  1  0
  8 16  1  0
  4 17  1  0
  3 18  1  0
  3 19  1  0
  2 20  1  0
 20 21  1  0
 21 22  2  0
 22 23  1  0
 23 24  2  0
 24 25  1  0
 25 26  2  0
 26 27  1  0
 27 28  2  0
 28 29  1  0
 29 30  2  0
 29 31  1  0
 27 32  1  0
 26 33  1  0
 24 34  1  0
 23 35  1  0
 22 36  1  0
 20 37  1  0
 12  7  1  0
 30 21  1  0
 30 25  1  0
M  END
>  <cnnaffinity>  (1) 
-5.17337

>  <filename>  (1) 
O=C(CNC(=O)c1cccnc1)Nc1cccc2ccncc12

$$$$
