
     RDKit          3D

 36 39  0  0  0  0  0  0  0  0999 V2000
    4.9987    1.8316   17.0446 H   0  0  0  0  0  0  0  0  0  0  0  0
    5.5116    1.3007   17.8418 C   0  0  0  0  0  0  0  0  0  0  0  0
    6.6730    0.7094   17.5156 N   0  0  0  0  0  0  0  0  0  0  0  0
    7.3200    0.0340   18.4747 C   0  0  0  0  0  0  0  0  0  0  0  0
    8.2588   -0.4360   18.1809 H   0  0  0  0  0  0  0  0  0  0  0  0
    6.8332   -0.1099   19.7878 C   0  0  0  0  0  0  0  0  0  0  0  0
    7.5113   -0.9225   20.7360 N   0  0  0  0  0  0  0  0  0  0  0  0
    8.8582   -0.8769   21.0931 C   0  0  0  0  0  0  0  0  0  0  0  0
    9.5226   -0.1810   20.6143 H   0  0  0  0  0  0  0  0  0  0  0  0
    9.0828   -1.7240   22.1333 C   0  0  0  0  0  0  0  0  0  0  0  0
    9.9558   -1.9650   22.7090 H   0  0  0  0  0  0  0  0  0  0  0  0
    7.8717   -2.3097   22.4225 N   0  0  0  0  0  0  0  0  0  0  0  0
    7.4025   -3.1622   23.3759 N   0  0  0  0  0  0  0  0  0  0  0  0
    6.1227   -3.2419   23.0408 C   0  0  0  0  0  0  0  0  0  0  0  0
    5.2424   -3.9788   23.8258 N   0  0  0  0  0  0  0  0  0  0  0  0
    5.5898   -4.2937   24.7093 H   0  0  0  0  0  0  0  0  0  0  0  0
    4.0899   -4.4827   23.2874 C   0  0  0  0  0  0  0  0  0  0  0  0
    3.9559   -4.5592   22.0794 O   0  0  0  0  0  0  0  0  0  0  0  0
    2.9671   -4.9318   24.1906 C   0  0  0  0  0  0  0  0  0  0  0  0
    2.9531   -4.8353   25.5909 C   0  0  0  0  0  0  0  0  0  0  0  0
    3.7678   -4.3536   26.1295 H   0  0  0  0  0  0  0  0  0  0  0  0
    1.8612   -5.3341   26.3109 C   0  0  0  0  0  0  0  0  0  0  0  0
    1.8681   -5.2704   27.3937 H   0  0  0  0  0  0  0  0  0  0  0  0
    0.7714   -5.9072   25.6491 C   0  0  0  0  0  0  0  0  0  0  0  0
   -0.0561   -6.3163   26.2215 H   0  0  0  0  0  0  0  0  0  0  0  0
    0.7596   -5.9590   24.2533 C   0  0  0  0  0  0  0  0  0  0  0  0
   -0.0933   -6.3742   23.7279 H   0  0  0  0  0  0  0  0  0  0  0  0
    1.8409   -5.4732   23.5313 C   0  0  0  0  0  0  0  0  0  0  0  0
    1.8327   -5.5037   22.4427 H   0  0  0  0  0  0  0  0  0  0  0  0
    5.7476   -2.4954   21.9130 C   0  0  0  0  0  0  0  0  0  0  0  0
    4.7619   -2.5288   21.5184 H   0  0  0  0  0  0  0  0  0  0  0  0
    6.9157   -1.8484   21.5789 C   0  0  0  0  0  0  0  0  0  0  0  0
    5.6390    0.5506   20.1265 C   0  0  0  0  0  0  0  0  0  0  0  0
    5.2726    0.5190   21.1539 H   0  0  0  0  0  0  0  0  0  0  0  0
    4.9649    1.2597   19.1297 C   0  0  0  0  0  0  0  0  0  0  0  0
    4.0417    1.7913   19.3445 H   0  0  0  0  0  0  0  0  0  0  0  0
  1  2  1  0
  2  3  2  0
  3  4  1  0
  4  5  1  0
  4  6  2  0
  6  7  1  0
  7  8  1  0
  8  9  1  0
  8 10  2  0
 10 11  1  0
 10 12  1  0
 12 13  1  0
 13 14  2  0
 14 15  1  0
 15 16  1  0
 15 17  1  0
 17 18  2  0
 17 19  1  0
 19 20  2  0
 20 21  1  0
 20 22  1  0
 22 23  1  0
 22 24  2  0
 24 25  1  0
 24 26  1  0
 26 27  1  0
 26 28  2  0
 28 29  1  0
 14 30  1  0
 30 31  1  0
 30 32  2  0
  6 33  1  0
 33 34  1  0
 33 35  2  0
 35 36  1  0
 35  2  1  0
 32  7  1  0
 32 12  1  0
 28 19  1  0
M  END
>  <cnnaffinity>  (1) 
-5.56645

>  <filename>  (1) 
O=C(Nc1cc2n(-c3cccnc3)ccn2n1)c1ccccc1

$$$$
