
     RDKit          3D

 34 36  0  0  0  0  0  0  0  0999 V2000
    5.9174   -2.3081   21.3824 O   0  0  0  0  0  0  0  0  0  0  0  0
    6.8252   -1.5908   21.7478 C   0  0  0  0  0  0  0  0  0  0  0  0
    7.5441   -1.7831   23.1235 C   0  0  0  0  0  0  0  0  0  0  0  0
    7.2267   -0.8954   24.2561 N   0  0  0  0  0  0  0  0  0  0  0  0
    7.6663    0.3846   24.3511 C   0  0  0  0  0  0  0  0  0  0  0  0
    8.2967    0.9098   23.4374 O   0  0  0  0  0  0  0  0  0  0  0  0
    7.3150    1.1069   25.6074 C   0  0  0  0  0  0  0  0  0  0  0  0
    7.2820    2.5266   25.4908 C   0  0  0  0  0  0  0  0  0  0  0  0
    7.0117    3.3640   26.4793 N   0  0  0  0  0  0  0  0  0  0  0  0
    6.7690    2.7834   27.6897 C   0  0  0  0  0  0  0  0  0  0  0  0
    6.4433    3.3297   28.9675 C   0  0  0  0  0  0  0  0  0  0  0  0
    6.3070    2.3826   29.8731 N   0  0  0  0  0  0  0  0  0  0  0  0
    6.5269    1.2116   29.2366 N   0  0  0  0  0  0  0  0  0  0  0  0
    6.8131    1.3783   27.9127 C   0  0  0  0  0  0  0  0  0  0  0  0
    7.0929    0.5011   26.8512 C   0  0  0  0  0  0  0  0  0  0  0  0
    7.1786   -0.5733   27.0135 H   0  0  0  0  0  0  0  0  0  0  0  0
    6.4766    0.3529   29.7665 H   0  0  0  0  0  0  0  0  0  0  0  0
    6.3055    4.3665   29.2457 H   0  0  0  0  0  0  0  0  0  0  0  0
    7.5001    2.9788   24.5265 H   0  0  0  0  0  0  0  0  0  0  0  0
    6.5276   -1.1623   24.9318 H   0  0  0  0  0  0  0  0  0  0  0  0
    8.6225   -1.7018   22.9378 H   0  0  0  0  0  0  0  0  0  0  0  0
    7.3187   -2.8071   23.4179 H   0  0  0  0  0  0  0  0  0  0  0  0
    7.3918   -0.5976   20.9654 N   0  0  0  0  0  0  0  0  0  0  0  0
    6.7002   -0.0221   19.8485 C   0  0  0  0  0  0  0  0  0  0  0  0
    5.4679    0.5933   20.0788 C   0  0  0  0  0  0  0  0  0  0  0  0
    4.8568    1.2797   19.0263 C   0  0  0  0  0  0  0  0  0  0  0  0
    5.4755    1.2903   17.7719 C   0  0  0  0  0  0  0  0  0  0  0  0
    6.6342    0.6556   17.5186 N   0  0  0  0  0  0  0  0  0  0  0  0
    7.2333    0.0238   18.5403 C   0  0  0  0  0  0  0  0  0  0  0  0
    8.1857   -0.4631   18.3326 H   0  0  0  0  0  0  0  0  0  0  0  0
    5.0279    1.8396   16.9457 H   0  0  0  0  0  0  0  0  0  0  0  0
    3.9298    1.8155   19.1823 H   0  0  0  0  0  0  0  0  0  0  0  0
    5.0266    0.5345   21.0752 H   0  0  0  0  0  0  0  0  0  0  0  0
    7.8912    0.0864   21.5337 H   0  0  0  0  0  0  0  0  0  0  0  0
  1  2  2  0
  2  3  1  0
  3  4  1  0
  4  5  1  0
  5  6  2  0
  5  7  1  0
  7  8  2  0
  8  9  1  0
  9 10  2  0
 10 11  1  0
 11 12  2  0
 12 13  1  0
 13 14  1  0
 14 15  2  0
 15 16  1  0
 13 17  1  0
 11 18  1  0
  8 19  1  0
  4 20  1  0
  3 21  1  0
  3 22  1  0
  2 23  1  0
 23 24  1  0
 24 25  2  0
 25 26  1  0
 26 27  2  0
 27 28  1  0
 28 29  2  0
 29 30  1  0
 27 31  1  0
 26 32  1  0
 25 33  1  0
 23 34  1  0
 15  7  1  0
 29 24  1  0
 14 10  1  0
M  END
>  <cnnaffinity>  (1) 
-5.12853

>  <filename>  (1) 
O=C(CNC(=O)c1cnc2cn[nH]c2c1)Nc1cccnc1

$$$$
