
     RDKit          3D

 37 40  0  0  0  0  0  0  0  0999 V2000
    5.1437    1.7950   16.9862 H   0  0  0  0  0  0  0  0  0  0  0  0
    5.4877    1.2692   17.8738 C   0  0  0  0  0  0  0  0  0  0  0  0
    6.6189    0.5685   17.7339 N   0  0  0  0  0  0  0  0  0  0  0  0
    7.0714   -0.0826   18.8046 C   0  0  0  0  0  0  0  0  0  0  0  0
    8.0095   -0.6129   18.6544 H   0  0  0  0  0  0  0  0  0  0  0  0
    6.4448   -0.0766   20.0588 C   0  0  0  0  0  0  0  0  0  0  0  0
    7.0528   -0.8279   21.1907 C   0  0  0  0  0  0  0  0  0  0  0  0
    6.4102   -1.1550   22.1692 O   0  0  0  0  0  0  0  0  0  0  0  0
    8.5049   -1.2398   21.0783 C   0  0  0  0  0  0  0  0  0  0  0  0
    8.5445   -2.1983   20.5594 H   0  0  0  0  0  0  0  0  0  0  0  0
    9.5005   -0.1742   20.5534 C   0  0  0  0  0  0  0  0  0  0  0  0
    9.1074    0.8016   20.2364 H   0  0  0  0  0  0  0  0  0  0  0  0
   10.1346   -0.5513   19.7461 H   0  0  0  0  0  0  0  0  0  0  0  0
   10.0911   -0.1515   21.8670 N   0  0  0  0  0  0  0  0  0  0  0  0
   11.0990    0.5765   22.4634 C   0  0  0  0  0  0  0  0  0  0  0  0
   11.5285    0.0946   23.6999 C   0  0  0  0  0  0  0  0  0  0  0  0
   11.0264   -0.7669   24.1208 H   0  0  0  0  0  0  0  0  0  0  0  0
   12.5860    0.6782   24.4176 C   0  0  0  0  0  0  0  0  0  0  0  0
   12.9085    0.2376   25.3579 H   0  0  0  0  0  0  0  0  0  0  0  0
   13.1902    1.8022   23.9221 C   0  0  0  0  0  0  0  0  0  0  0  0
   14.0092    2.2739   24.4164 H   0  0  0  0  0  0  0  0  0  0  0  0
   12.7654    2.4020   22.7160 C   0  0  0  0  0  0  0  0  0  0  0  0
   13.3599    3.6239   22.2765 C   0  0  0  0  0  0  0  0  0  0  0  0
   14.1435    4.0865   22.8790 H   0  0  0  0  0  0  0  0  0  0  0  0
   12.9540    4.1600   21.0842 C   0  0  0  0  0  0  0  0  0  0  0  0
   13.3566    5.0902   20.7035 H   0  0  0  0  0  0  0  0  0  0  0  0
   12.0085    3.4374   20.3121 C   0  0  0  0  0  0  0  0  0  0  0  0
   11.7235    3.8302   19.3394 H   0  0  0  0  0  0  0  0  0  0  0  0
   11.4087    2.3248   20.6832 N   0  0  0  0  0  0  0  0  0  0  0  0
   11.7414    1.7893   21.9126 C   0  0  0  0  0  0  0  0  0  0  0  0
    9.3105   -1.2579   22.3947 C   0  0  0  0  0  0  0  0  0  0  0  0
    8.7715   -1.0532   23.3238 H   0  0  0  0  0  0  0  0  0  0  0  0
    9.9123   -2.1652   22.5350 H   0  0  0  0  0  0  0  0  0  0  0  0
    5.2448    0.6416   20.1887 C   0  0  0  0  0  0  0  0  0  0  0  0
    4.7074    0.6622   21.1390 H   0  0  0  0  0  0  0  0  0  0  0  0
    4.7709    1.3314   19.0744 C   0  0  0  0  0  0  0  0  0  0  0  0
    3.8601    1.9159   19.1132 H   0  0  0  0  0  0  0  0  0  0  0  0
  1  2  1  0
  2  3  2  0
  3  4  1  0
  4  5  1  0
  4  6  2  0
  6  7  1  0
  7  8  2  0
  7  9  1  0
  9 10  1  0
  9 11  1  0
 11 12  1  0
 11 13  1  0
 11 14  1  0
 14 15  1  0
 15 16  2  0
 16 17  1  0
 16 18  1  0
 18 19  1  0
 18 20  2  0
 20 21  1  0
 20 22  1  0
 22 23  2  0
 23 24  1  0
 23 25  1  0
 25 26  1  0
 25 27  2  0
 27 28  1  0
 27 29  1  0
 29 30  2  0
 14 31  1  0
 31 32  1  0
 31 33  1  0
  6 34  1  0
 34 35  1  0
 34 36  2  0
 36 37  1  0
 36  2  1  0
 31  9  1  0
 30 15  1  0
 30 22  1  0
M  END
>  <cnnaffinity>  (1) 
-5.6112

>  <filename>  (1) 
O=C(c1cccnc1)C1CN(c2cccc3cccnc23)C1

$$$$
