
     RDKit          3D

 33 35  0  0  0  0  0  0  0  0999 V2000
    6.7915   -1.2262   21.9828 O   0  0  0  0  0  0  0  0  0  0  0  0
    7.3880   -0.7224   21.0592 C   0  0  0  0  0  0  0  0  0  0  0  0
    8.7471   -0.7359   21.0417 N   0  0  0  0  0  0  0  0  0  0  0  0
    9.5254   -1.6582   22.1518 S   0  0  0  0  0  0  0  0  0  0  0  0
   10.8894   -1.2778   21.8258 O   0  0  0  0  0  0  0  0  0  0  0  0
    9.0374   -3.0156   22.0474 O   0  0  0  0  0  0  0  0  0  0  0  0
    9.0733   -1.0562   23.7395 C   0  0  0  0  0  0  0  0  0  0  0  0
    8.5492   -1.9428   24.6710 C   0  0  0  0  0  0  0  0  0  0  0  0
    8.2066   -1.4925   25.9696 C   0  0  0  0  0  0  0  0  0  0  0  0
    8.4078   -0.1848   26.3405 C   0  0  0  0  0  0  0  0  0  0  0  0
    8.9871    0.7292   25.4077 C   0  0  0  0  0  0  0  0  0  0  0  0
    9.2310    2.0992   25.7406 C   0  0  0  0  0  0  0  0  0  0  0  0
    9.7867    2.9708   24.9298 N   0  0  0  0  0  0  0  0  0  0  0  0
   10.1623    2.5299   23.6972 C   0  0  0  0  0  0  0  0  0  0  0  0
    9.9893    1.2398   23.2526 C   0  0  0  0  0  0  0  0  0  0  0  0
    9.3581    0.2973   24.0997 C   0  0  0  0  0  0  0  0  0  0  0  0
   10.3820    0.9479   22.2912 H   0  0  0  0  0  0  0  0  0  0  0  0
   10.6297    3.2746   23.0617 H   0  0  0  0  0  0  0  0  0  0  0  0
    8.9406    2.4592   26.7304 H   0  0  0  0  0  0  0  0  0  0  0  0
    8.1396    0.1717   27.3377 H   0  0  0  0  0  0  0  0  0  0  0  0
    7.7720   -2.1965   26.6779 H   0  0  0  0  0  0  0  0  0  0  0  0
    8.3852   -2.9922   24.4287 H   0  0  0  0  0  0  0  0  0  0  0  0
    9.4062   -0.3577   20.3935 H   0  0  0  0  0  0  0  0  0  0  0  0
    6.7203   -0.0037   19.9580 C   0  0  0  0  0  0  0  0  0  0  0  0
    5.4847    0.6284   20.2027 C   0  0  0  0  0  0  0  0  0  0  0  0
    4.8621    1.2799   19.1463 C   0  0  0  0  0  0  0  0  0  0  0  0
    5.4763    1.2541   17.8883 C   0  0  0  0  0  0  0  0  0  0  0  0
    6.6389    0.6357   17.6407 N   0  0  0  0  0  0  0  0  0  0  0  0
    7.2464    0.0262   18.6651 C   0  0  0  0  0  0  0  0  0  0  0  0
    8.1819   -0.4662   18.3959 H   0  0  0  0  0  0  0  0  0  0  0  0
    5.0001    1.7387   17.0403 H   0  0  0  0  0  0  0  0  0  0  0  0
    3.9197    1.7995   19.2809 H   0  0  0  0  0  0  0  0  0  0  0  0
    5.0373    0.6034   21.1998 H   0  0  0  0  0  0  0  0  0  0  0  0
  1  2  2  0
  2  3  1  0
  3  4  1  0
  4  5  2  0
  4  6  2  0
  4  7  1  0
  7  8  2  0
  8  9  1  0
  9 10  2  0
 10 11  1  0
 11 12  2  0
 12 13  1  0
 13 14  2  0
 14 15  1  0
 15 16  2  0
 15 17  1  0
 14 18  1  0
 12 19  1  0
 10 20  1  0
  9 21  1  0
  8 22  1  0
  3 23  1  0
  2 24  1  0
 24 25  2  0
 25 26  1  0
 26 27  2  0
 27 28  1  0
 28 29  2  0
 29 30  1  0
 27 31  1  0
 26 32  1  0
 25 33  1  0
 16  7  1  0
 29 24  1  0
 16 11  1  0
M  END
>  <cnnaffinity>  (1) 
-5.49155

>  <filename>  (1) 
O=C(NS(=O)(=O)c1cccc2cnccc12)c1cccnc1

$$$$
