
     RDKit          3D

 40 41  0  0  0  0  0  0  0  0999 V2000
    8.8987    0.2758   21.3128 H   0  0  0  0  0  0  0  0  0  0  0  0
    8.6536   -0.6112   20.9975 O   0  0  0  0  0  0  0  0  0  0  0  0
    7.2478   -0.6226   21.0646 N   0  0  0  0  0  0  0  0  0  0  0  0
    6.6245   -1.6877   21.7859 C   0  0  0  0  0  0  0  0  0  0  0  0
    5.4988   -2.0631   21.5304 O   0  0  0  0  0  0  0  0  0  0  0  0
    7.4028   -2.1598   22.8378 N   0  0  0  0  0  0  0  0  0  0  0  0
    8.3946   -2.1336   22.6501 H   0  0  0  0  0  0  0  0  0  0  0  0
    6.9686   -3.1094   23.7799 N   0  0  0  0  0  0  0  0  0  0  0  0
    6.3234   -2.7134   24.4521 H   0  0  0  0  0  0  0  0  0  0  0  0
    6.5530   -4.4062   23.4054 C   0  0  0  0  0  0  0  0  0  0  0  0
    6.8520   -4.9612   22.3691 O   0  0  0  0  0  0  0  0  0  0  0  0
    5.8015   -4.9845   24.3970 N   0  0  0  0  0  0  0  0  0  0  0  0
    5.4750   -4.3712   25.1229 H   0  0  0  0  0  0  0  0  0  0  0  0
    4.9706   -6.1405   24.0958 C   0  0  0  0  0  0  0  0  0  0  0  0
    5.5895   -6.8226   23.4986 H   0  0  0  0  0  0  0  0  0  0  0  0
    4.5446   -6.8355   25.4027 C   0  0  0  0  0  0  0  0  0  0  0  0
    5.4260   -7.3301   25.8211 H   0  0  0  0  0  0  0  0  0  0  0  0
    4.2620   -6.0543   26.1201 H   0  0  0  0  0  0  0  0  0  0  0  0
    3.3605   -7.8270   25.2212 C   0  0  0  0  0  0  0  0  0  0  0  0
    2.4416   -7.3684   25.6066 H   0  0  0  0  0  0  0  0  0  0  0  0
    3.5168   -8.7195   25.8349 H   0  0  0  0  0  0  0  0  0  0  0  0
    3.1874   -8.2036   23.7419 C   0  0  0  0  0  0  0  0  0  0  0  0
    2.4574   -9.0062   23.5954 H   0  0  0  0  0  0  0  0  0  0  0  0
    4.1534   -8.5817   23.4005 H   0  0  0  0  0  0  0  0  0  0  0  0
    2.8824   -6.9837   22.8514 C   0  0  0  0  0  0  0  0  0  0  0  0
    3.0876   -7.2561   21.8076 H   0  0  0  0  0  0  0  0  0  0  0  0
    1.8179   -6.7238   22.9077 H   0  0  0  0  0  0  0  0  0  0  0  0
    3.7302   -5.7537   23.2656 C   0  0  0  0  0  0  0  0  0  0  0  0
    4.0380   -5.1609   22.3943 H   0  0  0  0  0  0  0  0  0  0  0  0
    3.1198   -5.0932   23.8937 H   0  0  0  0  0  0  0  0  0  0  0  0
    6.6258    0.0209   19.9538 C   0  0  0  0  0  0  0  0  0  0  0  0
    7.2732    0.0832   18.7028 C   0  0  0  0  0  0  0  0  0  0  0  0
    8.2502   -0.3800   18.5837 H   0  0  0  0  0  0  0  0  0  0  0  0
    6.7500    0.6886   17.6336 N   0  0  0  0  0  0  0  0  0  0  0  0
    5.5582    1.2928   17.7749 C   0  0  0  0  0  0  0  0  0  0  0  0
    5.1631    1.7913   16.8897 H   0  0  0  0  0  0  0  0  0  0  0  0
    4.8533    1.3108   18.9836 C   0  0  0  0  0  0  0  0  0  0  0  0
    3.9101    1.8402   19.0375 H   0  0  0  0  0  0  0  0  0  0  0  0
    5.3783    0.6478   20.0973 C   0  0  0  0  0  0  0  0  0  0  0  0
    4.8616    0.6343   21.0576 H   0  0  0  0  0  0  0  0  0  0  0  0
  1  2  1  0
  2  3  1  0
  3  4  1  0
  4  5  2  0
  4  6  1  0
  6  7  1  0
  6  8  1  0
  8  9  1  0
  8 10  1  0
 10 11  2  0
 10 12  1  0
 12 13  1  0
 12 14  1  0
 14 15  1  0
 14 16  1  0
 16 17  1  0
 16 18  1  0
 16 19  1  0
 19 20  1  0
 19 21  1  0
 19 22  1  0
 22 23  1  0
 22 24  1  0
 22 25  1  0
 25 26  1  0
 25 27  1  0
 25 28  1  0
 28 29  1  0
 28 30  1  0
  3 31  1  0
 31 32  2  0
 32 33  1  0
 32 34  1  0
 34 35  2  0
 35 36  1  0
 35 37  1  0
 37 38  1  0
 37 39  2  0
 39 40  1  0
 28 14  1  0
 39 31  1  0
M  END
>  <cnnaffinity>  (1) 
-4.97463

>  <filename>  (1) 
O=C(NNC(=O)N(O)c1cccnc1)NC1CCCCC1

$$$$
