
     RDKit          3D

 31 33  0  0  0  0  0  0  0  0999 V2000
    4.9136    1.7775   16.9995 H   0  0  0  0  0  0  0  0  0  0  0  0
    5.4019    1.2936   17.8426 C   0  0  0  0  0  0  0  0  0  0  0  0
    6.5641    0.6741   17.5812 N   0  0  0  0  0  0  0  0  0  0  0  0
    7.1734    0.0528   18.5969 C   0  0  0  0  0  0  0  0  0  0  0  0
    8.1241   -0.4269   18.3822 H   0  0  0  0  0  0  0  0  0  0  0  0
    6.6447   -0.0062   19.8976 C   0  0  0  0  0  0  0  0  0  0  0  0
    7.3342   -0.7073   20.9474 N   0  0  0  0  0  0  0  0  0  0  0  0
    6.5792   -1.5904   21.6525 N   0  0  0  0  0  0  0  0  0  0  0  0
    7.1501   -2.2770   22.6171 C   0  0  0  0  0  0  0  0  0  0  0  0
    6.2552   -3.3020   23.3046 C   0  0  0  0  0  0  0  0  0  0  0  0
    5.3271   -3.8340   22.7303 O   0  0  0  0  0  0  0  0  0  0  0  0
    6.5840   -3.6907   24.7424 C   0  0  0  0  0  0  0  0  0  0  0  0
    6.3262   -5.0048   25.1729 C   0  0  0  0  0  0  0  0  0  0  0  0
    5.9356   -5.7460   24.4830 H   0  0  0  0  0  0  0  0  0  0  0  0
    6.5592   -5.3466   26.5074 C   0  0  0  0  0  0  0  0  0  0  0  0
    6.3561   -6.3622   26.8420 H   0  0  0  0  0  0  0  0  0  0  0  0
    7.0181   -4.4854   27.4298 N   0  0  0  0  0  0  0  0  0  0  0  0
    7.2549   -3.2334   27.0178 C   0  0  0  0  0  0  0  0  0  0  0  0
    7.6304   -2.5310   27.7544 H   0  0  0  0  0  0  0  0  0  0  0  0
    7.0568   -2.7853   25.7063 C   0  0  0  0  0  0  0  0  0  0  0  0
    7.2536   -1.7451   25.4638 H   0  0  0  0  0  0  0  0  0  0  0  0
    8.5432   -2.1204   22.9576 C   0  0  0  0  0  0  0  0  0  0  0  0
    8.9999   -2.7182   23.7486 H   0  0  0  0  0  0  0  0  0  0  0  0
    9.2869   -1.2085   22.2738 C   0  0  0  0  0  0  0  0  0  0  0  0
   10.3313   -1.0045   22.4686 H   0  0  0  0  0  0  0  0  0  0  0  0
    8.7218   -0.3973   21.2077 C   0  0  0  0  0  0  0  0  0  0  0  0
    9.3303    0.4460   20.5706 O   0  0  0  0  0  0  0  0  0  0  0  0
    5.4368    0.6452   20.1640 C   0  0  0  0  0  0  0  0  0  0  0  0
    5.0168    0.6087   21.1702 H   0  0  0  0  0  0  0  0  0  0  0  0
    4.8082    1.3167   19.1114 C   0  0  0  0  0  0  0  0  0  0  0  0
    3.8729    1.8463   19.2641 H   0  0  0  0  0  0  0  0  0  0  0  0
  1  2  1  0
  2  3  2  0
  3  4  1  0
  4  5  1  0
  4  6  2  0
  6  7  1  0
  7  8  1  0
  8  9  2  0
  9 10  1  0
 10 11  2  0
 10 12  1  0
 12 13  2  0
 13 14  1  0
 13 15  1  0
 15 16  1  0
 15 17  2  0
 17 18  1  0
 18 19  1  0
 18 20  2  0
 20 21  1  0
  9 22  1  0
 22 23  1  0
 22 24  2  0
 24 25  1  0
 24 26  1  0
 26 27  2  0
  6 28  1  0
 28 29  1  0
 28 30  2  0
 30 31  1  0
 30  2  1  0
 26  7  1  0
 20 12  1  0
M  END
>  <cnnaffinity>  (1) 
-5.27709

>  <filename>  (1) 
O=C(c1ccncc1)c1ccc(=O)n(-c2cccnc2)n1

$$$$
