
     RDKit          3D

 31 33  0  0  0  0  0  0  0  0999 V2000
    5.0273    1.7958   16.9701 H   0  0  0  0  0  0  0  0  0  0  0  0
    5.4368    1.2922   17.8444 C   0  0  0  0  0  0  0  0  0  0  0  0
    6.6012    0.6487   17.6611 N   0  0  0  0  0  0  0  0  0  0  0  0
    7.1358    0.0196   18.7165 C   0  0  0  0  0  0  0  0  0  0  0  0
    8.0869   -0.4916   18.5674 H   0  0  0  0  0  0  0  0  0  0  0  0
    6.5398   -0.0010   19.9907 C   0  0  0  0  0  0  0  0  0  0  0  0
    7.1468   -0.7153   21.0879 N   0  0  0  0  0  0  0  0  0  0  0  0
    7.8478   -0.1643   22.1540 C   0  0  0  0  0  0  0  0  0  0  0  0
    7.9871    1.3306   22.4186 C   0  0  0  0  0  0  0  0  0  0  0  0
    7.8739    2.1650   21.5381 O   0  0  0  0  0  0  0  0  0  0  0  0
    8.2606    1.6236   23.7307 N   0  0  0  0  0  0  0  0  0  0  0  0
    8.3694    0.8300   24.3420 H   0  0  0  0  0  0  0  0  0  0  0  0
    8.5017    2.8907   24.2628 C   0  0  0  0  0  0  0  0  0  0  0  0
    8.1377    3.1843   25.5774 C   0  0  0  0  0  0  0  0  0  0  0  0
    7.6292    2.4733   26.2138 H   0  0  0  0  0  0  0  0  0  0  0  0
    8.4272    4.4588   26.0546 C   0  0  0  0  0  0  0  0  0  0  0  0
    8.1528    4.7429   27.0670 H   0  0  0  0  0  0  0  0  0  0  0  0
    9.0502    5.4041   25.3463 N   0  0  0  0  0  0  0  0  0  0  0  0
    9.3897    5.0902   24.0886 C   0  0  0  0  0  0  0  0  0  0  0  0
    9.8961    5.8684   23.5235 H   0  0  0  0  0  0  0  0  0  0  0  0
    9.1339    3.8626   23.4951 C   0  0  0  0  0  0  0  0  0  0  0  0
    9.4088    3.6598   22.4701 H   0  0  0  0  0  0  0  0  0  0  0  0
    8.3650   -1.1028   22.9043 N   0  0  0  0  0  0  0  0  0  0  0  0
    7.9772   -2.2489   22.3045 N   0  0  0  0  0  0  0  0  0  0  0  0
    8.1551   -3.1520   22.7097 H   0  0  0  0  0  0  0  0  0  0  0  0
    7.1534   -2.0971   21.2455 C   0  0  0  0  0  0  0  0  0  0  0  0
    6.3513   -3.2975   20.4294 S   0  0  0  0  0  0  0  0  0  0  0  0
    5.3272    0.6677   20.1687 C   0  0  0  0  0  0  0  0  0  0  0  0
    4.8491    0.6851   21.1475 H   0  0  0  0  0  0  0  0  0  0  0  0
    4.7617    1.3238   19.0677 C   0  0  0  0  0  0  0  0  0  0  0  0
    3.8304    1.8779   19.1444 H   0  0  0  0  0  0  0  0  0  0  0  0
  1  2  1  0
  2  3  2  0
  3  4  1  0
  4  5  1  0
  4  6  2  0
  6  7  1  0
  7  8  1  0
  8  9  1  0
  9 10  2  0
  9 11  1  0
 11 12  1  0
 11 13  1  0
 13 14  2  0
 14 15  1  0
 14 16  1  0
 16 17  1  0
 16 18  2  0
 18 19  1  0
 19 20  1  0
 19 21  2  0
 21 22  1  0
  8 23  2  0
 23 24  1  0
 24 25  1  0
 24 26  1  0
 26 27  2  0
  6 28  1  0
 28 29  1  0
 28 30  2  0
 30 31  1  0
 30  2  1  0
 26  7  1  0
 21 13  1  0
M  END
>  <cnnaffinity>  (1) 
-5.01347

>  <filename>  (1) 
O=C(Nc1ccncc1)c1n[nH]c(=S)n1-c1cccnc1

$$$$
