
     RDKit          3D

 34 35  0  0  0  0  0  0  0  0999 V2000
    6.6568    1.4638   22.1030 O   0  0  0  0  0  0  0  0  0  0  0  0
    7.1203    0.3498   21.8944 C   0  0  0  0  0  0  0  0  0  0  0  0
    7.4697   -0.5680   23.0845 C   0  0  0  0  0  0  0  0  0  0  0  0
    6.5185   -1.6919   23.3205 N   0  0  0  0  0  0  0  0  0  0  0  0
    6.8637   -2.9668   23.7014 C   0  0  0  0  0  0  0  0  0  0  0  0
    7.9826   -3.4126   23.5207 O   0  0  0  0  0  0  0  0  0  0  0  0
    5.8587   -3.6223   24.3752 N   0  0  0  0  0  0  0  0  0  0  0  0
    6.1512   -4.5742   25.3499 C   0  0  0  0  0  0  0  0  0  0  0  0
    5.3755   -4.7146   26.5077 C   0  0  0  0  0  0  0  0  0  0  0  0
    5.7956   -5.5528   27.5572 C   0  0  0  0  0  0  0  0  0  0  0  0
    7.0099   -6.2499   27.4524 C   0  0  0  0  0  0  0  0  0  0  0  0
    7.6065   -7.1561   28.8347 Cl  0  0  0  0  0  0  0  0  0  0  0  0
    7.7508   -6.1535   26.2579 C   0  0  0  0  0  0  0  0  0  0  0  0
    9.4566   -6.9794   26.0087 Br  0  0  0  0  0  0  0  0  0  0  0  0
    7.2974   -5.3453   25.2193 C   0  0  0  0  0  0  0  0  0  0  0  0
    7.8947   -5.2699   24.3221 H   0  0  0  0  0  0  0  0  0  0  0  0
    5.1992   -5.6305   28.4653 H   0  0  0  0  0  0  0  0  0  0  0  0
    4.4661   -4.1397   26.6236 H   0  0  0  0  0  0  0  0  0  0  0  0
    5.0796   -3.0094   24.5655 H   0  0  0  0  0  0  0  0  0  0  0  0
    5.5672   -1.4571   23.5886 H   0  0  0  0  0  0  0  0  0  0  0  0
    7.4985    0.0649   23.9788 H   0  0  0  0  0  0  0  0  0  0  0  0
    8.4860   -0.9436   22.9175 H   0  0  0  0  0  0  0  0  0  0  0  0
    7.3540   -0.0993   20.5996 N   0  0  0  0  0  0  0  0  0  0  0  0
    6.7707    0.4587   19.4437 C   0  0  0  0  0  0  0  0  0  0  0  0
    5.6793    1.3175   19.5705 C   0  0  0  0  0  0  0  0  0  0  0  0
    5.0684    1.8068   18.4166 C   0  0  0  0  0  0  0  0  0  0  0  0
    5.5544    1.4355   17.1658 C   0  0  0  0  0  0  0  0  0  0  0  0
    6.6098    0.6181   17.0242 N   0  0  0  0  0  0  0  0  0  0  0  0
    7.2100    0.1458   18.1374 C   0  0  0  0  0  0  0  0  0  0  0  0
    8.0776   -0.5010   18.0297 H   0  0  0  0  0  0  0  0  0  0  0  0
    5.0577    1.8114   16.2812 H   0  0  0  0  0  0  0  0  0  0  0  0
    4.2168    2.4729   18.4743 H   0  0  0  0  0  0  0  0  0  0  0  0
    5.3064    1.5784   20.5563 H   0  0  0  0  0  0  0  0  0  0  0  0
    7.7809   -1.0166   20.5287 H   0  0  0  0  0  0  0  0  0  0  0  0
  1  2  2  0
  2  3  1  0
  3  4  1  0
  4  5  1  0
  5  6  2  0
  5  7  1  0
  7  8  1  0
  8  9  2  0
  9 10  1  0
 10 11  2  0
 11 12  1  0
 11 13  1  0
 13 14  1  0
 13 15  2  0
 15 16  1  0
 10 17  1  0
  9 18  1  0
  7 19  1  0
  4 20  1  0
  3 21  1  0
  3 22  1  0
  2 23  1  0
 23 24  1  0
 24 25  2  0
 25 26  1  0
 26 27  2  0
 27 28  1  0
 28 29  2  0
 29 30  1  0
 27 31  1  0
 26 32  1  0
 25 33  1  0
 23 34  1  0
 15  8  1  0
 29 24  1  0
M  END
>  <cnnaffinity>  (1) 
-4.61241

>  <filename>  (1) 
O=C(CNC(=O)Nc1ccc(Cl)c(Br)c1)Nc1cccnc1

$$$$
