
     RDKit          3D

 36 38  0  0  0  0  0  0  0  0999 V2000
    5.8220   -6.5706   23.0862 O   0  0  0  0  0  0  0  0  0  0  0  0
    5.2199   -5.5180   23.0987 C   0  0  0  0  0  0  0  0  0  0  0  0
    4.6675   -4.9198   21.8457 C   0  0  0  0  0  0  0  0  0  0  0  0
    5.7119   -3.9481   21.4650 C   0  0  0  0  0  0  0  0  0  0  0  0
    6.8534   -4.3151   20.9688 N   0  0  0  0  0  0  0  0  0  0  0  0
    7.5441   -3.1341   20.8392 O   0  0  0  0  0  0  0  0  0  0  0  0
    6.7475   -2.1557   21.2614 C   0  0  0  0  0  0  0  0  0  0  0  0
    7.3093   -0.7272   21.0433 C   0  0  0  0  0  0  0  0  0  0  0  0
    8.6472   -0.8121   20.7989 F   0  0  0  0  0  0  0  0  0  0  0  0
    7.1811   -0.0223   22.2049 F   0  0  0  0  0  0  0  0  0  0  0  0
    6.6267    0.0394   19.9280 C   0  0  0  0  0  0  0  0  0  0  0  0
    5.4006    0.6787   20.1581 C   0  0  0  0  0  0  0  0  0  0  0  0
    4.7839    1.3219   19.0873 C   0  0  0  0  0  0  0  0  0  0  0  0
    5.4121    1.2972   17.8388 C   0  0  0  0  0  0  0  0  0  0  0  0
    6.5809    0.6818   17.6108 N   0  0  0  0  0  0  0  0  0  0  0  0
    7.1773    0.0754   18.6404 C   0  0  0  0  0  0  0  0  0  0  0  0
    8.1328   -0.4020   18.4273 H   0  0  0  0  0  0  0  0  0  0  0  0
    4.9520    1.7801   16.9799 H   0  0  0  0  0  0  0  0  0  0  0  0
    3.8458    1.8524   19.2081 H   0  0  0  0  0  0  0  0  0  0  0  0
    4.9560    0.6949   21.1541 H   0  0  0  0  0  0  0  0  0  0  0  0
    5.5948   -2.6032   21.6965 N   0  0  0  0  0  0  0  0  0  0  0  0
    4.5740   -5.7241   21.1221 H   0  0  0  0  0  0  0  0  0  0  0  0
    3.7146   -4.4247   22.0107 H   0  0  0  0  0  0  0  0  0  0  0  0
    5.0741   -4.7284   24.2012 N   0  0  0  0  0  0  0  0  0  0  0  0
    5.6452   -5.0047   25.4556 C   0  0  0  0  0  0  0  0  0  0  0  0
    6.9432   -5.5366   25.5283 C   0  0  0  0  0  0  0  0  0  0  0  0
    7.5208   -5.8347   26.7617 C   0  0  0  0  0  0  0  0  0  0  0  0
    6.8006   -5.6115   27.9392 C   0  0  0  0  0  0  0  0  0  0  0  0
    5.5088   -5.0783   27.8824 C   0  0  0  0  0  0  0  0  0  0  0  0
    4.9388   -4.7634   26.6462 C   0  0  0  0  0  0  0  0  0  0  0  0
    3.3275   -4.0980   26.6046 Cl  0  0  0  0  0  0  0  0  0  0  0  0
    4.9315   -4.8988   28.7852 H   0  0  0  0  0  0  0  0  0  0  0  0
    7.2445   -5.8545   28.8997 H   0  0  0  0  0  0  0  0  0  0  0  0
    8.5265   -6.2505   26.7980 H   0  0  0  0  0  0  0  0  0  0  0  0
    7.4687   -5.7172   24.5978 H   0  0  0  0  0  0  0  0  0  0  0  0
    4.5756   -3.8599   24.0839 H   0  0  0  0  0  0  0  0  0  0  0  0
  1  2  2  0
  2  3  1  0
  3  4  1  0
  4  5  2  0
  5  6  1  0
  6  7  1  0
  7  8  1  0
  8  9  1  0
  8 10  1  0
  8 11  1  0
 11 12  2  0
 12 13  1  0
 13 14  2  0
 14 15  1  0
 15 16  2  0
 16 17  1  0
 14 18  1  0
 13 19  1  0
 12 20  1  0
  7 21  2  0
  3 22  1  0
  3 23  1  0
  2 24  1  0
 24 25  1  0
 25 26  2  0
 26 27  1  0
 27 28  2  0
 28 29  1  0
 29 30  2  0
 30 31  1  0
 29 32  1  0
 28 33  1  0
 27 34  1  0
 26 35  1  0
 24 36  1  0
 21  4  1  0
 30 25  1  0
 16 11  1  0
M  END
>  <cnnaffinity>  (1) 
-5.29672

>  <filename>  (1) 
O=C(Cc1noc(C(F)(F)c2cccnc2)n1)Nc1ccccc1Cl

$$$$
