
     RDKit          3D

 28 29  0  0  0  0  0  0  0  0999 V2000
    8.8451   -4.8076   27.8100 H   0  0  0  0  0  0  0  0  0  0  0  0
    9.3914   -4.4604   27.0836 O   0  0  0  0  0  0  0  0  0  0  0  0
    8.4392   -3.7650   26.4420 C   0  0  0  0  0  0  0  0  0  0  0  0
    7.3259   -3.7420   26.9207 O   0  0  0  0  0  0  0  0  0  0  0  0
    8.8622   -3.1088   25.1787 C   0  0  0  0  0  0  0  0  0  0  0  0
   10.1604   -3.2423   24.6635 C   0  0  0  0  0  0  0  0  0  0  0  0
   10.9018   -3.8327   25.2030 H   0  0  0  0  0  0  0  0  0  0  0  0
   10.4868   -2.6002   23.4670 C   0  0  0  0  0  0  0  0  0  0  0  0
   11.4857   -2.7195   23.0616 H   0  0  0  0  0  0  0  0  0  0  0  0
    9.5437   -1.8422   22.7594 C   0  0  0  0  0  0  0  0  0  0  0  0
    9.8646   -1.3182   21.8588 H   0  0  0  0  0  0  0  0  0  0  0  0
    8.2275   -1.7789   23.2490 C   0  0  0  0  0  0  0  0  0  0  0  0
    6.8414   -1.0927   22.3723 S   0  0  0  0  0  0  0  0  0  0  0  0
    5.9483   -2.1627   21.9730 O   0  0  0  0  0  0  0  0  0  0  0  0
    6.3461    0.0659   23.0960 O   0  0  0  0  0  0  0  0  0  0  0  0
    7.5903   -0.5423   21.0086 O   0  0  0  0  0  0  0  0  0  0  0  0
    6.8053    0.0277   19.9771 C   0  0  0  0  0  0  0  0  0  0  0  0
    7.3018    0.0326   18.6554 C   0  0  0  0  0  0  0  0  0  0  0  0
    8.2398   -0.4579   18.4068 H   0  0  0  0  0  0  0  0  0  0  0  0
    6.6512    0.6144   17.6356 N   0  0  0  0  0  0  0  0  0  0  0  0
    5.4810    1.2220   17.8942 C   0  0  0  0  0  0  0  0  0  0  0  0
    4.9782    1.7079   17.0572 H   0  0  0  0  0  0  0  0  0  0  0  0
    4.9084    1.2409   19.1669 C   0  0  0  0  0  0  0  0  0  0  0  0
    3.9581    1.7336   19.3284 H   0  0  0  0  0  0  0  0  0  0  0  0
    5.5780    0.6349   20.2367 C   0  0  0  0  0  0  0  0  0  0  0  0
    5.1689    0.6395   21.2422 H   0  0  0  0  0  0  0  0  0  0  0  0
    7.8949   -2.3854   24.4690 C   0  0  0  0  0  0  0  0  0  0  0  0
    6.8917   -2.3312   24.8925 H   0  0  0  0  0  0  0  0  0  0  0  0
  1  2  1  0
  2  3  1  0
  3  4  2  0
  3  5  1  0
  5  6  2  0
  6  7  1  0
  6  8  1  0
  8  9  1  0
  8 10  2  0
 10 11  1  0
 10 12  1  0
 12 13  1  0
 13 14  2  0
 13 15  2  0
 13 16  1  0
 16 17  1  0
 17 18  2  0
 18 19  1  0
 18 20  1  0
 20 21  2  0
 21 22  1  0
 21 23  1  0
 23 24  1  0
 23 25  2  0
 25 26  1  0
 12 27  2  0
 27 28  1  0
 27  5  1  0
 25 17  1  0
M  END
>  <cnnaffinity>  (1) 
-4.27908

>  <filename>  (1) 
O=C(O)c1cccc(S(=O)(=O)Oc2cccnc2)c1

$$$$
