
     RDKit          3D

 33 35  0  0  0  0  0  0  0  0999 V2000
    8.1243   -1.6887   20.6128 O   0  0  0  0  0  0  0  0  0  0  0  0
    7.4218   -0.7400   20.9235 C   0  0  0  0  0  0  0  0  0  0  0  0
    6.6511    0.0077   19.8875 C   0  0  0  0  0  0  0  0  0  0  0  0
    5.4307    0.6504   20.1542 C   0  0  0  0  0  0  0  0  0  0  0  0
    4.8012    1.3048   19.0999 C   0  0  0  0  0  0  0  0  0  0  0  0
    5.4052    1.2898   17.8368 C   0  0  0  0  0  0  0  0  0  0  0  0
    6.5680    0.6749   17.5750 N   0  0  0  0  0  0  0  0  0  0  0  0
    7.1712    0.0492   18.5863 C   0  0  0  0  0  0  0  0  0  0  0  0
    8.1190   -0.4378   18.3733 H   0  0  0  0  0  0  0  0  0  0  0  0
    4.9261    1.7815   16.9944 H   0  0  0  0  0  0  0  0  0  0  0  0
    3.8723    1.8444   19.2514 H   0  0  0  0  0  0  0  0  0  0  0  0
    5.0026    0.6545   21.1656 H   0  0  0  0  0  0  0  0  0  0  0  0
    7.2882   -0.2607   22.3602 C   0  0  0  0  0  0  0  0  0  0  0  0
    7.1687    1.0006   22.7405 N   0  0  0  0  0  0  0  0  0  0  0  0
    7.0855    0.9766   24.0988 C   0  0  0  0  0  0  0  0  0  0  0  0
    7.1211   -0.3126   24.5515 C   0  0  0  0  0  0  0  0  0  0  0  0
    7.2497   -1.1114   23.4400 N   0  0  0  0  0  0  0  0  0  0  0  0
    7.1626   -2.5794   23.4479 C   0  0  0  0  0  0  0  0  0  0  0  0
    7.9977   -3.1805   24.5655 C   0  0  0  0  0  0  0  0  0  0  0  0
    7.4411   -3.6176   25.7855 C   0  0  0  0  0  0  0  0  0  0  0  0
    5.7243   -3.5138   26.0645 Cl  0  0  0  0  0  0  0  0  0  0  0  0
    8.2129   -4.1325   26.8300 C   0  0  0  0  0  0  0  0  0  0  0  0
    9.5934   -4.2209   26.6706 C   0  0  0  0  0  0  0  0  0  0  0  0
   10.1907   -3.7944   25.4864 C   0  0  0  0  0  0  0  0  0  0  0  0
    9.4007   -3.2698   24.4649 C   0  0  0  0  0  0  0  0  0  0  0  0
   10.2276   -2.7174   23.0387 Cl  0  0  0  0  0  0  0  0  0  0  0  0
   11.2621   -3.8508   25.3384 H   0  0  0  0  0  0  0  0  0  0  0  0
   10.2036   -4.6250   27.4705 H   0  0  0  0  0  0  0  0  0  0  0  0
    7.7250   -4.4612   27.7421 H   0  0  0  0  0  0  0  0  0  0  0  0
    7.5271   -2.9484   22.4866 H   0  0  0  0  0  0  0  0  0  0  0  0
    6.1173   -2.8835   23.5619 H   0  0  0  0  0  0  0  0  0  0  0  0
    7.0609   -0.7238   25.5479 H   0  0  0  0  0  0  0  0  0  0  0  0
    6.9878    1.8881   24.6719 H   0  0  0  0  0  0  0  0  0  0  0  0
  1  2  2  0
  2  3  1  0
  3  4  2  0
  4  5  1  0
  5  6  2  0
  6  7  1  0
  7  8  2  0
  8  9  1  0
  6 10  1  0
  5 11  1  0
  4 12  1  0
  2 13  1  0
 13 14  2  0
 14 15  1  0
 15 16  2  0
 16 17  1  0
 17 18  1  0
 18 19  1  0
 19 20  2  0
 20 21  1  0
 20 22  1  0
 22 23  2  0
 23 24  1  0
 24 25  2  0
 25 26  1  0
 24 27  1  0
 23 28  1  0
 22 29  1  0
 18 30  1  0
 18 31  1  0
 16 32  1  0
 15 33  1  0
  8  3  1  0
 17 13  1  0
 25 19  1  0
M  END
>  <cnnaffinity>  (1) 
-5.57816

>  <filename>  (1) 
O=C(c1cccnc1)c1nccn1Cc1c(Cl)cccc1Cl

$$$$
