
     RDKit          3D

 32 33  0  0  0  0  0  0  0  0999 V2000
   11.5274   -5.4031   26.5678 H   0  0  0  0  0  0  0  0  0  0  0  0
   10.5929   -5.6459   26.7121 O   0  0  0  0  0  0  0  0  0  0  0  0
   10.1635   -5.4155   25.4710 C   0  0  0  0  0  0  0  0  0  0  0  0
   10.9548   -5.0348   24.6381 O   0  0  0  0  0  0  0  0  0  0  0  0
    8.6652   -5.6596   25.1959 C   0  0  0  0  0  0  0  0  0  0  0  0
    8.0932   -6.6833   25.8707 O   0  0  0  0  0  0  0  0  0  0  0  0
    7.1395   -6.6946   25.6725 H   0  0  0  0  0  0  0  0  0  0  0  0
    7.9777   -4.9644   24.2672 C   0  0  0  0  0  0  0  0  0  0  0  0
    7.1268   -5.4126   23.7526 H   0  0  0  0  0  0  0  0  0  0  0  0
    8.3701   -3.5770   23.9476 C   0  0  0  0  0  0  0  0  0  0  0  0
    8.9987   -2.9099   24.7531 O   0  0  0  0  0  0  0  0  0  0  0  0
    7.9494   -2.9408   22.5696 C   0  0  0  0  0  0  0  0  0  0  0  0
    7.3658   -3.5749   21.7107 O   0  0  0  0  0  0  0  0  0  0  0  0
    8.2922   -1.4852   22.3754 C   0  0  0  0  0  0  0  0  0  0  0  0
    8.9823   -1.1424   23.1366 H   0  0  0  0  0  0  0  0  0  0  0  0
    8.6705   -1.1298   20.9094 C   0  0  0  0  0  0  0  0  0  0  0  0
    8.8115   -1.9872   20.2423 H   0  0  0  0  0  0  0  0  0  0  0  0
    9.5178   -0.4381   20.7840 H   0  0  0  0  0  0  0  0  0  0  0  0
    7.3816   -0.4775   20.8158 N   0  0  0  0  0  0  0  0  0  0  0  0
    6.7259    0.1293   19.7832 C   0  0  0  0  0  0  0  0  0  0  0  0
    7.2302    0.1468   18.4511 C   0  0  0  0  0  0  0  0  0  0  0  0
    8.1912   -0.3198   18.2298 H   0  0  0  0  0  0  0  0  0  0  0  0
    6.6023    0.7154   17.4156 N   0  0  0  0  0  0  0  0  0  0  0  0
    5.4236    1.3160   17.6544 C   0  0  0  0  0  0  0  0  0  0  0  0
    4.9345    1.7700   16.7973 H   0  0  0  0  0  0  0  0  0  0  0  0
    4.8385    1.3625   18.9245 C   0  0  0  0  0  0  0  0  0  0  0  0
    3.8890    1.8680   19.0577 H   0  0  0  0  0  0  0  0  0  0  0  0
    5.4899    0.7710   20.0063 C   0  0  0  0  0  0  0  0  0  0  0  0
    5.0784    0.8080   21.0153 H   0  0  0  0  0  0  0  0  0  0  0  0
    7.0160   -0.6037   22.2080 C   0  0  0  0  0  0  0  0  0  0  0  0
    6.0618   -1.1157   22.3873 H   0  0  0  0  0  0  0  0  0  0  0  0
    7.0197    0.3529   22.7576 H   0  0  0  0  0  0  0  0  0  0  0  0
  1  2  1  0
  2  3  1  0
  3  4  2  0
  3  5  1  0
  5  6  1  0
  6  7  1  0
  5  8  2  3
  8  9  1  0
  8 10  1  0
 10 11  2  0
 10 12  1  0
 12 13  2  0
 12 14  1  0
 14 15  1  0
 14 16  1  0
 16 17  1  0
 16 18  1  0
 16 19  1  0
 19 20  1  0
 20 21  2  0
 21 22  1  0
 21 23  1  0
 23 24  2  0
 24 25  1  0
 24 26  1  0
 26 27  1  0
 26 28  2  0
 28 29  1  0
 19 30  1  0
 30 31  1  0
 30 32  1  0
 30 14  1  0
 28 20  1  0
M  END
>  <cnnaffinity>  (1) 
-4.96993

>  <filename>  (1) 
O=C(O)C(O)=CC(=O)C(=O)C1CN(c2cccnc2)C1

$$$$
