
     RDKit          3D

 24 25  0  0  0  0  0  0  0  0999 V2000
    5.3036   -3.2390   18.3685 H   0  0  0  0  0  0  0  0  0  0  0  0
    5.1199   -2.6183   19.0924 O   0  0  0  0  0  0  0  0  0  0  0  0
    5.7239   -3.2551   20.0918 C   0  0  0  0  0  0  0  0  0  0  0  0
    6.2245   -4.3351   19.9031 O   0  0  0  0  0  0  0  0  0  0  0  0
    5.6694   -2.5195   21.3918 C   0  0  0  0  0  0  0  0  0  0  0  0
    4.9174   -1.7425   21.3815 H   0  0  0  0  0  0  0  0  0  0  0  0
    5.4912   -3.2430   22.1792 H   0  0  0  0  0  0  0  0  0  0  0  0
    6.9554   -1.8458   21.6204 C   0  0  0  0  0  0  0  0  0  0  0  0
    7.8338   -2.2338   22.4772 N   0  0  0  0  0  0  0  0  0  0  0  0
    8.8471   -1.3307   22.3301 N   0  0  0  0  0  0  0  0  0  0  0  0
    9.7102   -1.3827   22.8479 H   0  0  0  0  0  0  0  0  0  0  0  0
    8.6239   -0.3924   21.3942 C   0  0  0  0  0  0  0  0  0  0  0  0
    9.6503    0.8255   20.9335 S   0  0  0  0  0  0  0  0  0  0  0  0
    7.3611   -0.7231   20.9217 N   0  0  0  0  0  0  0  0  0  0  0  0
    6.6520   -0.0132   19.8911 C   0  0  0  0  0  0  0  0  0  0  0  0
    7.1722    0.0485   18.5861 C   0  0  0  0  0  0  0  0  0  0  0  0
    8.1302   -0.4279   18.3737 H   0  0  0  0  0  0  0  0  0  0  0  0
    6.5540    0.6664   17.5739 N   0  0  0  0  0  0  0  0  0  0  0  0
    5.3939    1.2893   17.8378 C   0  0  0  0  0  0  0  0  0  0  0  0
    4.9221    1.7887   16.9946 H   0  0  0  0  0  0  0  0  0  0  0  0
    4.8094    1.3095   19.1063 C   0  0  0  0  0  0  0  0  0  0  0  0
    3.8795    1.8429   19.2638 H   0  0  0  0  0  0  0  0  0  0  0  0
    5.4477    0.6406   20.1583 C   0  0  0  0  0  0  0  0  0  0  0  0
    5.0401    0.6279   21.1705 H   0  0  0  0  0  0  0  0  0  0  0  0
  1  2  1  0
  2  3  1  0
  3  4  2  0
  3  5  1  0
  5  6  1  0
  5  7  1  0
  5  8  1  0
  8  9  2  0
  9 10  1  0
 10 11  1  0
 10 12  1  0
 12 13  2  0
 12 14  1  0
 14 15  1  0
 15 16  2  0
 16 17  1  0
 16 18  1  0
 18 19  2  0
 19 20  1  0
 19 21  1  0
 21 22  1  0
 21 23  2  0
 23 24  1  0
 14  8  1  0
 23 15  1  0
M  END
>  <cnnaffinity>  (1) 
-4.68876

>  <filename>  (1) 
O=C(O)Cc1n[nH]c(=S)n1-c1cccnc1

$$$$
