
     RDKit          3D

 24 24  0  0  0  0  0  0  0  0999 V2000
    4.9518    1.7831   17.0081 H   0  0  0  0  0  0  0  0  0  0  0  0
    5.4162    1.2784   17.8498 C   0  0  0  0  0  0  0  0  0  0  0  0
    6.5765    0.6524   17.5888 N   0  0  0  0  0  0  0  0  0  0  0  0
    7.1970    0.0487   18.6095 C   0  0  0  0  0  0  0  0  0  0  0  0
    8.1479   -0.4394   18.3978 H   0  0  0  0  0  0  0  0  0  0  0  0
    6.6646    0.0183   19.9093 C   0  0  0  0  0  0  0  0  0  0  0  0
    7.4192   -0.5780   20.9181 O   0  0  0  0  0  0  0  0  0  0  0  0
    6.8329   -1.4378   21.7972 C   0  0  0  0  0  0  0  0  0  0  0  0
    5.8086   -2.0364   21.5994 O   0  0  0  0  0  0  0  0  0  0  0  0
    7.7154   -1.6594   23.0290 C   0  0  0  0  0  0  0  0  0  0  0  0
    7.0556   -2.0423   23.8157 H   0  0  0  0  0  0  0  0  0  0  0  0
    8.4238   -2.4445   22.7524 H   0  0  0  0  0  0  0  0  0  0  0  0
    8.5138   -0.5699   23.4568 O   0  0  0  0  0  0  0  0  0  0  0  0
    7.9254    0.3762   24.3179 C   0  0  0  0  0  0  0  0  0  0  0  0
    6.8316    0.3124   24.3420 H   0  0  0  0  0  0  0  0  0  0  0  0
    8.2095    1.3758   23.9803 H   0  0  0  0  0  0  0  0  0  0  0  0
    8.3770    0.2240   25.7658 C   0  0  0  0  0  0  0  0  0  0  0  0
    9.6945    0.3795   25.9257 F   0  0  0  0  0  0  0  0  0  0  0  0
    8.0322   -0.9827   26.2463 F   0  0  0  0  0  0  0  0  0  0  0  0
    7.7585    1.1550   26.5170 F   0  0  0  0  0  0  0  0  0  0  0  0
    5.4477    0.6419   20.1751 C   0  0  0  0  0  0  0  0  0  0  0  0
    5.0142    0.6112   21.1747 H   0  0  0  0  0  0  0  0  0  0  0  0
    4.8194    1.2992   19.1133 C   0  0  0  0  0  0  0  0  0  0  0  0
    3.8901    1.8335   19.2596 H   0  0  0  0  0  0  0  0  0  0  0  0
  1  2  1  0
  2  3  2  0
  3  4  1  0
  4  5  1  0
  4  6  2  0
  6  7  1  0
  7  8  1  0
  8  9  2  0
  8 10  1  0
 10 11  1  0
 10 12  1  0
 10 13  1  0
 13 14  1  0
 14 15  1  0
 14 16  1  0
 14 17  1  0
 17 18  1  0
 17 19  1  0
 17 20  1  0
  6 21  1  0
 21 22  1  0
 21 23  2  0
 23 24  1  0
 23  2  1  0
M  END
>  <cnnaffinity>  (1) 
-4.02986

>  <filename>  (1) 
O=C(COCC(F)(F)F)Oc1cccnc1

$$$$
