
     RDKit          3D

 38 40  0  0  0  0  0  0  0  0999 V2000
    9.7673    1.2473   23.2881 O   0  0  0  0  0  0  0  0  0  0  0  0
    9.2233    1.3905   22.2104 C   0  0  0  0  0  0  0  0  0  0  0  0
    9.5986    0.5199   21.0065 C   0  0  0  0  0  0  0  0  0  0  0  0
    8.8496   -0.8553   20.9866 C   0  0  0  0  0  0  0  0  0  0  0  0
    7.3260   -0.7544   21.0054 C   0  0  0  0  0  0  0  0  0  0  0  0
    6.7030   -1.1863   21.9550 O   0  0  0  0  0  0  0  0  0  0  0  0
    6.6283   -0.0244   19.9040 C   0  0  0  0  0  0  0  0  0  0  0  0
    5.4196    0.6455   20.1546 C   0  0  0  0  0  0  0  0  0  0  0  0
    4.8085    1.3164   19.1001 C   0  0  0  0  0  0  0  0  0  0  0  0
    5.4100    1.2916   17.8370 C   0  0  0  0  0  0  0  0  0  0  0  0
    6.5676    0.6638   17.5899 N   0  0  0  0  0  0  0  0  0  0  0  0
    7.1600    0.0372   18.6115 C   0  0  0  0  0  0  0  0  0  0  0  0
    8.1178   -0.4249   18.3628 H   0  0  0  0  0  0  0  0  0  0  0  0
    4.9494    1.7902   16.9854 H   0  0  0  0  0  0  0  0  0  0  0  0
    3.8758    1.8491   19.2371 H   0  0  0  0  0  0  0  0  0  0  0  0
    4.9930    0.6297   21.1601 H   0  0  0  0  0  0  0  0  0  0  0  0
    9.1078   -1.4371   21.8751 H   0  0  0  0  0  0  0  0  0  0  0  0
    9.1639   -1.4524   20.1218 H   0  0  0  0  0  0  0  0  0  0  0  0
    9.4284    1.0287   20.0535 H   0  0  0  0  0  0  0  0  0  0  0  0
   10.6756    0.3555   21.1031 H   0  0  0  0  0  0  0  0  0  0  0  0
    8.1996    2.2867   22.0072 N   0  0  0  0  0  0  0  0  0  0  0  0
    7.4200    2.8563   23.0481 C   0  0  0  0  0  0  0  0  0  0  0  0
    6.9896    2.0520   24.0850 C   0  0  0  0  0  0  0  0  0  0  0  0
    6.1918    2.5894   25.1329 C   0  0  0  0  0  0  0  0  0  0  0  0
    5.8325    3.9163   25.1340 C   0  0  0  0  0  0  0  0  0  0  0  0
    6.2485    4.7752   24.0698 C   0  0  0  0  0  0  0  0  0  0  0  0
    5.9063    6.1649   24.0094 C   0  0  0  0  0  0  0  0  0  0  0  0
    6.2759    6.9970   23.0597 N   0  0  0  0  0  0  0  0  0  0  0  0
    7.0431    6.4933   22.0544 C   0  0  0  0  0  0  0  0  0  0  0  0
    7.4516    5.1828   21.9951 C   0  0  0  0  0  0  0  0  0  0  0  0
    7.0531    4.2524   23.0060 C   0  0  0  0  0  0  0  0  0  0  0  0
    8.1058    4.8844   21.1865 H   0  0  0  0  0  0  0  0  0  0  0  0
    7.3255    7.2116   21.2899 H   0  0  0  0  0  0  0  0  0  0  0  0
    5.2928    6.5914   24.8003 H   0  0  0  0  0  0  0  0  0  0  0  0
    5.2322    4.3286   25.9418 H   0  0  0  0  0  0  0  0  0  0  0  0
    5.8869    1.9352   25.9457 H   0  0  0  0  0  0  0  0  0  0  0  0
    7.2788    1.0027   24.0835 H   0  0  0  0  0  0  0  0  0  0  0  0
    7.9147    2.4700   21.0617 H   0  0  0  0  0  0  0  0  0  0  0  0
  1  2  2  0
  2  3  1  0
  3  4  1  0
  4  5  1  0
  5  6  2  0
  5  7  1  0
  7  8  2  0
  8  9  1  0
  9 10  2  0
 10 11  1  0
 11 12  2  0
 12 13  1  0
 10 14  1  0
  9 15  1  0
  8 16  1  0
  4 17  1  0
  4 18  1  0
  3 19  1  0
  3 20  1  0
  2 21  1  0
 21 22  1  0
 22 23  2  0
 23 24  1  0
 24 25  2  0
 25 26  1  0
 26 27  2  0
 27 28  1  0
 28 29  2  0
 29 30  1  0
 30 31  2  0
 30 32  1  0
 29 33  1  0
 27 34  1  0
 25 35  1  0
 24 36  1  0
 23 37  1  0
 21 38  1  0
 12  7  1  0
 31 22  1  0
 31 26  1  0
M  END
>  <cnnaffinity>  (1) 
-4.91939

>  <filename>  (1) 
O=C(CCC(=O)c1cccnc1)Nc1cccc2cnccc12

$$$$
