
     RDKit          3D

 32 34  0  0  0  0  0  0  0  0999 V2000
    5.0282    1.7804   16.9036 H   0  0  0  0  0  0  0  0  0  0  0  0
    5.4521    1.2978   17.7794 C   0  0  0  0  0  0  0  0  0  0  0  0
    6.6256    0.6753   17.5818 N   0  0  0  0  0  0  0  0  0  0  0  0
    7.1844    0.0921   18.6466 C   0  0  0  0  0  0  0  0  0  0  0  0
    8.1334   -0.4122   18.4678 H   0  0  0  0  0  0  0  0  0  0  0  0
    6.6376    0.0882   19.9492 C   0  0  0  0  0  0  0  0  0  0  0  0
    7.3546   -0.5766   21.0578 C   0  0  0  0  0  0  0  0  0  0  0  0
    8.4463   -1.4977   20.9149 C   0  0  0  0  0  0  0  0  0  0  0  0
    8.9249   -1.7714   19.9865 H   0  0  0  0  0  0  0  0  0  0  0  0
    8.8068   -1.9271   22.1424 C   0  0  0  0  0  0  0  0  0  0  0  0
    9.5578   -2.6465   22.4473 H   0  0  0  0  0  0  0  0  0  0  0  0
    8.0063   -1.2985   23.1021 N   0  0  0  0  0  0  0  0  0  0  0  0
    8.2831   -1.4686   24.4992 C   0  0  0  0  0  0  0  0  0  0  0  0
    9.2846   -2.0318   24.8817 O   0  0  0  0  0  0  0  0  0  0  0  0
    7.3225   -0.9677   25.3400 N   0  0  0  0  0  0  0  0  0  0  0  0
    6.4764   -0.6506   24.9086 H   0  0  0  0  0  0  0  0  0  0  0  0
    7.5059   -0.5315   26.6510 C   0  0  0  0  0  0  0  0  0  0  0  0
    6.4240    0.0771   27.2881 C   0  0  0  0  0  0  0  0  0  0  0  0
    5.4360    0.0610   26.8499 H   0  0  0  0  0  0  0  0  0  0  0  0
    6.6271    0.6405   28.5425 C   0  0  0  0  0  0  0  0  0  0  0  0
    5.8094    1.1372   29.0612 H   0  0  0  0  0  0  0  0  0  0  0  0
    7.8004    0.6416   29.1810 N   0  0  0  0  0  0  0  0  0  0  0  0
    8.8157    0.0188   28.5620 C   0  0  0  0  0  0  0  0  0  0  0  0
    9.7571   -0.0172   29.1076 H   0  0  0  0  0  0  0  0  0  0  0  0
    8.7299   -0.6013   27.3211 C   0  0  0  0  0  0  0  0  0  0  0  0
    9.5765   -1.1051   26.8858 H   0  0  0  0  0  0  0  0  0  0  0  0
    7.1258   -0.4555   22.4022 C   0  0  0  0  0  0  0  0  0  0  0  0
    6.4318    0.2271   22.8819 H   0  0  0  0  0  0  0  0  0  0  0  0
    5.3937    0.7271   20.1199 C   0  0  0  0  0  0  0  0  0  0  0  0
    4.8934    0.7376   21.0917 H   0  0  0  0  0  0  0  0  0  0  0  0
    4.7973    1.3399   19.0162 C   0  0  0  0  0  0  0  0  0  0  0  0
    3.8466    1.8575   19.0999 H   0  0  0  0  0  0  0  0  0  0  0  0
  1  2  1  0
  2  3  2  0
  3  4  1  0
  4  5  1  0
  4  6  2  0
  6  7  1  0
  7  8  1  0
  8  9  1  0
  8 10  2  0
 10 11  1  0
 10 12  1  0
 12 13  1  0
 13 14  2  0
 13 15  1  0
 15 16  1  0
 15 17  1  0
 17 18  2  0
 18 19  1  0
 18 20  1  0
 20 21  1  0
 20 22  2  0
 22 23  1  0
 23 24  1  0
 23 25  2  0
 25 26  1  0
 12 27  1  0
 27 28  1  0
  6 29  1  0
 29 30  1  0
 29 31  2  0
 31 32  1  0
 31  2  1  0
 27  7  2  0
 25 17  1  0
M  END
>  <cnnaffinity>  (1) 
-5.1487

>  <filename>  (1) 
O=C(Nc1ccncc1)n1ccc(-c2cccnc2)c1

$$$$
