
     RDKit          3D

 32 34  0  0  0  0  0  0  0  0999 V2000
    7.9366   -1.8215   20.6645 O   0  0  0  0  0  0  0  0  0  0  0  0
    7.3941   -0.7694   20.9408 C   0  0  0  0  0  0  0  0  0  0  0  0
    7.4722   -0.2373   22.3275 C   0  0  0  0  0  0  0  0  0  0  0  0
    7.3653    1.0598   22.6665 C   0  0  0  0  0  0  0  0  0  0  0  0
    7.4924    1.5262   24.0527 C   0  0  0  0  0  0  0  0  0  0  0  0
    8.4116    0.9583   24.9286 C   0  0  0  0  0  0  0  0  0  0  0  0
    8.5603    1.4248   26.2568 C   0  0  0  0  0  0  0  0  0  0  0  0
    7.7792    2.4552   26.7324 C   0  0  0  0  0  0  0  0  0  0  0  0
    6.8080    3.0565   25.8741 C   0  0  0  0  0  0  0  0  0  0  0  0
    5.9626    4.1243   26.3037 C   0  0  0  0  0  0  0  0  0  0  0  0
    5.0409    4.7063   25.5654 N   0  0  0  0  0  0  0  0  0  0  0  0
    4.8936    4.2403   24.2952 C   0  0  0  0  0  0  0  0  0  0  0  0
    5.6379    3.2204   23.7509 C   0  0  0  0  0  0  0  0  0  0  0  0
    6.6496    2.5921   24.5324 C   0  0  0  0  0  0  0  0  0  0  0  0
    5.4524    2.8926   22.7334 H   0  0  0  0  0  0  0  0  0  0  0  0
    4.1284    4.7240   23.6979 H   0  0  0  0  0  0  0  0  0  0  0  0
    6.0882    4.4836   27.3225 H   0  0  0  0  0  0  0  0  0  0  0  0
    7.8957    2.8113   27.7551 H   0  0  0  0  0  0  0  0  0  0  0  0
    9.2983    0.9481   26.8938 H   0  0  0  0  0  0  0  0  0  0  0  0
    9.0622    0.1625   24.5769 H   0  0  0  0  0  0  0  0  0  0  0  0
    7.2224    1.8293   21.8965 H   0  0  0  0  0  0  0  0  0  0  0  0
    7.6302   -1.0063   23.0784 H   0  0  0  0  0  0  0  0  0  0  0  0
    6.6574    0.0220   19.9092 C   0  0  0  0  0  0  0  0  0  0  0  0
    5.4346    0.6650   20.1621 C   0  0  0  0  0  0  0  0  0  0  0  0
    4.7994    1.3118   19.1061 C   0  0  0  0  0  0  0  0  0  0  0  0
    5.4065    1.2904   17.8442 C   0  0  0  0  0  0  0  0  0  0  0  0
    6.5734    0.6756   17.5891 N   0  0  0  0  0  0  0  0  0  0  0  0
    7.1750    0.0534   18.6077 C   0  0  0  0  0  0  0  0  0  0  0  0
    8.1182   -0.4403   18.3819 H   0  0  0  0  0  0  0  0  0  0  0  0
    4.9178    1.7752   17.0017 H   0  0  0  0  0  0  0  0  0  0  0  0
    3.8681    1.8466   19.2600 H   0  0  0  0  0  0  0  0  0  0  0  0
    4.9929    0.6408   21.1648 H   0  0  0  0  0  0  0  0  0  0  0  0
  1  2  2  0
  2  3  1  0
  3  4  2  3
  4  5  1  0
  5  6  2  0
  6  7  1  0
  7  8  2  0
  8  9  1  0
  9 10  2  0
 10 11  1  0
 11 12  2  0
 12 13  1  0
 13 14  2  0
 13 15  1  0
 12 16  1  0
 10 17  1  0
  8 18  1  0
  7 19  1  0
  6 20  1  0
  4 21  1  0
  3 22  1  0
  2 23  1  0
 23 24  2  0
 24 25  1  0
 25 26  2  0
 26 27  1  0
 27 28  2  0
 28 29  1  0
 26 30  1  0
 25 31  1  0
 24 32  1  0
 14  5  1  0
 28 23  1  0
 14  9  1  0
M  END
>  <cnnaffinity>  (1) 
-4.61002

>  <filename>  (1) 
O=C(C=Cc1cccc2cnccc12)c1cccnc1

$$$$
