
     RDKit          3D

 33 35  0  0  0  0  0  0  0  0999 V2000
    9.4380   -2.4763   25.0110 O   0  0  0  0  0  0  0  0  0  0  0  0
    8.5520   -1.7374   25.3872 C   0  0  0  0  0  0  0  0  0  0  0  0
    8.1915   -1.5953   26.8543 C   0  0  0  0  0  0  0  0  0  0  0  0
    7.1160   -2.5828   27.2916 C   0  0  0  0  0  0  0  0  0  0  0  0
    7.4447   -3.9062   27.6092 C   0  0  0  0  0  0  0  0  0  0  0  0
    6.4489   -4.7984   28.0275 C   0  0  0  0  0  0  0  0  0  0  0  0
    5.1428   -4.3140   28.0611 C   0  0  0  0  0  0  0  0  0  0  0  0
    3.8603   -5.3821   28.5283 Cl  0  0  0  0  0  0  0  0  0  0  0  0
    4.7860   -3.0753   27.7515 N   0  0  0  0  0  0  0  0  0  0  0  0
    5.7471   -2.2594   27.3934 C   0  0  0  0  0  0  0  0  0  0  0  0
    5.3705   -1.0121   27.0945 F   0  0  0  0  0  0  0  0  0  0  0  0
    6.6618   -5.8162   28.3306 H   0  0  0  0  0  0  0  0  0  0  0  0
    8.4923   -4.2021   27.5796 H   0  0  0  0  0  0  0  0  0  0  0  0
    9.1373   -1.7812   27.3756 H   0  0  0  0  0  0  0  0  0  0  0  0
    7.8868   -0.5632   27.0386 H   0  0  0  0  0  0  0  0  0  0  0  0
    7.7947   -1.0216   24.5044 N   0  0  0  0  0  0  0  0  0  0  0  0
    7.8829   -1.1579   23.1436 C   0  0  0  0  0  0  0  0  0  0  0  0
    7.1161   -0.4181   22.4110 N   0  0  0  0  0  0  0  0  0  0  0  0
    7.3862   -0.6637   21.0793 C   0  0  0  0  0  0  0  0  0  0  0  0
    6.6480    0.0303   20.0166 C   0  0  0  0  0  0  0  0  0  0  0  0
    5.4124    0.6784   20.2234 C   0  0  0  0  0  0  0  0  0  0  0  0
    4.8027    1.2993   19.1356 C   0  0  0  0  0  0  0  0  0  0  0  0
    5.4346    1.2587   17.8882 C   0  0  0  0  0  0  0  0  0  0  0  0
    6.5989    0.6306   17.6687 N   0  0  0  0  0  0  0  0  0  0  0  0
    7.1787    0.0432   18.7141 C   0  0  0  0  0  0  0  0  0  0  0  0
    8.1291   -0.4361   18.4791 H   0  0  0  0  0  0  0  0  0  0  0  0
    4.9962    1.7523   17.0262 H   0  0  0  0  0  0  0  0  0  0  0  0
    3.8617    1.8323   19.2397 H   0  0  0  0  0  0  0  0  0  0  0  0
    4.9499    0.6910   21.2116 H   0  0  0  0  0  0  0  0  0  0  0  0
    8.3519   -1.5920   20.8431 C   0  0  0  0  0  0  0  0  0  0  0  0
    8.9380   -2.2606   22.3201 S   0  0  0  0  0  0  0  0  0  0  0  0
    8.7629   -1.8779   19.8919 H   0  0  0  0  0  0  0  0  0  0  0  0
    7.0225   -0.4375   24.7718 H   0  0  0  0  0  0  0  0  0  0  0  0
  1  2  2  0
  2  3  1  0
  3  4  1  0
  4  5  2  0
  5  6  1  0
  6  7  2  0
  7  8  1  0
  7  9  1  0
  9 10  2  0
 10 11  1  0
  6 12  1  0
  5 13  1  0
  3 14  1  0
  3 15  1  0
  2 16  1  0
 16 17  1  0
 17 18  2  0
 18 19  1  0
 19 20  1  0
 20 21  2  0
 21 22  1  0
 22 23  2  0
 23 24  1  0
 24 25  2  0
 25 26  1  0
 23 27  1  0
 22 28  1  0
 21 29  1  0
 19 30  2  0
 30 31  1  0
 30 32  1  0
 16 33  1  0
 10  4  1  0
 31 17  1  0
 25 20  1  0
M  END
>  <cnnaffinity>  (1) 
-5.16634

>  <filename>  (1) 
O=C(Cc1ccc(Cl)nc1F)Nc1nc(-c2cccnc2)cs1

$$$$
