
     RDKit          3D

 32 35  0  0  0  0  0  0  0  0999 V2000
    5.1509    1.6612   17.3414 H   0  0  0  0  0  0  0  0  0  0  0  0
    5.6716    1.0632   18.0871 C   0  0  0  0  0  0  0  0  0  0  0  0
    6.8444    0.5376   17.7038 N   0  0  0  0  0  0  0  0  0  0  0  0
    7.5195   -0.1819   18.6024 C   0  0  0  0  0  0  0  0  0  0  0  0
    8.4521   -0.6305   18.2674 H   0  0  0  0  0  0  0  0  0  0  0  0
    7.0730   -0.3976   19.9136 C   0  0  0  0  0  0  0  0  0  0  0  0
    7.9624   -1.1005   20.8360 C   0  0  0  0  0  0  0  0  0  0  0  0
    9.2632   -1.2655   20.7295 N   0  0  0  0  0  0  0  0  0  0  0  0
    9.7248   -1.9424   21.8394 N   0  0  0  0  0  0  0  0  0  0  0  0
    8.6728   -2.1712   22.5821 C   0  0  0  0  0  0  0  0  0  0  0  0
    8.2690   -2.9647   24.0798 S   0  0  0  0  0  0  0  0  0  0  0  0
    6.5938   -2.5310   23.7331 C   0  0  0  0  0  0  0  0  0  0  0  0
    5.5034   -2.7883   24.5174 N   0  0  0  0  0  0  0  0  0  0  0  0
    4.6807   -2.3086   24.1947 H   0  0  0  0  0  0  0  0  0  0  0  0
    5.5099   -3.4421   25.7208 C   0  0  0  0  0  0  0  0  0  0  0  0
    6.4770   -4.0838   26.0650 O   0  0  0  0  0  0  0  0  0  0  0  0
    4.2222   -3.2924   26.5413 C   0  0  0  0  0  0  0  0  0  0  0  0
    3.4950   -2.0880   26.6183 C   0  0  0  0  0  0  0  0  0  0  0  0
    3.8379   -1.1790   26.1348 H   0  0  0  0  0  0  0  0  0  0  0  0
    2.3314   -2.0384   27.3914 C   0  0  0  0  0  0  0  0  0  0  0  0
    1.7543   -1.1203   27.4453 H   0  0  0  0  0  0  0  0  0  0  0  0
    1.8591   -3.0771   28.0897 N   0  0  0  0  0  0  0  0  0  0  0  0
    2.5706   -4.2092   28.0541 C   0  0  0  0  0  0  0  0  0  0  0  0
    2.1859   -5.0318   28.6488 H   0  0  0  0  0  0  0  0  0  0  0  0
    3.7476   -4.3649   27.3169 C   0  0  0  0  0  0  0  0  0  0  0  0
    4.2922   -5.3008   27.3615 H   0  0  0  0  0  0  0  0  0  0  0  0
    6.3516   -1.8867   22.6335 N   0  0  0  0  0  0  0  0  0  0  0  0
    7.5446   -1.6748   22.0096 N   0  0  0  0  0  0  0  0  0  0  0  0
    5.8164    0.1055   20.2892 C   0  0  0  0  0  0  0  0  0  0  0  0
    5.4199   -0.1055   21.2814 H   0  0  0  0  0  0  0  0  0  0  0  0
    5.1126    0.8595   19.3542 C   0  0  0  0  0  0  0  0  0  0  0  0
    4.1492    1.2928   19.5957 H   0  0  0  0  0  0  0  0  0  0  0  0
  1  2  1  0
  2  3  2  0
  3  4  1  0
  4  5  1  0
  4  6  2  0
  6  7  1  0
  7  8  2  0
  8  9  1  0
  9 10  2  0
 10 11  1  0
 11 12  1  0
 12 13  1  0
 13 14  1  0
 13 15  1  0
 15 16  2  0
 15 17  1  0
 17 18  2  0
 18 19  1  0
 18 20  1  0
 20 21  1  0
 20 22  2  0
 22 23  1  0
 23 24  1  0
 23 25  2  0
 25 26  1  0
 12 27  2  0
 27 28  1  0
  6 29  1  0
 29 30  1  0
 29 31  2  0
 31 32  1  0
 31  2  1  0
 28  7  1  0
 28 10  1  0
 25 17  1  0
M  END
>  <cnnaffinity>  (1) 
-5.10516

>  <filename>  (1) 
O=C(Nc1nn2c(-c3cccnc3)nnc2s1)c1ccncc1

$$$$
