
     RDKit          3D

 41 43  0  0  0  0  0  0  0  0999 V2000
    6.6033   -3.6089   22.6301 O   0  0  0  0  0  0  0  0  0  0  0  0
    6.3957   -3.0832   23.7093 C   0  0  0  0  0  0  0  0  0  0  0  0
    7.0990   -1.9950   24.1391 N   0  0  0  0  0  0  0  0  0  0  0  0
    8.0525   -1.2981   23.2939 C   0  0  0  0  0  0  0  0  0  0  0  0
    7.3464   -0.4740   22.2485 C   0  0  0  0  0  0  0  0  0  0  0  0
    7.4272   -0.6966   20.9318 C   0  0  0  0  0  0  0  0  0  0  0  0
    6.6634    0.0083   19.8783 C   0  0  0  0  0  0  0  0  0  0  0  0
    5.4493    0.6739   20.1145 C   0  0  0  0  0  0  0  0  0  0  0  0
    4.8179    1.3290   19.0548 C   0  0  0  0  0  0  0  0  0  0  0  0
    5.4217    1.3081   17.7941 C   0  0  0  0  0  0  0  0  0  0  0  0
    6.5730    0.6633   17.5367 N   0  0  0  0  0  0  0  0  0  0  0  0
    7.1583    0.0321   18.5597 C   0  0  0  0  0  0  0  0  0  0  0  0
    8.0882   -0.4852   18.3210 H   0  0  0  0  0  0  0  0  0  0  0  0
    4.9629    1.8221   16.9514 H   0  0  0  0  0  0  0  0  0  0  0  0
    3.8832    1.8611   19.1940 H   0  0  0  0  0  0  0  0  0  0  0  0
    5.0017    0.6607   21.1097 H   0  0  0  0  0  0  0  0  0  0  0  0
    8.1128   -1.4666   20.5680 H   0  0  0  0  0  0  0  0  0  0  0  0
    6.6920    0.3013   22.6477 H   0  0  0  0  0  0  0  0  0  0  0  0
    8.6546   -0.6557   23.9477 H   0  0  0  0  0  0  0  0  0  0  0  0
    8.7275   -2.0316   22.8329 H   0  0  0  0  0  0  0  0  0  0  0  0
    6.7931   -1.5767   25.0025 H   0  0  0  0  0  0  0  0  0  0  0  0
    5.3720   -3.5899   24.6768 C   0  0  0  0  0  0  0  0  0  0  0  0
    5.1959   -2.9857   25.8260 N   0  0  0  0  0  0  0  0  0  0  0  0
    4.2620   -3.4800   26.7045 N   0  0  0  0  0  0  0  0  0  0  0  0
    4.1234   -2.7933   27.9707 C   0  0  0  0  0  0  0  0  0  0  0  0
    2.8928   -2.7770   28.6480 C   0  0  0  0  0  0  0  0  0  0  0  0
    2.7936   -2.1128   29.8750 C   0  0  0  0  0  0  0  0  0  0  0  0
    3.8997   -1.4674   30.4334 C   0  0  0  0  0  0  0  0  0  0  0  0
    5.1178   -1.4712   29.7477 C   0  0  0  0  0  0  0  0  0  0  0  0
    5.2253   -2.1224   28.5157 C   0  0  0  0  0  0  0  0  0  0  0  0
    6.1500   -2.1147   27.9494 H   0  0  0  0  0  0  0  0  0  0  0  0
    5.9949   -0.9915   30.1798 H   0  0  0  0  0  0  0  0  0  0  0  0
    3.8234   -0.9520   31.3885 H   0  0  0  0  0  0  0  0  0  0  0  0
    1.8361   -2.0859   30.3894 H   0  0  0  0  0  0  0  0  0  0  0  0
    2.0338   -3.2758   28.2222 H   0  0  0  0  0  0  0  0  0  0  0  0
    3.5596   -4.6904   26.4910 C   0  0  0  0  0  0  0  0  0  0  0  0
    2.7761   -5.2065   27.2554 O   0  0  0  0  0  0  0  0  0  0  0  0
    3.8278   -5.2885   25.3022 N   0  0  0  0  0  0  0  0  0  0  0  0
    4.6202   -4.8095   24.2808 C   0  0  0  0  0  0  0  0  0  0  0  0
    4.6044   -5.4129   23.2387 O   0  0  0  0  0  0  0  0  0  0  0  0
    3.2939   -6.1167   25.1151 H   0  0  0  0  0  0  0  0  0  0  0  0
  1  2  2  0
  2  3  1  0
  3  4  1  0
  4  5  1  0
  5  6  2  3
  6  7  1  0
  7  8  2  0
  8  9  1  0
  9 10  2  0
 10 11  1  0
 11 12  2  0
 12 13  1  0
 10 14  1  0
  9 15  1  0
  8 16  1  0
  6 17  1  0
  5 18  1  0
  4 19  1  0
  4 20  1  0
  3 21  1  0
  2 22  1  0
 22 23  2  0
 23 24  1  0
 24 25  1  0
 25 26  2  0
 26 27  1  0
 27 28  2  0
 28 29  1  0
 29 30  2  0
 30 31  1  0
 29 32  1  0
 28 33  1  0
 27 34  1  0
 26 35  1  0
 24 36  1  0
 36 37  2  0
 36 38  1  0
 38 39  1  0
 39 40  2  0
 38 41  1  0
 12  7  1  0
 39 22  1  0
 30 25  1  0
M  END
>  <cnnaffinity>  (1) 
-5.502

>  <filename>  (1) 
O=C(NCC=Cc1cccnc1)c1nn(-c2ccccc2)c(=O)[nH]c1=O

$$$$
