
     RDKit          3D

 32 34  0  0  0  0  0  0  0  0999 V2000
    4.9510    1.8320   16.9521 H   0  0  0  0  0  0  0  0  0  0  0  0
    5.4188    1.3475   17.8105 C   0  0  0  0  0  0  0  0  0  0  0  0
    6.5981    0.7471   17.5880 N   0  0  0  0  0  0  0  0  0  0  0  0
    7.1820    0.1264   18.6237 C   0  0  0  0  0  0  0  0  0  0  0  0
    8.1328   -0.3559   18.4021 H   0  0  0  0  0  0  0  0  0  0  0  0
    6.6483    0.0590   19.9351 C   0  0  0  0  0  0  0  0  0  0  0  0
    7.2939   -0.7262   21.0237 C   0  0  0  0  0  0  0  0  0  0  0  0
    7.5454   -2.0775   21.1250 C   0  0  0  0  0  0  0  0  0  0  0  0
    7.2990   -2.8539   20.4181 H   0  0  0  0  0  0  0  0  0  0  0  0
    8.1300   -2.3975   22.3203 N   0  0  0  0  0  0  0  0  0  0  0  0
    8.2169   -1.2630   22.9610 C   0  0  0  0  0  0  0  0  0  0  0  0
    8.6428   -1.1255   23.9495 H   0  0  0  0  0  0  0  0  0  0  0  0
    7.7254   -0.2022   22.2408 N   0  0  0  0  0  0  0  0  0  0  0  0
    7.4765    1.1325   22.7977 C   0  0  0  0  0  0  0  0  0  0  0  0
    6.6741    1.0845   23.5429 H   0  0  0  0  0  0  0  0  0  0  0  0
    7.1682    1.8170   22.0030 H   0  0  0  0  0  0  0  0  0  0  0  0
    8.6582    1.7689   23.5369 C   0  0  0  0  0  0  0  0  0  0  0  0
    8.5396    2.0019   24.7228 O   0  0  0  0  0  0  0  0  0  0  0  0
    9.9459    2.1067   22.8130 C   0  0  0  0  0  0  0  0  0  0  0  0
   11.0572    2.5470   23.5539 C   0  0  0  0  0  0  0  0  0  0  0  0
   10.9895    2.6322   24.6268 H   0  0  0  0  0  0  0  0  0  0  0  0
   12.2427    2.8670   22.8985 C   0  0  0  0  0  0  0  0  0  0  0  0
   13.1011    3.2050   23.4744 H   0  0  0  0  0  0  0  0  0  0  0  0
   12.3950    2.8065   21.5727 N   0  0  0  0  0  0  0  0  0  0  0  0
   11.3448    2.3934   20.8596 C   0  0  0  0  0  0  0  0  0  0  0  0
   11.4864    2.3653   19.7825 H   0  0  0  0  0  0  0  0  0  0  0  0
   10.1190    2.0260   21.4226 C   0  0  0  0  0  0  0  0  0  0  0  0
    9.3235    1.7126   20.7592 H   0  0  0  0  0  0  0  0  0  0  0  0
    5.4227    0.7193   20.1370 C   0  0  0  0  0  0  0  0  0  0  0  0
    4.9717    0.7200   21.1312 H   0  0  0  0  0  0  0  0  0  0  0  0
    4.7964    1.3551   19.0613 C   0  0  0  0  0  0  0  0  0  0  0  0
    3.8419    1.8506   19.1783 H   0  0  0  0  0  0  0  0  0  0  0  0
  1  2  1  0
  2  3  2  0
  3  4  1  0
  4  5  1  0
  4  6  2  0
  6  7  1  0
  7  8  2  0
  8  9  1  0
  8 10  1  0
 10 11  2  0
 11 12  1  0
 11 13  1  0
 13 14  1  0
 14 15  1  0
 14 16  1  0
 14 17  1  0
 17 18  2  0
 17 19  1  0
 19 20  2  0
 20 21  1  0
 20 22  1  0
 22 23  1  0
 22 24  2  0
 24 25  1  0
 25 26  1  0
 25 27  2  0
 27 28  1  0
  6 29  1  0
 29 30  1  0
 29 31  2  0
 31 32  1  0
 31  2  1  0
 13  7  1  0
 27 19  1  0
M  END
>  <cnnaffinity>  (1) 
-5.21463

>  <filename>  (1) 
O=C(Cn1cncc1-c1cccnc1)c1ccncc1

$$$$
