
     RDKit          3D

 29 30  0  0  0  0  0  0  0  0999 V2000
    8.0547   -1.6384   19.9640 H   0  0  0  0  0  0  0  0  0  0  0  0
    7.7076   -1.4507   20.9693 C   0  0  0  0  0  0  0  0  0  0  0  0
    8.1947   -2.3733   21.9658 C   0  0  0  0  0  0  0  0  0  0  0  0
    9.0205   -3.1892   21.5955 O   0  0  0  0  0  0  0  0  0  0  0  0
    7.7255   -2.3495   23.2609 N   0  0  0  0  0  0  0  0  0  0  0  0
    7.0585   -1.6219   23.4873 H   0  0  0  0  0  0  0  0  0  0  0  0
    8.2920   -3.0689   24.3078 C   0  0  0  0  0  0  0  0  0  0  0  0
    9.1318   -4.1645   24.1007 C   0  0  0  0  0  0  0  0  0  0  0  0
    9.2862   -4.5052   23.0860 H   0  0  0  0  0  0  0  0  0  0  0  0
    9.7596   -4.7927   25.1859 C   0  0  0  0  0  0  0  0  0  0  0  0
   10.4432   -5.6203   25.0228 H   0  0  0  0  0  0  0  0  0  0  0  0
    9.5263   -4.3328   26.4845 C   0  0  0  0  0  0  0  0  0  0  0  0
   10.3402   -5.0814   27.8291 Cl  0  0  0  0  0  0  0  0  0  0  0  0
    8.6491   -3.2641   26.6873 C   0  0  0  0  0  0  0  0  0  0  0  0
    8.4578   -2.9048   27.6881 H   0  0  0  0  0  0  0  0  0  0  0  0
    8.0386   -2.6362   25.6000 C   0  0  0  0  0  0  0  0  0  0  0  0
    7.3827   -1.7889   25.7487 H   0  0  0  0  0  0  0  0  0  0  0  0
    6.8668   -0.3835   21.1788 C   0  0  0  0  0  0  0  0  0  0  0  0
    6.3105    0.1140   22.9410 Br  0  0  0  0  0  0  0  0  0  0  0  0
    6.3830    0.3528   20.0147 C   0  0  0  0  0  0  0  0  0  0  0  0
    6.9724    0.1626   18.7526 C   0  0  0  0  0  0  0  0  0  0  0  0
    7.8492   -0.4747   18.6709 H   0  0  0  0  0  0  0  0  0  0  0  0
    6.4947    0.7186   17.6272 N   0  0  0  0  0  0  0  0  0  0  0  0
    5.3893    1.4768   17.7196 C   0  0  0  0  0  0  0  0  0  0  0  0
    4.9568    1.8782   16.8092 H   0  0  0  0  0  0  0  0  0  0  0  0
    4.7732    1.7507   18.9431 C   0  0  0  0  0  0  0  0  0  0  0  0
    3.8910    2.3766   18.9657 H   0  0  0  0  0  0  0  0  0  0  0  0
    5.2895    1.2117   20.1181 C   0  0  0  0  0  0  0  0  0  0  0  0
    4.8341    1.4247   21.0843 H   0  0  0  0  0  0  0  0  0  0  0  0
  1  2  1  0
  2  3  1  0
  3  4  2  0
  3  5  1  0
  5  6  1  0
  5  7  1  0
  7  8  2  0
  8  9  1  0
  8 10  1  0
 10 11  1  0
 10 12  2  0
 12 13  1  0
 12 14  1  0
 14 15  1  0
 14 16  2  0
 16 17  1  0
  2 18  2  3
 18 19  1  0
 18 20  1  0
 20 21  2  0
 21 22  1  0
 21 23  1  0
 23 24  2  0
 24 25  1  0
 24 26  1  0
 26 27  1  0
 26 28  2  0
 28 29  1  0
 16  7  1  0
 28 20  1  0
M  END
>  <cnnaffinity>  (1) 
-4.80768

>  <filename>  (1) 
O=C(C=C(Br)c1cccnc1)Nc1ccc(Cl)cc1

$$$$
