
     RDKit          3D

 31 33  0  0  0  0  0  0  0  0999 V2000
    4.9111    1.7830   16.9936 H   0  0  0  0  0  0  0  0  0  0  0  0
    5.4007    1.2953   17.8347 C   0  0  0  0  0  0  0  0  0  0  0  0
    6.5651    0.6782   17.5732 N   0  0  0  0  0  0  0  0  0  0  0  0
    7.1736    0.0587   18.5959 C   0  0  0  0  0  0  0  0  0  0  0  0
    8.1210   -0.4285   18.3769 H   0  0  0  0  0  0  0  0  0  0  0  0
    6.6675    0.0030   19.9145 C   0  0  0  0  0  0  0  0  0  0  0  0
    7.3229   -0.7146   20.9473 N   0  0  0  0  0  0  0  0  0  0  0  0
    7.4487   -0.3700   22.2930 C   0  0  0  0  0  0  0  0  0  0  0  0
    7.2640    1.0778   22.7604 C   0  0  0  0  0  0  0  0  0  0  0  0
    7.4557    2.0347   22.0307 O   0  0  0  0  0  0  0  0  0  0  0  0
    6.8658    1.2879   24.2057 C   0  0  0  0  0  0  0  0  0  0  0  0
    6.1012    0.3734   24.9485 C   0  0  0  0  0  0  0  0  0  0  0  0
    5.7708   -0.5706   24.5232 H   0  0  0  0  0  0  0  0  0  0  0  0
    5.7696    0.6911   26.2714 C   0  0  0  0  0  0  0  0  0  0  0  0
    5.1841   -0.0097   26.8576 H   0  0  0  0  0  0  0  0  0  0  0  0
    6.1282    1.8253   26.8886 N   0  0  0  0  0  0  0  0  0  0  0  0
    6.8556    2.6927   26.1703 C   0  0  0  0  0  0  0  0  0  0  0  0
    7.1402    3.6159   26.6659 H   0  0  0  0  0  0  0  0  0  0  0  0
    7.2443    2.4781   24.8477 C   0  0  0  0  0  0  0  0  0  0  0  0
    7.8192    3.2272   24.3134 H   0  0  0  0  0  0  0  0  0  0  0  0
    7.8038   -1.3319   23.0682 N   0  0  0  0  0  0  0  0  0  0  0  0
    8.0195   -2.5134   22.2434 C   0  0  0  0  0  0  0  0  0  0  0  0
    9.0420   -2.8864   22.3716 H   0  0  0  0  0  0  0  0  0  0  0  0
    7.3345   -3.3063   22.5559 H   0  0  0  0  0  0  0  0  0  0  0  0
    7.7606   -2.0924   20.7905 C   0  0  0  0  0  0  0  0  0  0  0  0
    6.9752   -2.6853   20.3035 H   0  0  0  0  0  0  0  0  0  0  0  0
    8.6764   -2.1292   20.1892 H   0  0  0  0  0  0  0  0  0  0  0  0
    5.4444    0.6470   20.1613 C   0  0  0  0  0  0  0  0  0  0  0  0
    5.0152    0.6255   21.1663 H   0  0  0  0  0  0  0  0  0  0  0  0
    4.8095    1.3071   19.1044 C   0  0  0  0  0  0  0  0  0  0  0  0
    3.8775    1.8413   19.2628 H   0  0  0  0  0  0  0  0  0  0  0  0
  1  2  1  0
  2  3  2  0
  3  4  1  0
  4  5  1  0
  4  6  2  0
  6  7  1  0
  7  8  1  0
  8  9  1  0
  9 10  2  0
  9 11  1  0
 11 12  2  0
 12 13  1  0
 12 14  1  0
 14 15  1  0
 14 16  2  0
 16 17  1  0
 17 18  1  0
 17 19  2  0
 19 20  1  0
  8 21  2  0
 21 22  1  0
 22 23  1  0
 22 24  1  0
 22 25  1  0
 25 26  1  0
 25 27  1  0
  6 28  1  0
 28 29  1  0
 28 30  2  0
 30 31  1  0
 30  2  1  0
 25  7  1  0
 19 11  1  0
M  END
>  <cnnaffinity>  (1) 
-4.7383

>  <filename>  (1) 
O=C(C1=NCCN1c1cccnc1)c1ccncc1

$$$$
