
     RDKit          3D

 34 36  0  0  0  0  0  0  0  0999 V2000
    9.9617   -3.4005   23.8370 O   0  0  0  0  0  0  0  0  0  0  0  0
    9.3105   -2.8263   24.6965 C   0  0  0  0  0  0  0  0  0  0  0  0
    9.4820   -3.1994   26.1431 C   0  0  0  0  0  0  0  0  0  0  0  0
    8.2745   -3.9503   26.5968 C   0  0  0  0  0  0  0  0  0  0  0  0
    7.2553   -3.2310   27.2239 C   0  0  0  0  0  0  0  0  0  0  0  0
    6.1457   -3.9000   27.7490 C   0  0  0  0  0  0  0  0  0  0  0  0
    6.0371   -5.2807   27.6148 C   0  0  0  0  0  0  0  0  0  0  0  0
    4.6843   -6.1128   28.3347 Cl  0  0  0  0  0  0  0  0  0  0  0  0
    7.0163   -5.9812   26.9076 C   0  0  0  0  0  0  0  0  0  0  0  0
    8.1512   -5.3339   26.4085 C   0  0  0  0  0  0  0  0  0  0  0  0
    9.5064   -6.3492   25.5147 Br  0  0  0  0  0  0  0  0  0  0  0  0
    6.8851   -7.0410   26.7505 H   0  0  0  0  0  0  0  0  0  0  0  0
    5.3738   -3.3576   28.2861 H   0  0  0  0  0  0  0  0  0  0  0  0
    7.3504   -2.1564   27.3466 H   0  0  0  0  0  0  0  0  0  0  0  0
   10.3832   -3.8077   26.2635 H   0  0  0  0  0  0  0  0  0  0  0  0
    9.5746   -2.2843   26.7361 H   0  0  0  0  0  0  0  0  0  0  0  0
    8.3944   -1.8534   24.3804 N   0  0  0  0  0  0  0  0  0  0  0  0
    8.1682   -1.4963   23.0840 C   0  0  0  0  0  0  0  0  0  0  0  0
    8.9635   -1.8957   22.1309 N   0  0  0  0  0  0  0  0  0  0  0  0
    8.5119   -1.3820   20.9308 C   0  0  0  0  0  0  0  0  0  0  0  0
    7.3624   -0.6256   20.9905 C   0  0  0  0  0  0  0  0  0  0  0  0
    6.6803    0.0197   19.8694 C   0  0  0  0  0  0  0  0  0  0  0  0
    5.4904    0.7067   20.0973 C   0  0  0  0  0  0  0  0  0  0  0  0
    4.8798    1.3453   19.0204 C   0  0  0  0  0  0  0  0  0  0  0  0
    5.4652    1.2773   17.7496 C   0  0  0  0  0  0  0  0  0  0  0  0
    6.6041    0.5976   17.5159 N   0  0  0  0  0  0  0  0  0  0  0  0
    7.1940   -0.0159   18.5607 C   0  0  0  0  0  0  0  0  0  0  0  0
    8.1148   -0.5660   18.3922 H   0  0  0  0  0  0  0  0  0  0  0  0
    4.9795    1.7894   16.9243 H   0  0  0  0  0  0  0  0  0  0  0  0
    3.9662    1.9090   19.1644 H   0  0  0  0  0  0  0  0  0  0  0  0
    5.0621    0.7435   21.0975 H   0  0  0  0  0  0  0  0  0  0  0  0
    6.8081   -0.4947   22.6358 S   0  0  0  0  0  0  0  0  0  0  0  0
    9.0351   -1.5644   19.9980 H   0  0  0  0  0  0  0  0  0  0  0  0
    7.7885   -1.4825   25.0996 H   0  0  0  0  0  0  0  0  0  0  0  0
  1  2  2  0
  2  3  1  0
  3  4  1  0
  4  5  2  0
  5  6  1  0
  6  7  2  0
  7  8  1  0
  7  9  1  0
  9 10  2  0
 10 11  1  0
  9 12  1  0
  6 13  1  0
  5 14  1  0
  3 15  1  0
  3 16  1  0
  2 17  1  0
 17 18  1  0
 18 19  2  0
 19 20  1  0
 20 21  2  0
 21 22  1  0
 22 23  2  0
 23 24  1  0
 24 25  2  0
 25 26  1  0
 26 27  2  0
 27 28  1  0
 25 29  1  0
 24 30  1  0
 23 31  1  0
 21 32  1  0
 20 33  1  0
 17 34  1  0
 10  4  1  0
 32 18  1  0
 27 22  1  0
M  END
>  <cnnaffinity>  (1) 
-4.72057

>  <filename>  (1) 
O=C(Cc1ccc(Cl)cc1Br)Nc1ncc(-c2cccnc2)s1

$$$$
