
     RDKit          3D

 33 35  0  0  0  0  0  0  0  0999 V2000
    2.6041   -5.3713   22.3627 H   0  0  0  0  0  0  0  0  0  0  0  0
    2.9775   -4.8343   23.2331 C   0  0  0  0  0  0  0  0  0  0  0  0
    4.0970   -4.1221   23.0456 N   0  0  0  0  0  0  0  0  0  0  0  0
    4.6248   -3.4629   24.1050 C   0  0  0  0  0  0  0  0  0  0  0  0
    5.8956   -2.5847   23.9112 C   0  0  0  0  0  0  0  0  0  0  0  0
    6.5881   -2.2389   24.8590 O   0  0  0  0  0  0  0  0  0  0  0  0
    6.1893   -2.2003   22.6388 N   0  0  0  0  0  0  0  0  0  0  0  0
    5.5023   -2.3363   21.9139 H   0  0  0  0  0  0  0  0  0  0  0  0
    7.1166   -1.1381   22.3872 C   0  0  2  0  0  0  0  0  0  0  0  0
    6.8856   -0.2124   22.9453 H   0  0  0  0  0  0  0  0  0  0  0  0
    7.2575   -1.0080   20.9480 N   0  0  0  0  0  0  0  0  0  0  0  0
    6.6828   -0.1596   20.0086 C   0  0  0  0  0  0  0  0  0  0  0  0
    7.2316   -0.0317   18.6996 C   0  0  0  0  0  0  0  0  0  0  0  0
    8.1792   -0.5187   18.4817 H   0  0  0  0  0  0  0  0  0  0  0  0
    6.6633    0.6372   17.6889 N   0  0  0  0  0  0  0  0  0  0  0  0
    5.4948    1.2511   17.9444 C   0  0  0  0  0  0  0  0  0  0  0  0
    5.0311    1.7720   17.1093 H   0  0  0  0  0  0  0  0  0  0  0  0
    4.8872    1.2383   19.2063 C   0  0  0  0  0  0  0  0  0  0  0  0
    3.9570    1.7768   19.3546 H   0  0  0  0  0  0  0  0  0  0  0  0
    5.4863    0.5369   20.2604 C   0  0  0  0  0  0  0  0  0  0  0  0
    5.0555    0.5230   21.2613 H   0  0  0  0  0  0  0  0  0  0  0  0
    8.6731   -1.3833   20.9712 C   0  0  0  0  0  0  0  0  0  0  0  0
    9.3554   -0.5839   20.6445 H   0  0  0  0  0  0  0  0  0  0  0  0
    8.8955   -2.2991   20.4182 H   0  0  0  0  0  0  0  0  0  0  0  0
    8.5905   -1.5983   22.4885 C   0  0  0  0  0  0  0  0  0  0  0  0
    9.2478   -0.9829   23.1008 H   0  0  0  0  0  0  0  0  0  0  0  0
    8.6761   -2.6526   22.7625 H   0  0  0  0  0  0  0  0  0  0  0  0
    4.0478   -3.5326   25.3897 C   0  0  0  0  0  0  0  0  0  0  0  0
    4.5631   -3.0747   26.2293 H   0  0  0  0  0  0  0  0  0  0  0  0
    2.8394   -4.2138   25.5515 C   0  0  0  0  0  0  0  0  0  0  0  0
    2.3591   -4.2528   26.5303 H   0  0  0  0  0  0  0  0  0  0  0  0
    2.2849   -4.8621   24.4471 C   0  0  0  0  0  0  0  0  0  0  0  0
    1.3291   -5.3707   24.5165 H   0  0  0  0  0  0  0  0  0  0  0  0
  1  2  1  0
  2  3  2  0
  3  4  1  0
  4  5  1  0
  5  6  2  0
  5  7  1  0
  7  8  1  0
  7  9  1  0
  9 10  1  1
  9 11  1  0
 11 12  1  0
 12 13  2  0
 13 14  1  0
 13 15  1  0
 15 16  2  0
 16 17  1  0
 16 18  1  0
 18 19  1  0
 18 20  2  0
 20 21  1  0
 11 22  1  0
 22 23  1  0
 22 24  1  0
 22 25  1  0
 25 26  1  0
 25 27  1  0
  4 28  2  0
 28 29  1  0
 28 30  1  0
 30 31  1  0
 30 32  2  0
 32 33  1  0
 32  2  1  0
 25  9  1  0
 20 12  1  0
M  END
>  <cnnaffinity>  (1) 
-4.75305

>  <filename>  (1) 
O=C(N[C@H]1CCN1c1cccnc1)c1ccccn1

$$$$
