
     RDKit          3D

 41 43  0  0  0  0  0  0  0  0999 V2000
    5.7190   -2.0490   21.6503 O   0  0  0  0  0  0  0  0  0  0  0  0
    6.7745   -1.4857   21.8655 C   0  0  0  0  0  0  0  0  0  0  0  0
    7.5680   -1.7378   23.1725 C   0  0  0  0  0  0  0  0  0  0  0  0
    7.5379   -0.6902   24.2857 N   0  0  0  0  0  4  0  0  0  0  0  0
    6.1109   -0.4221   24.7958 C   0  0  0  0  0  0  0  0  0  0  0  0
    6.1191    0.5792   25.9537 C   0  0  0  0  0  0  0  0  0  0  0  0
    6.7830    1.8347   25.5683 N   0  0  0  0  0  0  0  0  0  0  0  0
    6.3997    3.0289   26.1553 C   0  0  0  0  0  0  0  0  0  0  0  0
    7.3508    3.9840   26.6150 C   0  0  0  0  0  0  0  0  0  0  0  0
    6.8801    5.1739   27.1434 C   0  0  0  0  0  0  0  0  0  0  0  0
    5.4799    5.3580   27.1831 C   0  0  0  0  0  0  0  0  0  0  0  0
    4.6346    4.4229   26.7570 N   0  0  0  0  0  0  0  0  0  0  0  0
    5.0814    3.2603   26.2674 N   0  0  0  0  0  0  0  0  0  0  0  0
    5.0090    6.2588   27.5669 H   0  0  0  0  0  0  0  0  0  0  0  0
    7.5457    5.9539   27.5122 H   0  0  0  0  0  0  0  0  0  0  0  0
    8.4024    3.7229   26.5515 H   0  0  0  0  0  0  0  0  0  0  0  0
    8.1165    1.6684   24.9932 C   0  0  0  0  0  0  0  0  0  0  0  0
    8.1045    0.6630   23.8396 C   0  0  0  0  0  0  0  0  0  0  0  0
    9.1181    0.5364   23.4493 H   0  0  0  0  0  0  0  0  0  0  0  0
    7.4574    1.0289   23.0386 H   0  0  0  0  0  0  0  0  0  0  0  0
    8.8418    1.3124   25.7474 H   0  0  0  0  0  0  0  0  0  0  0  0
    8.4719    2.6248   24.5957 H   0  0  0  0  0  0  0  0  0  0  0  0
    6.6326    0.1075   26.8114 H   0  0  0  0  0  0  0  0  0  0  0  0
    5.0915    0.7963   26.2525 H   0  0  0  0  0  0  0  0  0  0  0  0
    5.6461   -1.3665   25.0985 H   0  0  0  0  0  0  0  0  0  0  0  0
    5.5389   -0.0122   23.9603 H   0  0  0  0  0  0  0  0  0  0  0  0
    8.1027   -1.0181   25.1166 H   0  0  0  0  0  0  0  0  0  0  0  0
    7.1475   -2.6715   23.5408 H   0  0  0  0  0  0  0  0  0  0  0  0
    8.6122   -1.8993   22.8938 H   0  0  0  0  0  0  0  0  0  0  0  0
    7.3802   -0.6396   20.9536 N   0  0  0  0  0  0  0  0  0  0  0  0
    6.6979    0.0171   19.8891 C   0  0  0  0  0  0  0  0  0  0  0  0
    5.4686    0.6381   20.1410 C   0  0  0  0  0  0  0  0  0  0  0  0
    4.8210    1.3039   19.0964 C   0  0  0  0  0  0  0  0  0  0  0  0
    5.4051    1.2973   17.8250 C   0  0  0  0  0  0  0  0  0  0  0  0
    6.5700    0.6820   17.5575 N   0  0  0  0  0  0  0  0  0  0  0  0
    7.2006    0.0728   18.5695 C   0  0  0  0  0  0  0  0  0  0  0  0
    8.1436   -0.4193   18.3315 H   0  0  0  0  0  0  0  0  0  0  0  0
    4.9240    1.7995   16.9882 H   0  0  0  0  0  0  0  0  0  0  0  0
    3.8833    1.8320   19.2569 H   0  0  0  0  0  0  0  0  0  0  0  0
    5.0280    0.5930   21.1360 H   0  0  0  0  0  0  0  0  0  0  0  0
    8.3871   -0.6425   20.9514 H   0  0  0  0  0  0  0  0  0  0  0  0
  1  2  2  0
  2  3  1  0
  3  4  1  0
  4  5  1  0
  5  6  1  0
  6  7  1  0
  7  8  1  0
  8  9  2  0
  9 10  1  0
 10 11  2  0
 11 12  1  0
 12 13  2  0
 11 14  1  0
 10 15  1  0
  9 16  1  0
  7 17  1  0
 17 18  1  0
 18 19  1  0
 18 20  1  0
 17 21  1  0
 17 22  1  0
  6 23  1  0
  6 24  1  0
  5 25  1  0
  5 26  1  0
  4 27  1  0
  3 28  1  0
  3 29  1  0
  2 30  1  0
 30 31  1  0
 31 32  2  0
 32 33  1  0
 33 34  2  0
 34 35  1  0
 35 36  2  0
 36 37  1  0
 34 38  1  0
 33 39  1  0
 32 40  1  0
 30 41  1  0
 18  4  1  0
 36 31  1  0
 13  8  1  0
M  CHG  1   4   1
M  END
>  <cnnaffinity>  (1) 
-4.41443

>  <filename>  (1) 
O=C(C[NH+]1CCN(c2cccnn2)CC1)Nc1cccnc1

$$$$
