
     RDKit          3D

 39 41  0  0  0  0  0  0  0  0999 V2000
    5.9942   -2.7360   20.2605 O   0  0  0  0  0  0  0  0  0  0  0  0
    6.5145   -2.1307   21.1873 C   0  0  0  0  0  0  0  0  0  0  0  0
    7.3029   -0.8292   20.9492 C   0  0  0  0  0  0  0  0  0  0  0  0
    6.6955    0.0270   19.8483 C   0  0  0  0  0  0  0  0  0  0  0  0
    5.4843    0.6874   20.0896 C   0  0  0  0  0  0  0  0  0  0  0  0
    4.8544    1.3626   19.0414 C   0  0  0  0  0  0  0  0  0  0  0  0
    5.4698    1.3591   17.7848 C   0  0  0  0  0  0  0  0  0  0  0  0
    6.6341    0.7440   17.5287 N   0  0  0  0  0  0  0  0  0  0  0  0
    7.2223    0.1016   18.5485 C   0  0  0  0  0  0  0  0  0  0  0  0
    8.1668   -0.3945   18.3231 H   0  0  0  0  0  0  0  0  0  0  0  0
    5.0089    1.8716   16.9416 H   0  0  0  0  0  0  0  0  0  0  0  0
    3.9129    1.8820   19.1838 H   0  0  0  0  0  0  0  0  0  0  0  0
    5.0554    0.6510   21.0932 H   0  0  0  0  0  0  0  0  0  0  0  0
    8.3341   -1.1155   20.6997 H   0  0  0  0  0  0  0  0  0  0  0  0
    7.3344   -0.2508   21.8804 H   0  0  0  0  0  0  0  0  0  0  0  0
    6.3964   -2.5863   22.4902 N   0  0  0  0  0  0  0  0  0  0  0  0
    5.5108   -3.7360   22.7187 C   0  0  0  0  0  0  0  0  0  0  0  0
    4.8769   -3.6922   24.1046 C   0  0  0  0  0  0  0  0  0  0  0  0
    5.8745   -3.5073   25.1658 N   0  0  0  0  0  0  0  0  0  0  0  0
    5.5123   -3.9501   26.4290 C   0  0  0  0  0  0  0  0  0  0  0  0
    5.5115   -3.0954   27.5442 C   0  0  0  0  0  0  0  0  0  0  0  0
    5.0452   -3.6145   28.7448 C   0  0  0  0  0  0  0  0  0  0  0  0
    4.9275   -2.5959   30.1423 Cl  0  0  0  0  0  0  0  0  0  0  0  0
    4.6486   -4.9489   28.8335 C   0  0  0  0  0  0  0  0  0  0  0  0
    4.7250   -5.7085   27.6655 C   0  0  0  0  0  0  0  0  0  0  0  0
    5.1017   -5.2239   26.4824 N   0  0  0  0  0  0  0  0  0  0  0  0
    4.4104   -6.7505   27.6712 H   0  0  0  0  0  0  0  0  0  0  0  0
    4.2662   -5.3650   29.7582 H   0  0  0  0  0  0  0  0  0  0  0  0
    5.8008   -2.0619   27.4116 H   0  0  0  0  0  0  0  0  0  0  0  0
    6.7493   -2.3510   24.9415 C   0  0  0  0  0  0  0  0  0  0  0  0
    7.4101   -2.4636   23.5511 C   0  0  0  0  0  0  0  0  0  0  0  0
    8.0595   -1.6064   23.3640 H   0  0  0  0  0  0  0  0  0  0  0  0
    8.0448   -3.3620   23.5655 H   0  0  0  0  0  0  0  0  0  0  0  0
    6.2056   -1.3921   25.0021 H   0  0  0  0  0  0  0  0  0  0  0  0
    7.5412   -2.3329   25.6991 H   0  0  0  0  0  0  0  0  0  0  0  0
    4.1288   -2.8827   24.1428 H   0  0  0  0  0  0  0  0  0  0  0  0
    4.3429   -4.6321   24.2651 H   0  0  0  0  0  0  0  0  0  0  0  0
    4.7184   -3.7219   21.9670 H   0  0  0  0  0  0  0  0  0  0  0  0
    6.0688   -4.6746   22.5840 H   0  0  0  0  0  0  0  0  0  0  0  0
  1  2  2  0
  2  3  1  0
  3  4  1  0
  4  5  2  0
  5  6  1  0
  6  7  2  0
  7  8  1  0
  8  9  2  0
  9 10  1  0
  7 11  1  0
  6 12  1  0
  5 13  1  0
  3 14  1  0
  3 15  1  0
  2 16  1  0
 16 17  1  0
 17 18  1  0
 18 19  1  0
 19 20  1  0
 20 21  2  0
 21 22  1  0
 22 23  1  0
 22 24  2  0
 24 25  1  0
 25 26  2  0
 25 27  1  0
 24 28  1  0
 21 29  1  0
 19 30  1  0
 30 31  1  0
 31 32  1  0
 31 33  1  0
 30 34  1  0
 30 35  1  0
 18 36  1  0
 18 37  1  0
 17 38  1  0
 17 39  1  0
  9  4  1  0
 31 16  1  0
 26 20  1  0
M  END
>  <cnnaffinity>  (1) 
-4.84682

>  <filename>  (1) 
O=C(Cc1cccnc1)N1CCN(c2cc(Cl)ccn2)CC1

$$$$
