
     RDKit          3D

 35 38  0  0  0  0  0  0  0  0999 V2000
    5.1396    1.7685   16.9991 H   0  0  0  0  0  0  0  0  0  0  0  0
    5.5109    1.2592   17.8877 C   0  0  0  0  0  0  0  0  0  0  0  0
    6.6582    0.5835   17.7435 N   0  0  0  0  0  0  0  0  0  0  0  0
    7.1459   -0.0404   18.8189 C   0  0  0  0  0  0  0  0  0  0  0  0
    8.0775   -0.5779   18.6440 H   0  0  0  0  0  0  0  0  0  0  0  0
    6.5328   -0.0383   20.0806 C   0  0  0  0  0  0  0  0  0  0  0  0
    7.1385   -0.7767   21.2337 C   0  0  0  0  0  0  0  0  0  0  0  0
    6.4751   -1.1226   22.1884 O   0  0  0  0  0  0  0  0  0  0  0  0
    8.6049   -1.1510   21.1627 C   0  0  0  0  0  0  0  0  0  0  0  0
    8.6669   -2.0907   20.6038 H   0  0  0  0  0  0  0  0  0  0  0  0
    9.6076   -0.0757   20.6828 C   0  0  0  0  0  0  0  0  0  0  0  0
    9.1937    0.9062   20.4033 H   0  0  0  0  0  0  0  0  0  0  0  0
   10.2238   -0.4823   19.8762 H   0  0  0  0  0  0  0  0  0  0  0  0
   10.2283   -0.1304   21.9880 N   0  0  0  0  0  0  0  0  0  0  0  0
   11.1852    0.5834   22.6562 C   0  0  0  0  0  0  0  0  0  0  0  0
   11.6231    0.1910   23.8827 C   0  0  0  0  0  0  0  0  0  0  0  0
   11.2878   -0.7048   24.3839 H   0  0  0  0  0  0  0  0  0  0  0  0
   12.8104    1.2172   24.5908 S   0  0  0  0  0  0  0  0  0  0  0  0
   12.7488    2.2919   23.2193 C   0  0  0  0  0  0  0  0  0  0  0  0
   13.4651    3.4973   23.0768 C   0  0  0  0  0  0  0  0  0  0  0  0
   14.1335    3.8517   23.8554 H   0  0  0  0  0  0  0  0  0  0  0  0
   13.3057    4.2363   21.9129 C   0  0  0  0  0  0  0  0  0  0  0  0
   13.8496    5.1737   21.8121 H   0  0  0  0  0  0  0  0  0  0  0  0
   12.4654    3.7721   20.8790 C   0  0  0  0  0  0  0  0  0  0  0  0
   12.3915    4.3451   19.9573 H   0  0  0  0  0  0  0  0  0  0  0  0
   11.7572    2.5802   21.0217 C   0  0  0  0  0  0  0  0  0  0  0  0
   11.1256    2.2390   20.2051 H   0  0  0  0  0  0  0  0  0  0  0  0
   11.8594    1.8236   22.2155 C   0  0  0  0  0  0  0  0  0  0  0  0
    9.4096   -1.2265   22.4896 C   0  0  0  0  0  0  0  0  0  0  0  0
    8.8766   -1.0357   23.4340 H   0  0  0  0  0  0  0  0  0  0  0  0
    9.9802   -2.1622   22.5962 H   0  0  0  0  0  0  0  0  0  0  0  0
    5.3121    0.6498   20.2075 C   0  0  0  0  0  0  0  0  0  0  0  0
    4.7775    0.6538   21.1593 H   0  0  0  0  0  0  0  0  0  0  0  0
    4.8021    1.3131   19.0929 C   0  0  0  0  0  0  0  0  0  0  0  0
    3.8757    1.8782   19.1406 H   0  0  0  0  0  0  0  0  0  0  0  0
  1  2  1  0
  2  3  2  0
  3  4  1  0
  4  5  1  0
  4  6  2  0
  6  7  1  0
  7  8  2  0
  7  9  1  0
  9 10  1  0
  9 11  1  0
 11 12  1  0
 11 13  1  0
 11 14  1  0
 14 15  1  0
 15 16  2  0
 16 17  1  0
 16 18  1  0
 18 19  1  0
 19 20  2  0
 20 21  1  0
 20 22  1  0
 22 23  1  0
 22 24  2  0
 24 25  1  0
 24 26  1  0
 26 27  1  0
 26 28  2  0
 14 29  1  0
 29 30  1  0
 29 31  1  0
  6 32  1  0
 32 33  1  0
 32 34  2  0
 34 35  1  0
 34  2  1  0
 29  9  1  0
 28 15  1  0
 28 19  1  0
M  END
>  <cnnaffinity>  (1) 
-5.51633

>  <filename>  (1) 
O=C(c1cccnc1)C1CN(c2csc3ccccc23)C1

$$$$
