
     RDKit          3D

 32 34  0  0  0  0  0  0  0  0999 V2000
   10.3211   -0.6128   28.5366 H   0  0  0  0  0  0  0  0  0  0  0  0
    9.2962   -0.3980   28.2671 C   0  0  0  0  0  0  0  0  0  0  0  0
    8.8755   -0.8788   27.0901 N   0  0  0  0  0  0  0  0  0  0  0  0
    7.6164   -0.5873   26.7024 C   0  0  0  0  0  0  0  0  0  0  0  0
    7.1781   -0.8829   25.2469 C   0  0  0  0  0  0  0  0  0  0  0  0
    6.0425   -0.6456   24.8800 O   0  0  0  0  0  0  0  0  0  0  0  0
    8.1651   -1.3605   24.3993 N   0  0  0  0  0  0  0  0  0  0  0  0
    9.0979   -1.3340   24.7919 H   0  0  0  0  0  0  0  0  0  0  0  0
    8.1067   -1.2752   22.9904 N   0  0  0  0  0  0  0  0  0  0  0  0
    7.2606   -0.3984   22.3242 C   0  0  0  0  0  0  0  0  0  0  0  0
    6.6169    0.2607   22.8847 H   0  0  0  0  0  0  0  0  0  0  0  0
    7.3605   -0.6231   20.9971 C   0  0  0  0  0  0  0  0  0  0  0  0
    6.6557    0.0182   19.8902 C   0  0  0  0  0  0  0  0  0  0  0  0
    7.1810    0.0504   18.5847 C   0  0  0  0  0  0  0  0  0  0  0  0
    8.1320   -0.4292   18.3603 H   0  0  0  0  0  0  0  0  0  0  0  0
    6.5955    0.6679   17.5528 N   0  0  0  0  0  0  0  0  0  0  0  0
    5.4308    1.2929   17.7914 C   0  0  0  0  0  0  0  0  0  0  0  0
    4.9709    1.7912   16.9424 H   0  0  0  0  0  0  0  0  0  0  0  0
    4.8077    1.3131   19.0434 C   0  0  0  0  0  0  0  0  0  0  0  0
    3.8684    1.8388   19.1704 H   0  0  0  0  0  0  0  0  0  0  0  0
    5.4282    0.6693   20.1106 C   0  0  0  0  0  0  0  0  0  0  0  0
    4.9761    0.6597   21.1039 H   0  0  0  0  0  0  0  0  0  0  0  0
    8.3069   -1.6301   20.8290 N   0  0  0  0  0  0  0  0  0  0  0  0
    8.4858   -2.1885   20.0141 H   0  0  0  0  0  0  0  0  0  0  0  0
    8.7568   -2.1152   22.0362 C   0  0  0  0  0  0  0  0  0  0  0  0
    9.5224   -3.0379   22.1946 O   0  0  0  0  0  0  0  0  0  0  0  0
    6.7248    0.1094   27.5407 C   0  0  0  0  0  0  0  0  0  0  0  0
    5.6993    0.2496   27.2232 H   0  0  0  0  0  0  0  0  0  0  0  0
    7.2007    0.6640   28.7290 C   0  0  0  0  0  0  0  0  0  0  0  0
    6.5396    1.2462   29.3621 H   0  0  0  0  0  0  0  0  0  0  0  0
    8.5261    0.4257   29.0906 C   0  0  0  0  0  0  0  0  0  0  0  0
    8.9707    0.8407   29.9884 H   0  0  0  0  0  0  0  0  0  0  0  0
  1  2  1  0
  2  3  2  0
  3  4  1  0
  4  5  1  0
  5  6  2  0
  5  7  1  0
  7  8  1  0
  7  9  1  0
  9 10  1  0
 10 11  1  0
 10 12  2  0
 12 13  1  0
 13 14  2  0
 14 15  1  0
 14 16  1  0
 16 17  2  0
 17 18  1  0
 17 19  1  0
 19 20  1  0
 19 21  2  0
 21 22  1  0
 12 23  1  0
 23 24  1  0
 23 25  1  0
 25 26  2  0
  4 27  2  0
 27 28  1  0
 27 29  1  0
 29 30  1  0
 29 31  2  0
 31 32  1  0
 31  2  1  0
 25  9  1  0
 21 13  1  0
M  END
>  <cnnaffinity>  (1) 
-4.78008

>  <filename>  (1) 
O=C(Nn1cc(-c2cccnc2)[nH]c1=O)c1ccccn1

$$$$
