
     RDKit          3D

 45 47  0  0  0  0  0  0  0  0999 V2000
    7.7722   -2.4962   25.0171 O   0  0  0  0  0  0  0  0  0  0  0  0
    7.1010   -2.0561   24.0906 C   0  0  0  0  0  0  0  0  0  0  0  0
    6.2430   -1.0001   24.2309 N   0  0  0  0  0  0  0  0  0  0  0  0
    6.1011   -0.2811   25.4756 C   0  0  0  0  0  0  0  0  0  0  0  0
    7.3139    0.6215   25.6885 C   0  0  0  0  0  0  0  0  0  0  0  0
    7.2383    1.3404   26.9956 C   0  0  0  0  0  0  0  0  0  0  0  0
    7.7787    0.7907   28.1645 C   0  0  0  0  0  0  0  0  0  0  0  0
    7.6031    1.4517   29.3807 C   0  0  0  0  0  0  0  0  0  0  0  0
    6.9306    2.6084   29.4908 N   0  0  0  0  0  0  0  0  0  0  0  0
    6.3866    3.1289   28.3794 C   0  0  0  0  0  0  0  0  0  0  0  0
    6.5092    2.5220   27.1300 C   0  0  0  0  0  0  0  0  0  0  0  0
    5.9053    3.0704   26.0534 F   0  0  0  0  0  0  0  0  0  0  0  0
    5.8315    4.0620   28.4635 H   0  0  0  0  0  0  0  0  0  0  0  0
    8.0184    1.0378   30.2987 H   0  0  0  0  0  0  0  0  0  0  0  0
    8.3365   -0.1401   28.1147 H   0  0  0  0  0  0  0  0  0  0  0  0
    8.2099   -0.0045   25.6337 H   0  0  0  0  0  0  0  0  0  0  0  0
    7.3579    1.3338   24.8615 H   0  0  0  0  0  0  0  0  0  0  0  0
    6.0109   -0.9865   26.3108 H   0  0  0  0  0  0  0  0  0  0  0  0
    5.1861    0.3222   25.4527 H   0  0  0  0  0  0  0  0  0  0  0  0
    5.5770   -0.8707   23.4954 H   0  0  0  0  0  0  0  0  0  0  0  0
    7.1502   -2.5844   22.8270 N   0  0  0  0  0  0  0  0  0  0  0  0
    7.8558   -3.8520   22.6026 C   0  0  0  0  0  0  0  0  0  0  0  0
    7.8892   -3.9213   21.0866 C   0  0  0  0  0  0  0  0  0  0  0  0
    6.5776   -3.2305   20.6787 C   0  0  0  0  0  0  0  0  0  0  0  0
    6.5386   -2.0204   21.6147 C   0  0  0  0  0  0  0  0  0  0  0  0
    7.2824   -0.7533   21.1166 C   0  0  0  0  0  0  0  0  0  0  0  0
    6.6211   -0.0225   19.9609 C   0  0  0  0  0  0  0  0  0  0  0  0
    5.4185    0.6808   20.1455 C   0  0  0  0  0  0  0  0  0  0  0  0
    4.8227    1.3268   19.0605 C   0  0  0  0  0  0  0  0  0  0  0  0
    5.4635    1.2729   17.8185 C   0  0  0  0  0  0  0  0  0  0  0  0
    6.6227    0.6318   17.6128 N   0  0  0  0  0  0  0  0  0  0  0  0
    7.1784    0.0148   18.6671 C   0  0  0  0  0  0  0  0  0  0  0  0
    8.1312   -0.4796   18.4754 H   0  0  0  0  0  0  0  0  0  0  0  0
    5.0363    1.7815   16.9542 H   0  0  0  0  0  0  0  0  0  0  0  0
    3.8922    1.8781   19.1651 H   0  0  0  0  0  0  0  0  0  0  0  0
    4.9680    0.7261   21.1404 H   0  0  0  0  0  0  0  0  0  0  0  0
    7.3637   -0.0620   21.9684 H   0  0  0  0  0  0  0  0  0  0  0  0
    8.3095   -1.0310   20.8449 H   0  0  0  0  0  0  0  0  0  0  0  0
    5.4904   -1.7421   21.7829 H   0  0  0  0  0  0  0  0  0  0  0  0
    5.7223   -3.8812   20.9167 H   0  0  0  0  0  0  0  0  0  0  0  0
    6.4825   -2.9467   19.6279 H   0  0  0  0  0  0  0  0  0  0  0  0
    7.9964   -4.9354   20.6912 H   0  0  0  0  0  0  0  0  0  0  0  0
    8.7577   -3.3289   20.7643 H   0  0  0  0  0  0  0  0  0  0  0  0
    7.3098   -4.6911   23.0574 H   0  0  0  0  0  0  0  0  0  0  0  0
    8.8567   -3.8362   23.0508 H   0  0  0  0  0  0  0  0  0  0  0  0
  1  2  2  0
  2  3  1  0
  3  4  1  0
  4  5  1  0
  5  6  1  0
  6  7  2  0
  7  8  1  0
  8  9  2  0
  9 10  1  0
 10 11  2  0
 11 12  1  0
 10 13  1  0
  8 14  1  0
  7 15  1  0
  5 16  1  0
  5 17  1  0
  4 18  1  0
  4 19  1  0
  3 20  1  0
  2 21  1  0
 21 22  1  0
 22 23  1  0
 23 24  1  0
 24 25  1  0
 25 26  1  0
 26 27  1  0
 27 28  2  0
 28 29  1  0
 29 30  2  0
 30 31  1  0
 31 32  2  0
 32 33  1  0
 30 34  1  0
 29 35  1  0
 28 36  1  0
 26 37  1  0
 26 38  1  0
 25 39  1  0
 24 40  1  0
 24 41  1  0
 23 42  1  0
 23 43  1  0
 22 44  1  0
 22 45  1  0
 11  6  1  0
 25 21  1  0
 32 27  1  0
M  END
>  <cnnaffinity>  (1) 
-4.80208

>  <filename>  (1) 
O=C(NCCc1ccncc1F)N1CCCC1Cc1cccnc1

$$$$
