
     RDKit          3D

 23 24  0  0  0  0  0  0  0  0999 V2000
    4.9951    1.7938   16.9701 H   0  0  0  0  0  0  0  0  0  0  0  0
    5.4749    1.2982   17.8131 C   0  0  0  0  0  0  0  0  0  0  0  0
    6.6456    0.6926   17.5581 N   0  0  0  0  0  0  0  0  0  0  0  0
    7.2530    0.0530   18.5656 C   0  0  0  0  0  0  0  0  0  0  0  0
    8.2017   -0.4274   18.3386 H   0  0  0  0  0  0  0  0  0  0  0  0
    6.7238   -0.0302   19.8715 C   0  0  0  0  0  0  0  0  0  0  0  0
    7.4127   -0.7136   20.9336 N   0  0  0  0  0  0  0  0  0  0  0  0
    8.2044   -0.2251   21.3420 H   0  0  0  0  0  0  0  0  0  0  0  0
    6.8232   -1.6453   21.7671 C   0  0  0  0  0  0  0  0  0  0  0  0
    5.8027   -2.2396   21.5045 O   0  0  0  0  0  0  0  0  0  0  0  0
    7.6383   -1.9233   23.0158 C   0  0  0  0  0  0  0  0  0  0  0  0
    7.1892   -2.7641   23.5424 H   0  0  0  0  0  0  0  0  0  0  0  0
    8.6515   -2.1947   22.7107 H   0  0  0  0  0  0  0  0  0  0  0  0
    7.7635   -0.7408   23.8943 C   0  0  0  0  0  0  0  0  0  0  0  0
    8.7805    0.0819   23.8903 N   0  0  0  0  0  0  0  0  0  0  0  0
    8.5543    0.9671   24.8896 N   0  0  0  0  0  0  0  0  0  0  0  0
    7.4383    0.7275   25.4749 N   0  0  0  0  0  0  0  0  0  0  0  0
    6.9190   -0.3416   24.8507 N   0  0  0  0  0  0  0  0  0  0  0  0
    6.0152   -0.7021   25.1071 H   0  0  0  0  0  0  0  0  0  0  0  0
    5.5064    0.6110   20.1225 C   0  0  0  0  0  0  0  0  0  0  0  0
    5.0844    0.5730   21.1257 H   0  0  0  0  0  0  0  0  0  0  0  0
    4.8709    1.2839   19.0736 C   0  0  0  0  0  0  0  0  0  0  0  0
    3.9305    1.7987   19.2218 H   0  0  0  0  0  0  0  0  0  0  0  0
  1  2  1  0
  2  3  2  0
  3  4  1  0
  4  5  1  0
  4  6  2  0
  6  7  1  0
  7  8  1  0
  7  9  1  0
  9 10  2  0
  9 11  1  0
 11 12  1  0
 11 13  1  0
 11 14  1  0
 14 15  2  0
 15 16  1  0
 16 17  2  0
 17 18  1  0
 18 19  1  0
  6 20  1  0
 20 21  1  0
 20 22  2  0
 22 23  1  0
 22  2  1  0
 18 14  1  0
M  END
>  <cnnaffinity>  (1) 
-4.57501

>  <filename>  (1) 
O=C(Cc1nnn[nH]1)Nc1cccnc1

$$$$
