
     RDKit          3D

 30 32  0  0  0  0  0  0  0  0999 V2000
    6.0186    5.4359   23.7897 H   0  0  0  0  0  0  0  0  0  0  0  0
    6.2381    4.6571   24.5165 C   0  0  0  0  0  0  0  0  0  0  0  0
    6.5219    3.4498   24.0111 N   0  0  0  0  0  0  0  0  0  0  0  0
    6.8050    2.4560   24.8773 C   0  0  0  0  0  0  0  0  0  0  0  0
    7.1418    1.0405   24.3736 C   0  0  0  0  0  0  0  0  0  0  0  0
    7.3808    0.1421   25.1576 O   0  0  0  0  0  0  0  0  0  0  0  0
    7.1429    0.8529   23.0090 N   0  0  0  0  0  0  0  0  0  0  0  0
    6.9213    1.6086   22.3802 H   0  0  0  0  0  0  0  0  0  0  0  0
    7.5686   -0.3103   22.4278 C   0  0  0  0  0  0  0  0  0  0  0  0
    8.2405   -1.2371   23.0693 N   0  0  0  0  0  0  0  0  0  0  0  0
    8.5105   -2.1950   22.1263 O   0  0  0  0  0  0  0  0  0  0  0  0
    7.9996   -1.8020   20.9746 C   0  0  0  0  0  0  0  0  0  0  0  0
    8.0877   -2.4745   20.1709 H   0  0  0  0  0  0  0  0  0  0  0  0
    7.3771   -0.6061   21.0398 C   0  0  0  0  0  0  0  0  0  0  0  0
    6.6617    0.0652   19.9229 C   0  0  0  0  0  0  0  0  0  0  0  0
    7.1526    0.0847   18.5942 C   0  0  0  0  0  0  0  0  0  0  0  0
    8.0995   -0.3953   18.3510 H   0  0  0  0  0  0  0  0  0  0  0  0
    6.5405    0.6845   17.5620 N   0  0  0  0  0  0  0  0  0  0  0  0
    5.3783    1.3102   17.8122 C   0  0  0  0  0  0  0  0  0  0  0  0
    4.9116    1.8137   16.9630 H   0  0  0  0  0  0  0  0  0  0  0  0
    4.7794    1.3265   19.0756 C   0  0  0  0  0  0  0  0  0  0  0  0
    3.8468    1.8566   19.2236 H   0  0  0  0  0  0  0  0  0  0  0  0
    5.4239    0.6825   20.1388 C   0  0  0  0  0  0  0  0  0  0  0  0
    4.9933    0.6316   21.1378 H   0  0  0  0  0  0  0  0  0  0  0  0
    6.8091    2.6436   26.2692 C   0  0  0  0  0  0  0  0  0  0  0  0
    7.0492    1.7864   26.8862 H   0  0  0  0  0  0  0  0  0  0  0  0
    6.5084    3.8976   26.7864 C   0  0  0  0  0  0  0  0  0  0  0  0
    6.5035    4.0511   27.8634 H   0  0  0  0  0  0  0  0  0  0  0  0
    6.2173    4.9275   25.8895 C   0  0  0  0  0  0  0  0  0  0  0  0
    5.9752    5.9243   26.2346 H   0  0  0  0  0  0  0  0  0  0  0  0
  1  2  1  0
  2  3  2  0
  3  4  1  0
  4  5  1  0
  5  6  2  0
  5  7  1  0
  7  8  1  0
  7  9  1  0
  9 10  2  0
 10 11  1  0
 11 12  1  0
 12 13  1  0
 12 14  2  0
 14 15  1  0
 15 16  2  0
 16 17  1  0
 16 18  1  0
 18 19  2  0
 19 20  1  0
 19 21  1  0
 21 22  1  0
 21 23  2  0
 23 24  1  0
  4 25  2  0
 25 26  1  0
 25 27  1  0
 27 28  1  0
 27 29  2  0
 29 30  1  0
 29  2  1  0
 14  9  1  0
 23 15  1  0
M  END
>  <cnnaffinity>  (1) 
-4.79381

>  <filename>  (1) 
O=C(Nc1nocc1-c1cccnc1)c1ccccn1

$$$$
