
     RDKit          3D

 34 36  0  0  0  0  0  0  0  0999 V2000
    4.9594    1.7974   17.0980 H   0  0  0  0  0  0  0  0  0  0  0  0
    5.3861    1.2174   17.9137 C   0  0  0  0  0  0  0  0  0  0  0  0
    6.5009    0.5283   17.6176 N   0  0  0  0  0  0  0  0  0  0  0  0
    7.0906   -0.1574   18.5995 C   0  0  0  0  0  0  0  0  0  0  0  0
    8.0263   -0.6667   18.3635 H   0  0  0  0  0  0  0  0  0  0  0  0
    6.5831   -0.2292   19.9143 C   0  0  0  0  0  0  0  0  0  0  0  0
    7.3547   -0.8643   20.9435 N   0  0  0  0  0  0  0  0  0  0  0  0
    7.0635   -1.8345   21.8912 C   0  0  0  0  0  0  0  0  0  0  0  0
    5.8641   -2.4885   21.8902 N   0  0  0  0  0  0  0  0  0  0  0  0
    5.1683   -2.1393   21.2612 H   0  0  0  0  0  0  0  0  0  0  0  0
    5.4493   -3.1948   23.0162 C   0  0  0  0  0  0  0  0  0  0  0  0
    6.1084   -3.3416   24.0113 O   0  0  0  0  0  0  0  0  0  0  0  0
    4.1955   -3.7173   22.8141 N   0  0  0  0  0  0  0  0  0  0  0  0
    3.9149   -3.8475   21.8600 H   0  0  0  0  0  0  0  0  0  0  0  0
    3.3457   -4.2430   23.8132 C   0  0  0  0  0  0  0  0  0  0  0  0
    3.3709   -3.7589   25.1311 C   0  0  0  0  0  0  0  0  0  0  0  0
    4.1254   -3.0343   25.4179 H   0  0  0  0  0  0  0  0  0  0  0  0
    2.4494   -4.2392   26.0669 C   0  0  0  0  0  0  0  0  0  0  0  0
    2.4876   -3.8740   27.0936 H   0  0  0  0  0  0  0  0  0  0  0  0
    1.5198   -5.2234   25.7042 C   0  0  0  0  0  0  0  0  0  0  0  0
    0.8221   -5.6131   26.4432 H   0  0  0  0  0  0  0  0  0  0  0  0
    1.5177   -5.7281   24.3974 C   0  0  0  0  0  0  0  0  0  0  0  0
    0.8308   -6.5264   24.1171 H   0  0  0  0  0  0  0  0  0  0  0  0
    2.4273   -5.2361   23.4520 C   0  0  0  0  0  0  0  0  0  0  0  0
    2.4614   -5.6382   22.4436 H   0  0  0  0  0  0  0  0  0  0  0  0
    8.0523   -2.1053   22.6824 N   0  0  0  0  0  0  0  0  0  0  0  0
    9.0485   -1.2839   22.2098 N   0  0  0  0  0  0  0  0  0  0  0  0
    9.9497   -1.1822   22.6396 H   0  0  0  0  0  0  0  0  0  0  0  0
    8.6906   -0.4838   21.1868 C   0  0  0  0  0  0  0  0  0  0  0  0
    9.3655    0.3512   20.6138 O   0  0  0  0  0  0  0  0  0  0  0  0
    5.3960    0.4489   20.1979 C   0  0  0  0  0  0  0  0  0  0  0  0
    4.9871    0.4098   21.2057 H   0  0  0  0  0  0  0  0  0  0  0  0
    4.7959    1.2038   19.1797 C   0  0  0  0  0  0  0  0  0  0  0  0
    3.9070    1.7967   19.3615 H   0  0  0  0  0  0  0  0  0  0  0  0
  1  2  1  0
  2  3  2  0
  3  4  1  0
  4  5  1  0
  4  6  2  0
  6  7  1  0
  7  8  1  0
  8  9  1  0
  9 10  1  0
  9 11  1  0
 11 12  2  0
 11 13  1  0
 13 14  1  0
 13 15  1  0
 15 16  2  0
 16 17  1  0
 16 18  1  0
 18 19  1  0
 18 20  2  0
 20 21  1  0
 20 22  1  0
 22 23  1  0
 22 24  2  0
 24 25  1  0
  8 26  2  0
 26 27  1  0
 27 28  1  0
 27 29  1  0
 29 30  2  0
  6 31  1  0
 31 32  1  0
 31 33  2  0
 33 34  1  0
 33  2  1  0
 29  7  1  0
 24 15  1  0
M  END
>  <cnnaffinity>  (1) 
-5.15554

>  <filename>  (1) 
O=C(Nc1ccccc1)Nc1n[nH]c(=O)n1-c1cccnc1

$$$$
