
     RDKit          3D

 35 38  0  0  0  0  0  0  0  0999 V2000
    4.9781    1.7764   16.9858 H   0  0  0  0  0  0  0  0  0  0  0  0
    5.4148    1.2804   17.8487 C   0  0  0  0  0  0  0  0  0  0  0  0
    6.5709    0.6353   17.6229 N   0  0  0  0  0  0  0  0  0  0  0  0
    7.1520    0.0420   18.6685 C   0  0  0  0  0  0  0  0  0  0  0  0
    8.0819   -0.4887   18.4634 H   0  0  0  0  0  0  0  0  0  0  0  0
    6.6273    0.0762   19.9768 C   0  0  0  0  0  0  0  0  0  0  0  0
    7.3874   -0.5907   21.0423 C   0  0  0  0  0  0  0  0  0  0  0  0
    8.2755   -1.5342   20.8245 N   0  0  0  0  0  0  0  0  0  0  0  0
    8.7764   -1.9787   22.0228 N   0  0  0  0  0  0  0  0  0  0  0  0
    8.1853   -1.2699   22.9381 C   0  0  0  0  0  0  0  0  0  0  0  0
    8.2830   -1.1274   24.6584 S   0  0  0  0  0  0  0  0  0  0  0  0
    7.1452    0.2105   24.4816 C   0  0  0  0  0  0  0  0  0  0  0  0
    6.7315    0.9940   25.5282 N   0  0  0  0  0  0  0  0  0  0  0  0
    5.9813    1.6153   25.2839 H   0  0  0  0  0  0  0  0  0  0  0  0
    6.9750    0.6836   26.8477 C   0  0  0  0  0  0  0  0  0  0  0  0
    7.6213   -0.2866   27.1812 O   0  0  0  0  0  0  0  0  0  0  0  0
    6.3933    1.5997   27.6772 N   0  0  0  0  0  0  0  0  0  0  0  0
    6.1391    2.4715   27.2551 H   0  0  0  0  0  0  0  0  0  0  0  0
    6.4586    1.5233   29.0811 C   0  0  0  0  0  0  0  0  0  0  0  0
    6.6268    2.6792   29.8440 C   0  0  0  0  0  0  0  0  0  0  0  0
    6.6989    3.6376   29.3424 H   0  0  0  0  0  0  0  0  0  0  0  0
    6.7080    2.5962   31.2383 C   0  0  0  0  0  0  0  0  0  0  0  0
    6.8671    3.4819   31.8402 H   0  0  0  0  0  0  0  0  0  0  0  0
    6.5756    1.3579   31.8663 C   0  0  0  0  0  0  0  0  0  0  0  0
    6.7172    1.2294   33.5943 Cl  0  0  0  0  0  0  0  0  0  0  0  0
    6.3469    0.2092   31.1077 C   0  0  0  0  0  0  0  0  0  0  0  0
    6.1688   -0.7365   31.5970 H   0  0  0  0  0  0  0  0  0  0  0  0
    6.3320    0.2853   29.7178 C   0  0  0  0  0  0  0  0  0  0  0  0
    6.2548   -0.6033   29.1051 H   0  0  0  0  0  0  0  0  0  0  0  0
    6.6947    0.4922   23.2984 N   0  0  0  0  0  0  0  0  0  0  0  0
    7.2960   -0.3828   22.4089 N   0  0  0  0  0  0  0  0  0  0  0  0
    5.3986    0.7176   20.1931 C   0  0  0  0  0  0  0  0  0  0  0  0
    4.9379    0.7351   21.1846 H   0  0  0  0  0  0  0  0  0  0  0  0
    4.7901    1.3290   19.0983 C   0  0  0  0  0  0  0  0  0  0  0  0
    3.8444    1.8497   19.1926 H   0  0  0  0  0  0  0  0  0  0  0  0
  1  2  1  0
  2  3  2  0
  3  4  1  0
  4  5  1  0
  4  6  2  0
  6  7  1  0
  7  8  2  0
  8  9  1  0
  9 10  2  0
 10 11  1  0
 11 12  1  0
 12 13  1  0
 13 14  1  0
 13 15  1  0
 15 16  2  0
 15 17  1  0
 17 18  1  0
 17 19  1  0
 19 20  2  0
 20 21  1  0
 20 22  1  0
 22 23  1  0
 22 24  2  0
 24 25  1  0
 24 26  1  0
 26 27  1  0
 26 28  2  0
 28 29  1  0
 12 30  2  0
 30 31  1  0
  6 32  1  0
 32 33  1  0
 32 34  2  0
 34 35  1  0
 34  2  1  0
 31  7  1  0
 31 10  1  0
 28 19  1  0
M  END
>  <cnnaffinity>  (1) 
-5.35559

>  <filename>  (1) 
O=C(Nc1ccc(Cl)cc1)Nc1nn2c(-c3cccnc3)nnc2s1

$$$$
