
     RDKit          3D

 31 32  0  0  0  0  0  0  0  0999 V2000
    9.6198    0.3583   21.3168 O   0  0  0  0  0  0  0  0  0  0  0  0
    8.4482    0.3101   21.6651 C   0  0  0  0  0  0  0  0  0  0  0  0
    7.4258   -0.6483   21.0386 C   0  0  0  0  0  0  0  0  0  0  0  0
    6.6423   -0.0033   19.8995 C   0  0  0  0  0  0  0  0  0  0  0  0
    5.4302    0.6532   20.1407 C   0  0  0  0  0  0  0  0  0  0  0  0
    4.7918    1.3186   19.0882 C   0  0  0  0  0  0  0  0  0  0  0  0
    5.3854    1.3016   17.8234 C   0  0  0  0  0  0  0  0  0  0  0  0
    6.5428    0.6736   17.5655 N   0  0  0  0  0  0  0  0  0  0  0  0
    7.1463    0.0509   18.5851 C   0  0  0  0  0  0  0  0  0  0  0  0
    8.1029   -0.4184   18.3537 H   0  0  0  0  0  0  0  0  0  0  0  0
    4.9189    1.8076   16.9787 H   0  0  0  0  0  0  0  0  0  0  0  0
    3.8631    1.8557   19.2350 H   0  0  0  0  0  0  0  0  0  0  0  0
    5.0014    0.6465   21.1437 H   0  0  0  0  0  0  0  0  0  0  0  0
    8.0016   -1.5085   20.6907 H   0  0  0  0  0  0  0  0  0  0  0  0
    6.7351   -1.0286   21.8043 H   0  0  0  0  0  0  0  0  0  0  0  0
    7.9507    1.1443   22.6127 N   0  0  0  0  0  0  0  0  0  0  0  0
    8.8263    2.1079   23.2576 C   0  0  0  0  0  0  0  0  0  0  0  0
    9.8186    1.4237   24.1658 C   0  0  0  0  0  0  0  0  0  0  0  0
   11.1935    1.3850   24.0846 C   0  0  0  0  0  0  0  0  0  0  0  0
   12.0892    2.0566   23.0791 C   0  0  0  0  0  0  0  0  0  0  0  0
   13.3297    1.4915   23.1089 F   0  0  0  0  0  0  0  0  0  0  0  0
   12.2393    3.3792   23.3806 F   0  0  0  0  0  0  0  0  0  0  0  0
   11.6741    1.9684   22.0687 H   0  0  0  0  0  0  0  0  0  0  0  0
   11.6196    0.6185   25.1247 N   0  0  0  0  0  0  0  0  0  0  0  0
   10.6078    0.1596   25.8746 N   0  0  0  0  0  0  0  0  0  0  0  0
    9.5106    0.6332   25.3024 C   0  0  0  0  0  0  0  0  0  0  0  0
    8.5389    0.4137   25.7337 H   0  0  0  0  0  0  0  0  0  0  0  0
   12.5693    0.3877   25.3926 H   0  0  0  0  0  0  0  0  0  0  0  0
    8.2019    2.8107   23.8169 H   0  0  0  0  0  0  0  0  0  0  0  0
    9.3658    2.6941   22.4983 H   0  0  0  0  0  0  0  0  0  0  0  0
    6.9757    1.0880   22.8447 H   0  0  0  0  0  0  0  0  0  0  0  0
  1  2  2  0
  2  3  1  0
  3  4  1  0
  4  5  2  0
  5  6  1  0
  6  7  2  0
  7  8  1  0
  8  9  2  0
  9 10  1  0
  7 11  1  0
  6 12  1  0
  5 13  1  0
  3 14  1  0
  3 15  1  0
  2 16  1  0
 16 17  1  0
 17 18  1  0
 18 19  2  0
 19 20  1  0
 20 21  1  0
 20 22  1  0
 20 23  1  0
 19 24  1  0
 24 25  1  0
 25 26  2  0
 26 27  1  0
 24 28  1  0
 17 29  1  0
 17 30  1  0
 16 31  1  0
  9  4  1  0
 26 18  1  0
M  END
>  <cnnaffinity>  (1) 
-4.78336

>  <filename>  (1) 
O=C(Cc1cccnc1)NCc1cn[nH]c1C(F)F

$$$$
