
     RDKit          3D

 37 39  0  0  0  0  0  0  0  0999 V2000
    4.9236    1.7851   17.0096 H   0  0  0  0  0  0  0  0  0  0  0  0
    5.4013    1.2901   17.8504 C   0  0  0  0  0  0  0  0  0  0  0  0
    6.5635    0.6741   17.5846 N   0  0  0  0  0  0  0  0  0  0  0  0
    7.1843    0.0548   18.5942 C   0  0  0  0  0  0  0  0  0  0  0  0
    8.1368   -0.4183   18.3629 H   0  0  0  0  0  0  0  0  0  0  0  0
    6.6793   -0.0210   19.9228 C   0  0  0  0  0  0  0  0  0  0  0  0
    7.3443   -0.7538   20.9432 N   0  0  0  0  0  0  0  0  0  0  0  0
    8.6808   -1.1764   20.8926 C   0  0  0  0  0  0  0  0  0  0  0  0
    9.5846   -0.6919   20.2726 O   0  0  0  0  0  0  0  0  0  0  0  0
    8.8243   -2.2458   21.7129 O   0  0  0  0  0  0  0  0  0  0  0  0
    7.5789   -2.6038   22.3063 C   0  0  0  0  0  0  0  0  0  0  0  0
    7.1856   -3.5121   21.8314 H   0  0  0  0  0  0  0  0  0  0  0  0
    7.7709   -2.7927   23.3703 H   0  0  0  0  0  0  0  0  0  0  0  0
    6.6642   -1.3877   22.0760 C   0  0  1  0  0  0  0  0  0  0  0  0
    5.6466   -1.6868   21.7898 H   0  0  0  0  0  0  0  0  0  0  0  0
    6.6154   -0.4763   23.3333 C   0  0  0  0  0  0  0  0  0  0  0  0
    7.6333   -0.2638   23.6706 H   0  0  0  0  0  0  0  0  0  0  0  0
    6.1623    0.4828   23.0489 H   0  0  0  0  0  0  0  0  0  0  0  0
    5.8922   -1.0641   24.4519 N   0  0  0  0  0  0  0  0  0  0  0  0
    4.9184   -1.2845   24.3346 H   0  0  0  0  0  0  0  0  0  0  0  0
    6.4083   -1.4949   25.6325 C   0  0  0  0  0  0  0  0  0  0  0  0
    7.6119   -1.5211   25.8440 O   0  0  0  0  0  0  0  0  0  0  0  0
    5.3741   -1.9727   26.6486 C   0  0  0  0  0  0  0  0  0  0  0  0
    5.8223   -2.8601   27.6396 C   0  0  0  0  0  0  0  0  0  0  0  0
    6.8642   -3.1686   27.6048 H   0  0  0  0  0  0  0  0  0  0  0  0
    4.9775   -3.3061   28.6589 C   0  0  0  0  0  0  0  0  0  0  0  0
    5.3699   -3.9664   29.4287 H   0  0  0  0  0  0  0  0  0  0  0  0
    3.6468   -2.8823   28.7010 C   0  0  0  0  0  0  0  0  0  0  0  0
    2.9935   -3.2340   29.4981 H   0  0  0  0  0  0  0  0  0  0  0  0
    3.1722   -2.0077   27.7159 C   0  0  0  0  0  0  0  0  0  0  0  0
    2.1345   -1.6787   27.7520 H   0  0  0  0  0  0  0  0  0  0  0  0
    4.0219   -1.5576   26.6957 C   0  0  0  0  0  0  0  0  0  0  0  0
    3.6075   -0.8485   25.9777 H   0  0  0  0  0  0  0  0  0  0  0  0
    5.4616    0.6335   20.1734 C   0  0  0  0  0  0  0  0  0  0  0  0
    5.0265    0.6086   21.1701 H   0  0  0  0  0  0  0  0  0  0  0  0
    4.8244    1.3030   19.1212 C   0  0  0  0  0  0  0  0  0  0  0  0
    3.8910    1.8284   19.2748 H   0  0  0  0  0  0  0  0  0  0  0  0
  1  2  1  0
  2  3  2  0
  3  4  1  0
  4  5  1  0
  4  6  2  0
  6  7  1  0
  7  8  1  0
  8  9  2  0
  8 10  1  0
 10 11  1  0
 11 12  1  0
 11 13  1  0
 11 14  1  0
 14 15  1  6
 14 16  1  0
 16 17  1  0
 16 18  1  0
 16 19  1  0
 19 20  1  0
 19 21  1  0
 21 22  2  0
 21 23  1  0
 23 24  2  0
 24 25  1  0
 24 26  1  0
 26 27  1  0
 26 28  2  0
 28 29  1  0
 28 30  1  0
 30 31  1  0
 30 32  2  0
 32 33  1  0
  6 34  1  0
 34 35  1  0
 34 36  2  0
 36 37  1  0
 36  2  1  0
 14  7  1  0
 32 23  1  0
M  END
>  <cnnaffinity>  (1) 
-3.89709

>  <filename>  (1) 
O=C(NC[C@@H]1COC(=O)N1c1cccnc1)c1ccccc1

$$$$
