
     RDKit          3D

 37 39  0  0  0  0  0  0  0  0999 V2000
    7.6018   -2.1954   25.9150 O   0  0  0  0  0  0  0  0  0  0  0  0
    6.7155   -2.7300   25.2679 C   0  0  0  0  0  0  0  0  0  0  0  0
    5.6519   -3.5965   25.9434 C   0  0  0  0  0  0  0  0  0  0  0  0
    4.4171   -2.8180   26.3814 C   0  0  0  0  0  0  0  0  0  0  0  0
    3.1495   -3.0103   25.8235 C   0  0  0  0  0  0  0  0  0  0  0  0
    2.0445   -2.3498   26.1861 N   0  0  0  0  0  0  0  0  0  0  0  0
    2.1595   -1.4647   27.1841 C   0  0  0  0  0  0  0  0  0  0  0  0
    3.3559   -1.1937   27.8329 C   0  0  0  0  0  0  0  0  0  0  0  0
    4.5084   -1.8428   27.3911 C   0  0  0  0  0  0  0  0  0  0  0  0
    5.6759   -1.5115   27.9597 O   0  0  0  0  0  0  0  0  0  0  0  0
    6.4125   -1.7550   27.3606 H   0  0  0  0  0  0  0  0  0  0  0  0
    3.4355   -0.5043   28.6604 H   0  0  0  0  0  0  0  0  0  0  0  0
    1.2331   -0.9588   27.4604 H   0  0  0  0  0  0  0  0  0  0  0  0
    3.0316   -3.7434   25.0232 H   0  0  0  0  0  0  0  0  0  0  0  0
    6.1657   -4.0458   26.8003 H   0  0  0  0  0  0  0  0  0  0  0  0
    5.3870   -4.4079   25.2603 H   0  0  0  0  0  0  0  0  0  0  0  0
    6.5304   -2.5697   23.9338 N   0  0  0  0  0  0  0  0  0  0  0  0
    7.3831   -1.9399   23.0520 C   0  0  0  0  0  0  0  0  0  0  0  0
    8.7731   -2.0105   23.1280 C   0  0  0  0  0  0  0  0  0  0  0  0
    9.4909   -1.4030   22.0953 C   0  0  0  0  0  0  0  0  0  0  0  0
    8.7838   -0.7719   21.0667 C   0  0  0  0  0  0  0  0  0  0  0  0
    7.3780   -0.7901   21.0847 C   0  0  0  0  0  0  0  0  0  0  0  0
    6.5987   -0.1438   20.0032 C   0  0  0  0  0  0  0  0  0  0  0  0
    5.3858    0.5300   20.2206 C   0  0  0  0  0  0  0  0  0  0  0  0
    4.8260    1.2373   19.1576 C   0  0  0  0  0  0  0  0  0  0  0  0
    5.4678    1.2209   17.9147 C   0  0  0  0  0  0  0  0  0  0  0  0
    6.5816    0.5135   17.6723 N   0  0  0  0  0  0  0  0  0  0  0  0
    7.1161   -0.1521   18.6993 C   0  0  0  0  0  0  0  0  0  0  0  0
    8.0090   -0.7310   18.4608 H   0  0  0  0  0  0  0  0  0  0  0  0
    5.0633    1.7858   17.0767 H   0  0  0  0  0  0  0  0  0  0  0  0
    3.9192    1.8173   19.2854 H   0  0  0  0  0  0  0  0  0  0  0  0
    4.9119    0.5072   21.2041 H   0  0  0  0  0  0  0  0  0  0  0  0
    6.6874   -1.3673   22.0735 N   0  0  0  0  0  0  0  0  0  0  0  0
    9.2901   -0.2455   20.2688 H   0  0  0  0  0  0  0  0  0  0  0  0
   10.5823   -1.4303   22.0742 H   0  0  0  0  0  0  0  0  0  0  0  0
    9.2324   -2.5231   23.9629 H   0  0  0  0  0  0  0  0  0  0  0  0
    5.5921   -2.4232   23.5990 H   0  0  0  0  0  0  0  0  0  0  0  0
  1  2  2  0
  2  3  1  0
  3  4  1  0
  4  5  2  0
  5  6  1  0
  6  7  2  0
  7  8  1  0
  8  9  2  0
  9 10  1  0
 10 11  1  0
  8 12  1  0
  7 13  1  0
  5 14  1  0
  3 15  1  0
  3 16  1  0
  2 17  1  0
 17 18  1  0
 18 19  2  0
 19 20  1  0
 20 21  2  0
 21 22  1  0
 22 23  1  0
 23 24  2  0
 24 25  1  0
 25 26  2  0
 26 27  1  0
 27 28  2  0
 28 29  1  0
 26 30  1  0
 25 31  1  0
 24 32  1  0
 22 33  2  0
 21 34  1  0
 20 35  1  0
 19 36  1  0
 17 37  1  0
  9  4  1  0
 33 18  1  0
 28 23  1  0
M  END
>  <cnnaffinity>  (1) 
-5.26068

>  <filename>  (1) 
O=C(Cc1cnccc1O)Nc1cccc(-c2cccnc2)n1

$$$$
