
     RDKit          3D

 28 28  0  0  0  0  0  0  0  0999 V2000
   11.7486   -3.6802   25.1865 H   0  0  0  0  0  0  0  0  0  0  0  0
   11.2975   -4.0952   24.4239 O   0  0  0  0  0  0  0  0  0  0  0  0
   10.6429   -3.0700   23.7294 N   0  0  0  0  0  0  0  0  0  0  0  0
    9.6623   -3.2973   23.6222 H   0  0  0  0  0  0  0  0  0  0  0  0
   11.1941   -2.4528   22.6024 C   0  0  0  0  0  0  0  0  0  0  0  0
   12.3729   -2.3701   22.3394 O   0  0  0  0  0  0  0  0  0  0  0  0
   10.1237   -1.7683   21.7640 C   0  0  0  0  0  0  0  0  0  0  0  0
   10.6576   -1.4092   20.8821 H   0  0  0  0  0  0  0  0  0  0  0  0
    9.4027   -2.5111   21.4071 H   0  0  0  0  0  0  0  0  0  0  0  0
    9.3878   -0.6179   22.4817 C   0  0  0  0  0  0  0  0  0  0  0  0
   10.1133    0.0765   22.9197 H   0  0  0  0  0  0  0  0  0  0  0  0
    8.7843   -1.0090   23.3134 H   0  0  0  0  0  0  0  0  0  0  0  0
    8.4838    0.1736   21.5325 C   0  0  2  0  0  0  0  0  0  0  0  0
    9.0813    0.6071   20.7191 H   0  0  0  0  0  0  0  0  0  0  0  0
    7.8231    1.5961   22.4262 Cl  0  0  0  0  0  0  0  0  0  0  0  0
    7.3269   -0.6574   20.9555 C   0  0  0  0  0  0  0  0  0  0  0  0
    6.6485   -0.9189   21.7773 H   0  0  0  0  0  0  0  0  0  0  0  0
    7.7479   -1.5971   20.5772 H   0  0  0  0  0  0  0  0  0  0  0  0
    6.5830    0.0186   19.8313 C   0  0  0  0  0  0  0  0  0  0  0  0
    7.1086    0.0413   18.5267 C   0  0  0  0  0  0  0  0  0  0  0  0
    8.0347   -0.4954   18.3047 H   0  0  0  0  0  0  0  0  0  0  0  0
    6.5389    0.6772   17.4953 N   0  0  0  0  0  0  0  0  0  0  0  0
    5.3919    1.3313   17.7366 C   0  0  0  0  0  0  0  0  0  0  0  0
    4.9508    1.8440   16.8861 H   0  0  0  0  0  0  0  0  0  0  0  0
    4.7690    1.3652   18.9896 C   0  0  0  0  0  0  0  0  0  0  0  0
    3.8369    1.9075   19.1194 H   0  0  0  0  0  0  0  0  0  0  0  0
    5.3815    0.6983   20.0522 C   0  0  0  0  0  0  0  0  0  0  0  0
    4.9453    0.6970   21.0526 H   0  0  0  0  0  0  0  0  0  0  0  0
  1  2  1  0
  2  3  1  0
  3  4  1  0
  3  5  1  0
  5  6  2  0
  5  7  1  0
  7  8  1  0
  7  9  1  0
  7 10  1  0
 10 11  1  0
 10 12  1  0
 10 13  1  0
 13 14  1  6
 13 15  1  0
 13 16  1  0
 16 17  1  0
 16 18  1  0
 16 19  1  0
 19 20  2  0
 20 21  1  0
 20 22  1  0
 22 23  2  0
 23 24  1  0
 23 25  1  0
 25 26  1  0
 25 27  2  0
 27 28  1  0
 27 19  1  0
M  END
>  <cnnaffinity>  (1) 
-4.77146

>  <filename>  (1) 
O=C(CC[C@H](Cl)Cc1cccnc1)NO

$$$$
