
     RDKit          3D

 41 43  0  0  0  0  0  0  0  0999 V2000
    7.1427    0.9363   22.6103 O   0  0  0  0  0  0  0  0  0  0  0  0
    7.3875   -0.2077   22.2855 C   0  0  0  0  0  0  0  0  0  0  0  0
    7.7861   -1.2945   23.3288 C   0  0  0  0  0  0  0  0  0  0  0  0
    6.6886   -2.0112   23.9961 N   0  0  0  0  0  0  0  0  0  0  0  0
    5.8718   -2.9080   23.3696 C   0  0  0  0  0  0  0  0  0  0  0  0
    6.1758   -3.3683   22.2765 O   0  0  0  0  0  0  0  0  0  0  0  0
    4.5836   -3.2695   24.0924 C   0  0  0  0  0  0  0  0  0  0  0  0
    3.9494   -2.4268   25.0320 C   0  0  0  0  0  0  0  0  0  0  0  0
    2.6630   -2.7140   25.4893 C   0  0  0  0  0  0  0  0  0  0  0  0
    2.0157   -3.8816   25.0802 C   0  0  0  0  0  0  0  0  0  0  0  0
    2.6561   -4.7815   24.2076 C   0  0  0  0  0  0  0  0  0  0  0  0
    2.0059   -6.0655   23.8155 C   0  0  0  0  0  0  0  0  0  0  0  0
    1.3613   -6.8772   24.7620 C   0  0  0  0  0  0  0  0  0  0  0  0
    0.7903   -8.0825   24.3487 C   0  0  0  0  0  0  0  0  0  0  0  0
    0.8112   -8.5199   23.0793 N   0  0  0  0  0  0  0  0  0  0  0  0
    1.4257   -7.7405   22.1753 C   0  0  0  0  0  0  0  0  0  0  0  0
    2.0301   -6.5224   22.4883 C   0  0  0  0  0  0  0  0  0  0  0  0
    2.4915   -5.9263   21.7075 H   0  0  0  0  0  0  0  0  0  0  0  0
    1.4423   -8.1002   21.1470 H   0  0  0  0  0  0  0  0  0  0  0  0
    0.2855   -8.7163   25.0775 H   0  0  0  0  0  0  0  0  0  0  0  0
    1.3145   -6.5829   25.8071 H   0  0  0  0  0  0  0  0  0  0  0  0
    3.9278   -4.4484   23.7081 C   0  0  0  0  0  0  0  0  0  0  0  0
    4.4172   -5.1242   23.0082 H   0  0  0  0  0  0  0  0  0  0  0  0
    1.0075   -4.0949   25.4278 H   0  0  0  0  0  0  0  0  0  0  0  0
    2.1621   -2.0253   26.1655 H   0  0  0  0  0  0  0  0  0  0  0  0
    4.4182   -1.5086   25.3854 H   0  0  0  0  0  0  0  0  0  0  0  0
    6.3755   -1.6678   24.8870 H   0  0  0  0  0  0  0  0  0  0  0  0
    8.3689   -0.7865   24.0997 H   0  0  0  0  0  0  0  0  0  0  0  0
    8.4490   -2.0083   22.8320 H   0  0  0  0  0  0  0  0  0  0  0  0
    7.3544   -0.6735   20.9790 N   0  0  0  0  0  0  0  0  0  0  0  0
    6.7122    0.0285   19.8993 C   0  0  0  0  0  0  0  0  0  0  0  0
    5.5041    0.6967   20.1287 C   0  0  0  0  0  0  0  0  0  0  0  0
    4.8547    1.3147   19.0567 C   0  0  0  0  0  0  0  0  0  0  0  0
    5.4481    1.2739   17.7925 C   0  0  0  0  0  0  0  0  0  0  0  0
    6.6089    0.6430   17.5472 N   0  0  0  0  0  0  0  0  0  0  0  0
    7.2175    0.0295   18.5743 C   0  0  0  0  0  0  0  0  0  0  0  0
    8.1448   -0.4931   18.3358 H   0  0  0  0  0  0  0  0  0  0  0  0
    4.9741    1.7631   16.9459 H   0  0  0  0  0  0  0  0  0  0  0  0
    3.9073    1.8226   19.2011 H   0  0  0  0  0  0  0  0  0  0  0  0
    5.0968    0.7238   21.1387 H   0  0  0  0  0  0  0  0  0  0  0  0
    7.2666   -1.6830   20.9393 H   0  0  0  0  0  0  0  0  0  0  0  0
  1  2  2  0
  2  3  1  0
  3  4  1  0
  4  5  1  0
  5  6  2  0
  5  7  1  0
  7  8  2  0
  8  9  1  0
  9 10  2  0
 10 11  1  0
 11 12  1  0
 12 13  2  0
 13 14  1  0
 14 15  2  0
 15 16  1  0
 16 17  2  0
 17 18  1  0
 16 19  1  0
 14 20  1  0
 13 21  1  0
 11 22  2  0
 22 23  1  0
 10 24  1  0
  9 25  1  0
  8 26  1  0
  4 27  1  0
  3 28  1  0
  3 29  1  0
  2 30  1  0
 30 31  1  0
 31 32  2  0
 32 33  1  0
 33 34  2  0
 34 35  1  0
 35 36  2  0
 36 37  1  0
 34 38  1  0
 33 39  1  0
 32 40  1  0
 30 41  1  0
 22  7  1  0
 36 31  1  0
 17 12  1  0
M  END
>  <cnnaffinity>  (1) 
-5.11673

>  <filename>  (1) 
O=C(CNC(=O)c1cccc(-c2ccncc2)c1)Nc1cccnc1

$$$$
