
     RDKit          3D

 44 47  0  0  0  0  0  0  0  0999 V2000
   11.7578   -0.7301   20.9236 O   0  0  0  0  0  0  0  0  0  0  0  0
   11.1494   -1.0700   21.9170 C   0  0  0  0  0  0  0  0  0  0  0  0
   10.2649   -2.2886   22.0021 C   0  0  0  0  0  0  0  0  0  0  0  0
    8.8833   -1.7617   22.0783 C   0  0  0  0  0  0  0  0  0  0  0  0
    8.1266   -1.5240   23.1800 C   0  0  0  0  0  0  0  0  0  0  0  0
    6.7238   -0.6280   22.7256 S   0  0  0  0  0  0  0  0  0  0  0  0
    7.2476   -0.6919   21.0689 C   0  0  0  0  0  0  0  0  0  0  0  0
    6.5524   -0.0454   19.9575 C   0  0  0  0  0  0  0  0  0  0  0  0
    5.3657    0.6889   20.1036 C   0  0  0  0  0  0  0  0  0  0  0  0
    4.8533    1.3310   18.9752 C   0  0  0  0  0  0  0  0  0  0  0  0
    5.5450    1.2271   17.7644 C   0  0  0  0  0  0  0  0  0  0  0  0
    6.6890    0.5380   17.6232 N   0  0  0  0  0  0  0  0  0  0  0  0
    7.1761   -0.0806   18.7013 C   0  0  0  0  0  0  0  0  0  0  0  0
    8.1287   -0.5996   18.5752 H   0  0  0  0  0  0  0  0  0  0  0  0
    5.1743    1.7186   16.8662 H   0  0  0  0  0  0  0  0  0  0  0  0
    3.9493    1.9298   19.0226 H   0  0  0  0  0  0  0  0  0  0  0  0
    4.8827    0.7808   21.0784 H   0  0  0  0  0  0  0  0  0  0  0  0
    8.3872   -1.2991   20.8998 N   0  0  0  0  0  0  0  0  0  0  0  0
    8.2868   -1.8838   24.1842 H   0  0  0  0  0  0  0  0  0  0  0  0
   10.5291   -2.9334   22.8418 H   0  0  0  0  0  0  0  0  0  0  0  0
   10.3494   -2.7918   21.0527 H   0  0  0  0  0  0  0  0  0  0  0  0
   11.1713   -0.3645   23.0840 N   0  0  0  0  0  0  0  0  0  0  0  0
   11.3479    1.0911   23.0963 C   0  0  0  0  0  0  0  0  0  0  0  0
   11.7606    1.4566   24.5273 C   0  0  0  0  0  0  0  0  0  0  0  0
   10.5382    1.5384   25.4472 C   0  0  0  0  0  0  0  0  0  0  0  0
    9.5752    2.6328   24.9790 C   0  0  0  0  0  0  0  0  0  0  0  0
    9.2219    2.4989   23.5110 C   0  0  0  0  0  0  0  0  0  0  0  0
    8.0359    3.0832   23.0366 C   0  0  0  0  0  0  0  0  0  0  0  0
    7.6637    2.9627   21.7010 C   0  0  0  0  0  0  0  0  0  0  0  0
    8.5113    2.2911   20.8131 C   0  0  0  0  0  0  0  0  0  0  0  0
    9.7066    1.7428   21.2667 C   0  0  0  0  0  0  0  0  0  0  0  0
   10.0716    1.8160   22.6214 C   0  0  0  0  0  0  0  0  0  0  0  0
   10.3698    1.2161   20.5905 H   0  0  0  0  0  0  0  0  0  0  0  0
    8.2094    2.1566   19.7786 H   0  0  0  0  0  0  0  0  0  0  0  0
    6.7209    3.3817   21.3472 H   0  0  0  0  0  0  0  0  0  0  0  0
    7.4037    3.6358   23.7288 H   0  0  0  0  0  0  0  0  0  0  0  0
    8.6519    2.6050   25.5689 H   0  0  0  0  0  0  0  0  0  0  0  0
    9.9970    3.6379   25.1215 H   0  0  0  0  0  0  0  0  0  0  0  0
   10.0048    0.5761   25.4323 H   0  0  0  0  0  0  0  0  0  0  0  0
   10.8472    1.6913   26.4770 H   0  0  0  0  0  0  0  0  0  0  0  0
   12.4717    0.7023   24.8852 H   0  0  0  0  0  0  0  0  0  0  0  0
   12.2735    2.4228   24.5199 H   0  0  0  0  0  0  0  0  0  0  0  0
   12.1474    1.3156   22.3820 H   0  0  0  0  0  0  0  0  0  0  0  0
   10.4552   -0.6807   23.7099 H   0  0  0  0  0  0  0  0  0  0  0  0
  1  2  2  0
  2  3  1  0
  3  4  1  0
  4  5  2  0
  5  6  1  0
  6  7  1  0
  7  8  1  0
  8  9  2  0
  9 10  1  0
 10 11  2  0
 11 12  1  0
 12 13  2  0
 13 14  1  0
 11 15  1  0
 10 16  1  0
  9 17  1  0
  7 18  2  0
  5 19  1  0
  3 20  1  0
  3 21  1  0
  2 22  1  0
 22 23  1  0
 23 24  1  0
 24 25  1  0
 25 26  1  0
 26 27  1  0
 27 28  2  0
 28 29  1  0
 29 30  2  0
 30 31  1  0
 31 32  2  0
 31 33  1  0
 30 34  1  0
 29 35  1  0
 28 36  1  0
 26 37  1  0
 26 38  1  0
 25 39  1  0
 25 40  1  0
 24 41  1  0
 24 42  1  0
 23 43  1  0
 22 44  1  0
 18  4  1  0
 32 23  1  0
 13  8  1  0
 32 27  1  0
M  END
>  <cnnaffinity>  (1) 
-5.84274

>  <filename>  (1) 
O=C(Cc1csc(-c2cccnc2)n1)NC1CCCc2ccccc21

$$$$
