
     RDKit          3D

 37 38  0  0  0  0  0  0  0  0999 V2000
    5.6315   -2.3209   21.0851 O   0  0  0  0  0  0  0  0  0  0  0  0
    6.6273   -1.8445   21.5745 C   0  0  0  0  0  0  0  0  0  0  0  0
    7.2295   -2.3634   22.8882 C   0  0  0  0  0  0  0  0  0  0  0  0
    6.2245   -3.1209   23.7407 C   0  0  0  0  0  0  0  0  0  0  0  0
    5.3921   -2.3886   24.5989 C   0  0  0  0  0  0  0  0  0  0  0  0
    4.3110   -2.9715   25.2684 C   0  0  0  0  0  0  0  0  0  0  0  0
    4.1222   -4.3419   25.1422 C   0  0  0  0  0  0  0  0  0  0  0  0
    3.1058   -4.9306   25.7938 F   0  0  0  0  0  0  0  0  0  0  0  0
    4.9556   -5.1267   24.3519 C   0  0  0  0  0  0  0  0  0  0  0  0
    6.0054   -4.5098   23.6364 C   0  0  0  0  0  0  0  0  0  0  0  0
    6.9332   -5.3345   22.7557 C   0  0  0  0  0  0  0  0  0  0  0  0
    8.1960   -5.3475   23.2383 F   0  0  0  0  0  0  0  0  0  0  0  0
    7.0176   -4.8454   21.5025 F   0  0  0  0  0  0  0  0  0  0  0  0
    6.5484   -6.6163   22.6423 F   0  0  0  0  0  0  0  0  0  0  0  0
    4.7632   -6.1963   24.3184 H   0  0  0  0  0  0  0  0  0  0  0  0
    3.5888   -2.3986   25.8379 H   0  0  0  0  0  0  0  0  0  0  0  0
    5.5853   -1.3226   24.6940 H   0  0  0  0  0  0  0  0  0  0  0  0
    7.5854   -1.4925   23.4468 H   0  0  0  0  0  0  0  0  0  0  0  0
    8.1047   -2.9702   22.6372 H   0  0  0  0  0  0  0  0  0  0  0  0
    7.3240   -0.7732   20.9467 N   0  0  0  0  0  0  0  0  0  0  0  0
    8.6219   -0.2278   21.3571 C   0  0  0  0  0  0  0  0  0  0  0  0
    8.5557    1.1071   22.0926 C   0  0  0  0  0  0  0  0  0  0  0  0
    7.8742    0.9867   23.2685 F   0  0  0  0  0  0  0  0  0  0  0  0
    9.8337    1.4769   22.3918 F   0  0  0  0  0  0  0  0  0  0  0  0
    8.0909    1.9057   21.5093 H   0  0  0  0  0  0  0  0  0  0  0  0
    9.2409   -0.0502   20.4686 H   0  0  0  0  0  0  0  0  0  0  0  0
    9.1885   -0.9121   21.9961 H   0  0  0  0  0  0  0  0  0  0  0  0
    6.6667   -0.0425   19.8879 C   0  0  0  0  0  0  0  0  0  0  0  0
    5.4601    0.6255   20.1457 C   0  0  0  0  0  0  0  0  0  0  0  0
    4.8289    1.3126   19.1022 C   0  0  0  0  0  0  0  0  0  0  0  0
    5.4275    1.3079   17.8383 C   0  0  0  0  0  0  0  0  0  0  0  0
    6.5917    0.6935   17.5753 N   0  0  0  0  0  0  0  0  0  0  0  0
    7.1983    0.0523   18.5828 C   0  0  0  0  0  0  0  0  0  0  0  0
    8.1428   -0.4342   18.3391 H   0  0  0  0  0  0  0  0  0  0  0  0
    4.9508    1.8083   16.9981 H   0  0  0  0  0  0  0  0  0  0  0  0
    3.8882    1.8381   19.2510 H   0  0  0  0  0  0  0  0  0  0  0  0
    5.0287    0.5858   21.1459 H   0  0  0  0  0  0  0  0  0  0  0  0
  1  2  2  0
  2  3  1  0
  3  4  1  0
  4  5  2  0
  5  6  1  0
  6  7  2  0
  7  8  1  0
  7  9  1  0
  9 10  2  0
 10 11  1  0
 11 12  1  0
 11 13  1  0
 11 14  1  0
  9 15  1  0
  6 16  1  0
  5 17  1  0
  3 18  1  0
  3 19  1  0
  2 20  1  0
 20 21  1  0
 21 22  1  0
 22 23  1  0
 22 24  1  0
 22 25  1  0
 21 26  1  0
 21 27  1  0
 20 28  1  0
 28 29  2  0
 29 30  1  0
 30 31  2  0
 31 32  1  0
 32 33  2  0
 33 34  1  0
 31 35  1  0
 30 36  1  0
 29 37  1  0
 10  4  1  0
 33 28  1  0
M  END
>  <cnnaffinity>  (1) 
-5.66335

>  <filename>  (1) 
O=C(Cc1ccc(F)cc1C(F)(F)F)N(CC(F)F)c1cccnc1

$$$$
