
     RDKit          3D

 30 32  0  0  0  0  0  0  0  0999 V2000
    4.9120    1.7897   16.9859 H   0  0  0  0  0  0  0  0  0  0  0  0
    5.3932    1.3015   17.8257 C   0  0  0  0  0  0  0  0  0  0  0  0
    6.5539    0.6831   17.5566 N   0  0  0  0  0  0  0  0  0  0  0  0
    7.1617    0.0747   18.5778 C   0  0  0  0  0  0  0  0  0  0  0  0
    8.1053   -0.4243   18.3632 H   0  0  0  0  0  0  0  0  0  0  0  0
    6.6522    0.0231   19.8857 C   0  0  0  0  0  0  0  0  0  0  0  0
    7.3649   -0.6970   20.9640 C   0  0  0  0  0  0  0  0  0  0  0  0
    8.7602   -0.5951   21.1564 C   0  0  0  0  0  0  0  0  0  0  0  0
    9.3533    0.0406   20.5137 H   0  0  0  0  0  0  0  0  0  0  0  0
    9.4135   -1.2369   22.1250 N   0  0  0  0  0  0  0  0  0  0  0  0
    8.7356   -2.0183   22.9718 N   0  0  0  0  0  0  0  0  0  0  0  0
    7.4039   -2.1682   22.8484 C   0  0  0  0  0  0  0  0  0  0  0  0
    6.6538   -3.0995   23.7761 C   0  0  0  0  0  0  0  0  0  0  0  0
    5.5565   -3.5273   23.4656 O   0  0  0  0  0  0  0  0  0  0  0  0
    7.2852   -3.4932   25.0895 C   0  0  0  0  0  0  0  0  0  0  0  0
    8.0706   -2.6220   25.8537 C   0  0  0  0  0  0  0  0  0  0  0  0
    8.3036   -1.6132   25.5311 H   0  0  0  0  0  0  0  0  0  0  0  0
    8.5964   -3.0695   27.0614 C   0  0  0  0  0  0  0  0  0  0  0  0
    9.2268   -2.3838   27.6065 H   0  0  0  0  0  0  0  0  0  0  0  0
    8.3899   -4.2875   27.5802 N   0  0  0  0  0  0  0  0  0  0  0  0
    7.6190   -5.1141   26.8558 C   0  0  0  0  0  0  0  0  0  0  0  0
    7.4410   -6.0974   27.2784 H   0  0  0  0  0  0  0  0  0  0  0  0
    7.0486   -4.7691   25.6293 C   0  0  0  0  0  0  0  0  0  0  0  0
    6.4141   -5.4713   25.1049 H   0  0  0  0  0  0  0  0  0  0  0  0
    6.6758   -1.5121   21.8431 C   0  0  0  0  0  0  0  0  0  0  0  0
    5.6061   -1.6769   21.7484 H   0  0  0  0  0  0  0  0  0  0  0  0
    5.4301    0.6585   20.1430 C   0  0  0  0  0  0  0  0  0  0  0  0
    5.0165    0.6367   21.1569 H   0  0  0  0  0  0  0  0  0  0  0  0
    4.7997    1.3221   19.0941 C   0  0  0  0  0  0  0  0  0  0  0  0
    3.8672    1.8492   19.2520 H   0  0  0  0  0  0  0  0  0  0  0  0
  1  2  1  0
  2  3  2  0
  3  4  1  0
  4  5  1  0
  4  6  2  0
  6  7  1  0
  7  8  2  0
  8  9  1  0
  8 10  1  0
 10 11  2  0
 11 12  1  0
 12 13  1  0
 13 14  2  0
 13 15  1  0
 15 16  2  0
 16 17  1  0
 16 18  1  0
 18 19  1  0
 18 20  2  0
 20 21  1  0
 21 22  1  0
 21 23  2  0
 23 24  1  0
 12 25  2  0
 25 26  1  0
  6 27  1  0
 27 28  1  0
 27 29  2  0
 29 30  1  0
 29  2  1  0
 25  7  1  0
 23 15  1  0
M  END
>  <cnnaffinity>  (1) 
-5.12419

>  <filename>  (1) 
O=C(c1ccncc1)c1cc(-c2cccnc2)cnn1

$$$$
