
     RDKit          3D

 33 35  0  0  0  0  0  0  0  0999 V2000
    4.8650    1.8419   16.9197 H   0  0  0  0  0  0  0  0  0  0  0  0
    5.3541    1.3280   17.7430 C   0  0  0  0  0  0  0  0  0  0  0  0
    6.5004    0.6978   17.4406 N   0  0  0  0  0  0  0  0  0  0  0  0
    7.1499    0.0780   18.4330 C   0  0  0  0  0  0  0  0  0  0  0  0
    8.0831   -0.4185   18.1795 H   0  0  0  0  0  0  0  0  0  0  0  0
    6.6916    0.0411   19.7635 C   0  0  0  0  0  0  0  0  0  0  0  0
    7.4429   -0.6269   20.7612 N   0  0  0  0  0  0  0  0  0  0  0  0
    8.8402   -0.6030   21.0145 C   0  0  0  0  0  0  0  0  0  0  0  0
    9.6586    0.0274   20.3760 O   0  0  0  0  0  0  0  0  0  0  0  0
    8.9783   -1.4618   22.1835 C   0  0  0  0  0  0  0  0  0  0  0  0
    9.9624   -1.5885   22.6047 H   0  0  0  0  0  0  0  0  0  0  0  0
    7.7429   -1.9177   22.5540 C   0  0  0  0  0  0  0  0  0  0  0  0
    7.2042   -2.7316   23.7235 C   0  0  0  0  0  0  0  0  0  0  0  0
    6.0077   -2.9371   23.8571 O   0  0  0  0  0  0  0  0  0  0  0  0
    8.1501   -3.1718   24.5987 N   0  0  0  0  0  0  0  0  0  0  0  0
    9.1051   -3.0918   24.2958 H   0  0  0  0  0  0  0  0  0  0  0  0
    7.9206   -3.7644   25.8575 C   0  0  0  0  0  0  0  0  0  0  0  0
    8.9415   -4.5253   26.4316 C   0  0  0  0  0  0  0  0  0  0  0  0
    9.9033   -4.5937   25.9316 H   0  0  0  0  0  0  0  0  0  0  0  0
    8.7180   -5.1910   27.6390 C   0  0  0  0  0  0  0  0  0  0  0  0
    9.4996   -5.7907   28.0888 H   0  0  0  0  0  0  0  0  0  0  0  0
    7.5000   -5.0637   28.3113 C   0  0  0  0  0  0  0  0  0  0  0  0
    7.3475   -5.6096   29.2405 H   0  0  0  0  0  0  0  0  0  0  0  0
    6.5056   -4.2410   27.7707 C   0  0  0  0  0  0  0  0  0  0  0  0
    5.5512   -4.1268   28.2843 H   0  0  0  0  0  0  0  0  0  0  0  0
    6.7141   -3.5777   26.5564 C   0  0  0  0  0  0  0  0  0  0  0  0
    5.9417   -2.9681   26.1085 H   0  0  0  0  0  0  0  0  0  0  0  0
    6.8183   -1.4583   21.6512 N   0  0  0  0  0  0  0  0  0  0  0  0
    5.8270   -1.3341   21.8397 H   0  0  0  0  0  0  0  0  0  0  0  0
    5.4772    0.6815   20.0606 C   0  0  0  0  0  0  0  0  0  0  0  0
    5.0926    0.6756   21.0809 H   0  0  0  0  0  0  0  0  0  0  0  0
    4.8014    1.3403   19.0302 C   0  0  0  0  0  0  0  0  0  0  0  0
    3.8675    1.8631   19.2136 H   0  0  0  0  0  0  0  0  0  0  0  0
  1  2  1  0
  2  3  2  0
  3  4  1  0
  4  5  1  0
  4  6  2  0
  6  7  1  0
  7  8  1  0
  8  9  2  0
  8 10  1  0
 10 11  1  0
 10 12  2  0
 12 13  1  0
 13 14  2  0
 13 15  1  0
 15 16  1  0
 15 17  1  0
 17 18  2  0
 18 19  1  0
 18 20  1  0
 20 21  1  0
 20 22  2  0
 22 23  1  0
 22 24  1  0
 24 25  1  0
 24 26  2  0
 26 27  1  0
 12 28  1  0
 28 29  1  0
  6 30  1  0
 30 31  1  0
 30 32  2  0
 32 33  1  0
 32  2  1  0
 28  7  1  0
 26 17  1  0
M  END
>  <cnnaffinity>  (1) 
-5.09972

>  <filename>  (1) 
O=C(Nc1ccccc1)c1cc(=O)n(-c2cccnc2)[nH]1

$$$$
