
     RDKit          3D

 30 31  0  0  0  0  0  0  0  0999 V2000
   11.2692   -5.2739   26.5046 H   0  0  0  0  0  0  0  0  0  0  0  0
   10.7406   -4.7302   25.8916 O   0  0  0  0  0  0  0  0  0  0  0  0
    9.7472   -4.3926   26.7429 C   0  0  0  0  0  0  0  0  0  0  0  0
    9.8061   -4.7759   27.8791 O   0  0  0  0  0  0  0  0  0  0  0  0
    8.6522   -3.5155   26.0973 C   0  0  0  0  0  0  0  0  0  0  0  0
    7.6208   -3.1806   26.8652 O   0  0  0  0  0  0  0  0  0  0  0  0
    7.0167   -2.6263   26.2959 H   0  0  0  0  0  0  0  0  0  0  0  0
    8.7339   -3.1004   24.8034 C   0  0  0  0  0  0  0  0  0  0  0  0
    9.5808   -3.3643   24.1878 H   0  0  0  0  0  0  0  0  0  0  0  0
    7.7376   -2.2478   24.1748 C   0  0  0  0  0  0  0  0  0  0  0  0
    6.6893   -1.9417   24.7446 O   0  0  0  0  0  0  0  0  0  0  0  0
    8.0586   -1.7169   22.8364 C   0  0  0  0  0  0  0  0  0  0  0  0
    9.1950   -1.2406   22.2981 C   0  0  0  0  0  0  0  0  0  0  0  0
   10.1800   -1.2150   22.7458 H   0  0  0  0  0  0  0  0  0  0  0  0
    8.9345   -0.6573   20.9523 C   0  0  0  0  0  0  0  0  0  0  0  0
    9.5587   -1.1068   20.1690 H   0  0  0  0  0  0  0  0  0  0  0  0
    9.1529    0.4179   20.9229 H   0  0  0  0  0  0  0  0  0  0  0  0
    7.5115   -0.9121   20.7650 N   0  0  0  0  0  0  0  0  0  0  0  0
    6.7613   -0.1873   19.8020 C   0  0  0  0  0  0  0  0  0  0  0  0
    7.2618    0.0004   18.4905 C   0  0  0  0  0  0  0  0  0  0  0  0
    8.2186   -0.4428   18.2263 H   0  0  0  0  0  0  0  0  0  0  0  0
    6.6412    0.6948   17.5306 N   0  0  0  0  0  0  0  0  0  0  0  0
    5.4782    1.2833   17.8548 C   0  0  0  0  0  0  0  0  0  0  0  0
    4.9871    1.8508   17.0667 H   0  0  0  0  0  0  0  0  0  0  0  0
    4.9043    1.1830   19.1282 C   0  0  0  0  0  0  0  0  0  0  0  0
    3.9728    1.6952   19.3363 H   0  0  0  0  0  0  0  0  0  0  0  0
    5.5421    0.4297   20.1208 C   0  0  0  0  0  0  0  0  0  0  0  0
    5.1213    0.3205   21.1208 H   0  0  0  0  0  0  0  0  0  0  0  0
    6.9694   -1.6263   21.8545 C   0  0  0  0  0  0  0  0  0  0  0  0
    5.8777   -2.1379   21.8969 O   0  0  0  0  0  0  0  0  0  0  0  0
  1  2  1  0
  2  3  1  0
  3  4  2  0
  3  5  1  0
  5  6  1  0
  6  7  1  0
  5  8  2  3
  8  9  1  0
  8 10  1  0
 10 11  2  0
 10 12  1  0
 12 13  2  0
 13 14  1  0
 13 15  1  0
 15 16  1  0
 15 17  1  0
 15 18  1  0
 18 19  1  0
 19 20  2  0
 20 21  1  0
 20 22  1  0
 22 23  2  0
 23 24  1  0
 23 25  1  0
 25 26  1  0
 25 27  2  0
 27 28  1  0
 18 29  1  0
 29 30  2  0
 29 12  1  0
 27 19  1  0
M  END
>  <cnnaffinity>  (1) 
-4.80214

>  <filename>  (1) 
O=C(O)C(O)=CC(=O)C1=CCN(c2cccnc2)C1=O

$$$$
