
     RDKit          3D

 29 30  0  0  0  0  0  0  0  0999 V2000
    7.9784    1.0320   25.2908 H   0  0  0  0  0  0  0  0  0  0  0  0
    7.5963    1.8355   24.8886 O   0  0  0  0  0  0  0  0  0  0  0  0
    7.8677    1.7788   23.5281 N   0  0  0  0  0  0  0  0  0  0  0  0
    7.0492    1.6538   22.9523 H   0  0  0  0  0  0  0  0  0  0  0  0
    9.0464    2.1402   22.9266 C   0  0  0  0  0  0  0  0  0  0  0  0
   10.0769    2.4219   23.5072 O   0  0  0  0  0  0  0  0  0  0  0  0
    9.0012    2.0277   21.4019 C   0  0  0  0  0  0  0  0  0  0  0  0
    9.7011    2.7922   21.0629 H   0  0  0  0  0  0  0  0  0  0  0  0
    8.0187    2.2277   20.9531 H   0  0  0  0  0  0  0  0  0  0  0  0
    9.5144    0.6373   20.9432 C   0  0  0  0  0  0  0  0  0  0  0  0
   10.5281    0.4817   21.3267 H   0  0  0  0  0  0  0  0  0  0  0  0
    9.5989    0.6257   19.8506 H   0  0  0  0  0  0  0  0  0  0  0  0
    8.6428   -0.4741   21.4218 C   0  0  0  0  0  0  0  0  0  0  0  0
    8.8030   -1.3523   22.4683 C   0  0  0  0  0  0  0  0  0  0  0  0
    9.6706   -1.4487   23.1130 H   0  0  0  0  0  0  0  0  0  0  0  0
    7.6564   -2.0808   22.6794 N   0  0  0  0  0  0  0  0  0  0  0  0
    6.8097   -1.6471   21.7843 C   0  0  0  0  0  0  0  0  0  0  0  0
    5.8018   -2.0095   21.6245 H   0  0  0  0  0  0  0  0  0  0  0  0
    7.3417   -0.6703   20.9726 N   0  0  0  0  0  0  0  0  0  0  0  0
    6.6617    0.0094   19.9079 C   0  0  0  0  0  0  0  0  0  0  0  0
    7.1712    0.0631   18.5914 C   0  0  0  0  0  0  0  0  0  0  0  0
    8.1124   -0.4281   18.3481 H   0  0  0  0  0  0  0  0  0  0  0  0
    6.5565    0.6783   17.5726 N   0  0  0  0  0  0  0  0  0  0  0  0
    5.3958    1.3010   17.8284 C   0  0  0  0  0  0  0  0  0  0  0  0
    4.9228    1.8008   16.9834 H   0  0  0  0  0  0  0  0  0  0  0  0
    4.8101    1.3105   19.0978 C   0  0  0  0  0  0  0  0  0  0  0  0
    3.8791    1.8390   19.2484 H   0  0  0  0  0  0  0  0  0  0  0  0
    5.4398    0.6465   20.1555 C   0  0  0  0  0  0  0  0  0  0  0  0
    5.0119    0.6253   21.1601 H   0  0  0  0  0  0  0  0  0  0  0  0
  1  2  1  0
  2  3  1  0
  3  4  1  0
  3  5  1  0
  5  6  2  0
  5  7  1  0
  7  8  1  0
  7  9  1  0
  7 10  1  0
 10 11  1  0
 10 12  1  0
 10 13  1  0
 13 14  2  0
 14 15  1  0
 14 16  1  0
 16 17  2  0
 17 18  1  0
 17 19  1  0
 19 20  1  0
 20 21  2  0
 21 22  1  0
 21 23  1  0
 23 24  2  0
 24 25  1  0
 24 26  1  0
 26 27  1  0
 26 28  2  0
 28 29  1  0
 19 13  1  0
 28 20  1  0
M  END
>  <cnnaffinity>  (1) 
-4.59318

>  <filename>  (1) 
O=C(CCc1cncn1-c1cccnc1)NO

$$$$
