
     RDKit          3D

 34 35  0  0  0  0  0  0  0  0999 V2000
    7.8959    0.6226   22.9015 O   0  0  0  0  0  0  0  0  0  0  0  0
    8.3408    0.1231   21.8857 C   0  0  0  0  0  0  0  0  0  0  0  0
    7.4518   -0.7284   20.9608 C   0  0  0  0  0  0  0  0  0  0  0  0
    6.7364    0.0125   19.8342 C   0  0  0  0  0  0  0  0  0  0  0  0
    5.5483    0.7067   20.0997 C   0  0  0  0  0  0  0  0  0  0  0  0
    4.8854    1.3526   19.0506 C   0  0  0  0  0  0  0  0  0  0  0  0
    5.4417    1.2910   17.7690 C   0  0  0  0  0  0  0  0  0  0  0  0
    6.5726    0.6297   17.4870 N   0  0  0  0  0  0  0  0  0  0  0  0
    7.1912    0.0080   18.5014 C   0  0  0  0  0  0  0  0  0  0  0  0
    8.0899   -0.5502   18.2376 H   0  0  0  0  0  0  0  0  0  0  0  0
    4.9527    1.7841   16.9279 H   0  0  0  0  0  0  0  0  0  0  0  0
    3.9596    1.8956   19.2023 H   0  0  0  0  0  0  0  0  0  0  0  0
    5.1522    0.7166   21.1189 H   0  0  0  0  0  0  0  0  0  0  0  0
    6.7026   -1.1653   21.6315 H   0  0  0  0  0  0  0  0  0  0  0  0
    8.0439   -1.5537   20.5503 H   0  0  0  0  0  0  0  0  0  0  0  0
    9.6554    0.2285   21.5052 N   0  0  0  0  0  0  0  0  0  0  0  0
   10.6165    1.1105   22.1706 C   0  0  0  0  0  0  0  0  0  0  0  0
   10.1520    2.5732   22.0693 C   0  0  0  0  0  0  0  0  0  0  0  0
   11.1020    3.6321   22.5305 C   0  0  0  0  0  0  0  0  0  0  0  0
   10.7930    4.2502   23.6820 N   0  0  0  0  0  0  0  0  0  0  0  0
   11.5303    5.2895   24.0397 C   0  0  0  0  0  0  0  0  0  0  0  0
   11.2042    6.2160   25.6051 C   0  0  0  0  0  0  0  0  0  0  0  0
   10.2877    5.8046   26.2923 O   0  0  0  0  0  0  0  0  0  0  0  0
   12.0053    7.1446   25.7082 O   0  0  0  0  0  1  0  0  0  0  0  0
   12.5753    5.7695   23.2479 C   0  0  0  0  0  0  0  0  0  0  0  0
   12.8547    5.0227   22.1126 C   0  0  0  0  0  0  0  0  0  0  0  0
   12.1553    3.9369   21.7730 N   0  0  0  0  0  0  0  0  0  0  0  0
   13.6571    5.3288   21.4450 H   0  0  0  0  0  0  0  0  0  0  0  0
   13.1175    6.6627   23.5286 H   0  0  0  0  0  0  0  0  0  0  0  0
    9.2277    2.6978   22.6379 H   0  0  0  0  0  0  0  0  0  0  0  0
    9.9125    2.7664   21.0204 H   0  0  0  0  0  0  0  0  0  0  0  0
   10.7037    0.7989   23.2206 H   0  0  0  0  0  0  0  0  0  0  0  0
   11.5949    0.9776   21.6815 H   0  0  0  0  0  0  0  0  0  0  0  0
    9.8241    0.0168   20.5377 H   0  0  0  0  0  0  0  0  0  0  0  0
  1  2  2  0
  2  3  1  0
  3  4  1  0
  4  5  2  0
  5  6  1  0
  6  7  2  0
  7  8  1  0
  8  9  2  0
  9 10  1  0
  7 11  1  0
  6 12  1  0
  5 13  1  0
  3 14  1  0
  3 15  1  0
  2 16  1  0
 16 17  1  0
 17 18  1  0
 18 19  1  0
 19 20  2  0
 20 21  1  0
 21 22  1  0
 22 23  2  0
 22 24  1  0
 21 25  2  0
 25 26  1  0
 26 27  2  0
 26 28  1  0
 25 29  1  0
 18 30  1  0
 18 31  1  0
 17 32  1  0
 17 33  1  0
 16 34  1  0
  9  4  1  0
 27 19  1  0
M  CHG  1  24  -1
M  END
>  <cnnaffinity>  (1) 
-4.69833

>  <filename>  (1) 
O=C(Cc1cccnc1)NCCc1nccc(C(=O)[O-])n1

$$$$
