
     RDKit          3D

 34 36  0  0  0  0  0  0  0  0999 V2000
    8.8738    0.8100   24.6760 O   0  0  0  0  0  0  0  0  0  0  0  0
    8.0053    1.4483   24.0934 C   0  0  0  0  0  0  0  0  0  0  0  0
    7.3640    2.6798   24.6891 C   0  0  0  0  0  0  0  0  0  0  0  0
    6.3576    2.2223   25.7150 C   0  0  0  0  0  0  0  0  0  0  0  0
    6.7997    1.8832   26.9965 C   0  0  0  0  0  0  0  0  0  0  0  0
    5.8949    1.3905   27.9333 C   0  0  0  0  0  0  0  0  0  0  0  0
    4.5970    1.1891   27.6643 N   0  0  0  0  0  0  0  0  0  0  0  0
    4.1775    1.4585   26.4249 C   0  0  0  0  0  0  0  0  0  0  0  0
    5.0165    1.9600   25.4227 C   0  0  0  0  0  0  0  0  0  0  0  0
    4.3563    2.2124   23.8309 Cl  0  0  0  0  0  0  0  0  0  0  0  0
    3.1276    1.2809   26.2069 H   0  0  0  0  0  0  0  0  0  0  0  0
    6.2244    1.1512   28.9403 H   0  0  0  0  0  0  0  0  0  0  0  0
    7.8502    1.9714   27.2414 H   0  0  0  0  0  0  0  0  0  0  0  0
    8.1618    3.2526   25.1659 H   0  0  0  0  0  0  0  0  0  0  0  0
    6.9082    3.2938   23.9098 H   0  0  0  0  0  0  0  0  0  0  0  0
    7.5008    1.0536   22.8827 N   0  0  0  0  0  0  0  0  0  0  0  0
    7.7179   -0.1775   22.2759 C   0  0  0  0  0  0  0  0  0  0  0  0
    7.3211   -0.6630   21.0389 C   0  0  0  0  0  0  0  0  0  0  0  0
    6.6453    0.0609   19.9299 C   0  0  0  0  0  0  0  0  0  0  0  0
    5.4216    0.7145   20.1470 C   0  0  0  0  0  0  0  0  0  0  0  0
    4.7823    1.3478   19.0784 C   0  0  0  0  0  0  0  0  0  0  0  0
    5.3908    1.3245   17.8209 C   0  0  0  0  0  0  0  0  0  0  0  0
    6.5600    0.7126   17.5767 N   0  0  0  0  0  0  0  0  0  0  0  0
    7.1610    0.1028   18.6092 C   0  0  0  0  0  0  0  0  0  0  0  0
    8.1126   -0.3755   18.3781 H   0  0  0  0  0  0  0  0  0  0  0  0
    4.9130    1.8093   16.9722 H   0  0  0  0  0  0  0  0  0  0  0  0
    3.8317    1.8522   19.2081 H   0  0  0  0  0  0  0  0  0  0  0  0
    4.9617    0.6942   21.1380 H   0  0  0  0  0  0  0  0  0  0  0  0
    7.7099   -2.0309   21.1146 C   0  0  0  0  0  0  0  0  0  0  0  0
    8.3270   -2.3352   22.2417 N   0  0  0  0  0  0  0  0  0  0  0  0
    8.3350   -1.1787   22.9331 N   0  0  0  0  0  0  0  0  0  0  0  0
    8.7877   -1.0228   23.8286 H   0  0  0  0  0  0  0  0  0  0  0  0
    7.5278   -2.8114   20.3967 H   0  0  0  0  0  0  0  0  0  0  0  0
    6.8290    1.6554   22.4405 H   0  0  0  0  0  0  0  0  0  0  0  0
  1  2  2  0
  2  3  1  0
  3  4  1  0
  4  5  2  0
  5  6  1  0
  6  7  2  0
  7  8  1  0
  8  9  2  0
  9 10  1  0
  8 11  1  0
  6 12  1  0
  5 13  1  0
  3 14  1  0
  3 15  1  0
  2 16  1  0
 16 17  1  0
 17 18  2  0
 18 19  1  0
 19 20  2  0
 20 21  1  0
 21 22  2  0
 22 23  1  0
 23 24  2  0
 24 25  1  0
 22 26  1  0
 21 27  1  0
 20 28  1  0
 18 29  1  0
 29 30  2  0
 30 31  1  0
 31 32  1  0
 29 33  1  0
 16 34  1  0
  9  4  1  0
 31 17  1  0
 24 19  1  0
M  END
>  <cnnaffinity>  (1) 
-5.29213

>  <filename>  (1) 
O=C(Cc1ccncc1Cl)Nc1[nH]ncc1-c1cccnc1

$$$$
