
     RDKit          3D

 31 33  0  0  0  0  0  0  0  0999 V2000
    4.9143    1.8037   16.9772 H   0  0  0  0  0  0  0  0  0  0  0  0
    5.3866    1.3033   17.8196 C   0  0  0  0  0  0  0  0  0  0  0  0
    6.5489    0.6842   17.5556 N   0  0  0  0  0  0  0  0  0  0  0  0
    7.1606    0.0786   18.5809 C   0  0  0  0  0  0  0  0  0  0  0  0
    8.1084   -0.4114   18.3527 H   0  0  0  0  0  0  0  0  0  0  0  0
    6.6671    0.0612   19.9052 C   0  0  0  0  0  0  0  0  0  0  0  0
    7.3881   -0.6302   21.0122 C   0  0  0  0  0  0  0  0  0  0  0  0
    7.6937   -1.9865   20.8862 C   0  0  0  0  0  0  0  0  0  0  0  0
    7.3219   -2.4914   19.9980 H   0  0  0  0  0  0  0  0  0  0  0  0
    8.3378   -2.7253   21.7900 N   0  0  0  0  0  0  0  0  0  0  0  0
    8.6681   -2.1188   22.9408 C   0  0  0  0  0  0  0  0  0  0  0  0
    9.1770   -2.7413   23.6789 H   0  0  0  0  0  0  0  0  0  0  0  0
    8.3555   -0.7937   23.2253 C   0  0  0  0  0  0  0  0  0  0  0  0
    8.5859   -0.3369   24.1780 H   0  0  0  0  0  0  0  0  0  0  0  0
    7.7115   -0.0440   22.2466 C   0  0  0  0  0  0  0  0  0  0  0  0
    7.4169    1.2945   22.5042 N   0  0  0  0  0  0  0  0  0  0  0  0
    7.4556    1.9237   21.7242 H   0  0  0  0  0  0  0  0  0  0  0  0
    6.8357    1.7618   23.6548 C   0  0  0  0  0  0  0  0  0  0  0  0
    6.4651    1.0310   24.5540 O   0  0  0  0  0  0  0  0  0  0  0  0
    6.6858    3.2536   23.7911 C   0  0  0  0  0  0  0  0  0  0  0  0
    6.3514    3.4523   24.8073 H   0  0  0  0  0  0  0  0  0  0  0  0
    6.1775    4.1641   22.6888 C   0  0  0  0  0  0  0  0  0  0  0  0
    5.9519    3.7185   21.7196 H   0  0  0  0  0  0  0  0  0  0  0  0
    5.4806    4.9537   22.9625 H   0  0  0  0  0  0  0  0  0  0  0  0
    7.5979    4.2750   23.1384 C   0  0  0  0  0  0  0  0  0  0  0  0
    8.4030    3.9238   22.4937 H   0  0  0  0  0  0  0  0  0  0  0  0
    7.8873    5.1426   23.7276 H   0  0  0  0  0  0  0  0  0  0  0  0
    5.4354    0.6825   20.1426 C   0  0  0  0  0  0  0  0  0  0  0  0
    5.0135    0.6471   21.1479 H   0  0  0  0  0  0  0  0  0  0  0  0
    4.7877    1.3215   19.0843 C   0  0  0  0  0  0  0  0  0  0  0  0
    3.8535    1.8494   19.2334 H   0  0  0  0  0  0  0  0  0  0  0  0
  1  2  1  0
  2  3  2  0
  3  4  1  0
  4  5  1  0
  4  6  2  0
  6  7  1  0
  7  8  2  0
  8  9  1  0
  8 10  1  0
 10 11  2  0
 11 12  1  0
 11 13  1  0
 13 14  1  0
 13 15  2  0
 15 16  1  0
 16 17  1  0
 16 18  1  0
 18 19  2  0
 18 20  1  0
 20 21  1  0
 20 22  1  0
 22 23  1  0
 22 24  1  0
 22 25  1  0
 25 26  1  0
 25 27  1  0
  6 28  1  0
 28 29  1  0
 28 30  2  0
 30 31  1  0
 30  2  1  0
 15  7  1  0
 25 20  1  0
M  END
>  <cnnaffinity>  (1) 
-4.78575

>  <filename>  (1) 
O=C(Nc1ccncc1-c1cccnc1)C1CC1

$$$$
