
     RDKit          3D

 32 34  0  0  0  0  0  0  0  0999 V2000
    4.9613    1.7890   16.9896 H   0  0  0  0  0  0  0  0  0  0  0  0
    5.4334    1.2837   17.8258 C   0  0  0  0  0  0  0  0  0  0  0  0
    6.5947    0.6610   17.5581 N   0  0  0  0  0  0  0  0  0  0  0  0
    7.2050    0.0410   18.5760 C   0  0  0  0  0  0  0  0  0  0  0  0
    8.1456   -0.4626   18.3467 H   0  0  0  0  0  0  0  0  0  0  0  0
    6.7051    0.0012   19.9117 C   0  0  0  0  0  0  0  0  0  0  0  0
    7.3689   -0.6254   20.9324 N   0  0  0  0  0  0  0  0  0  0  0  0
    7.0235   -0.7796   22.3278 C   0  0  0  0  0  0  0  0  0  0  0  0
    6.9810    0.1612   22.8975 H   0  0  0  0  0  0  0  0  0  0  0  0
    6.0979   -1.3459   22.4995 H   0  0  0  0  0  0  0  0  0  0  0  0
    8.3363   -1.6037   22.4805 C   0  0  0  0  0  0  0  0  0  0  0  0
    9.0615   -1.1916   23.1773 H   0  0  0  0  0  0  0  0  0  0  0  0
    8.0396   -3.0586   22.7467 C   0  0  0  0  0  0  0  0  0  0  0  0
    7.4214   -3.7134   21.9332 O   0  0  0  0  0  0  0  0  0  0  0  0
    8.5449   -3.6491   24.0201 C   0  0  0  0  0  0  0  0  0  0  0  0
    9.0951   -4.9458   24.0057 C   0  0  0  0  0  0  0  0  0  0  0  0
    8.9679   -5.5334   23.0988 H   0  0  0  0  0  0  0  0  0  0  0  0
    9.7649   -5.4651   25.1135 C   0  0  0  0  0  0  0  0  0  0  0  0
   10.2411   -6.4431   25.1046 H   0  0  0  0  0  0  0  0  0  0  0  0
    9.8260   -4.6829   26.2725 C   0  0  0  0  0  0  0  0  0  0  0  0
   10.7053   -5.2378   27.6516 Cl  0  0  0  0  0  0  0  0  0  0  0  0
    9.2093   -3.4355   26.3580 C   0  0  0  0  0  0  0  0  0  0  0  0
    9.2859   -2.8541   27.2691 H   0  0  0  0  0  0  0  0  0  0  0  0
    8.5470   -2.9412   25.2391 C   0  0  0  0  0  0  0  0  0  0  0  0
    7.6931   -1.4358   25.4237 Cl  0  0  0  0  0  0  0  0  0  0  0  0
    8.6453   -1.3022   20.9941 C   0  0  0  0  0  0  0  0  0  0  0  0
    9.5161   -0.6562   20.8105 H   0  0  0  0  0  0  0  0  0  0  0  0
    8.7166   -2.1880   20.3582 H   0  0  0  0  0  0  0  0  0  0  0  0
    5.4717    0.6422   20.1546 C   0  0  0  0  0  0  0  0  0  0  0  0
    5.0413    0.6239   21.1578 H   0  0  0  0  0  0  0  0  0  0  0  0
    4.8369    1.2926   19.0945 C   0  0  0  0  0  0  0  0  0  0  0  0
    3.8960    1.8172   19.2449 H   0  0  0  0  0  0  0  0  0  0  0  0
  1  2  1  0
  2  3  2  0
  3  4  1  0
  4  5  1  0
  4  6  2  0
  6  7  1  0
  7  8  1  0
  8  9  1  0
  8 10  1  0
  8 11  1  0
 11 12  1  0
 11 13  1  0
 13 14  2  0
 13 15  1  0
 15 16  2  0
 16 17  1  0
 16 18  1  0
 18 19  1  0
 18 20  2  0
 20 21  1  0
 20 22  1  0
 22 23  1  0
 22 24  2  0
 24 25  1  0
 11 26  1  0
 26 27  1  0
 26 28  1  0
  6 29  1  0
 29 30  1  0
 29 31  2  0
 31 32  1  0
 31  2  1  0
 26  7  1  0
 24 15  1  0
M  END
>  <cnnaffinity>  (1) 
-4.96097

>  <filename>  (1) 
O=C(c1ccc(Cl)cc1Cl)C1CN(c2cccnc2)C1

$$$$
