
     RDKit          3D

 28 30  0  0  0  0  0  0  0  0999 V2000
    6.8539    0.9099   22.5743 O   0  0  0  0  0  0  0  0  0  0  0  0
    7.3695   -0.1569   22.2618 C   0  0  0  0  0  0  0  0  0  0  0  0
    7.3935   -0.5733   20.9339 N   0  0  0  0  0  0  0  0  0  0  0  0
    6.6977    0.0402   19.8718 C   0  0  0  0  0  0  0  0  0  0  0  0
    5.4917    0.6893   20.1318 C   0  0  0  0  0  0  0  0  0  0  0  0
    4.8388    1.3231   19.0710 C   0  0  0  0  0  0  0  0  0  0  0  0
    5.4002    1.2983   17.7868 C   0  0  0  0  0  0  0  0  0  0  0  0
    6.5443    0.6444   17.5100 N   0  0  0  0  0  0  0  0  0  0  0  0
    7.1698    0.0255   18.5354 C   0  0  0  0  0  0  0  0  0  0  0  0
    8.1038   -0.4887   18.3334 H   0  0  0  0  0  0  0  0  0  0  0  0
    4.8941    1.8271   16.9860 H   0  0  0  0  0  0  0  0  0  0  0  0
    3.9082    1.8533   19.2351 H   0  0  0  0  0  0  0  0  0  0  0  0
    5.0815    0.6961   21.1410 H   0  0  0  0  0  0  0  0  0  0  0  0
    7.9096   -1.4285   20.7558 H   0  0  0  0  0  0  0  0  0  0  0  0
    7.9100   -1.0656   23.2890 C   0  0  0  0  0  0  0  0  0  0  0  0
    8.1748   -0.7771   24.6119 C   0  0  0  0  0  0  0  0  0  0  0  0
    8.6724   -2.0003   25.1974 C   0  0  0  0  0  0  0  0  0  0  0  0
    8.6396   -2.9543   24.1937 C   0  0  0  0  0  0  0  0  0  0  0  0
    8.2223   -2.3857   23.0219 O   0  0  0  0  0  0  0  0  0  0  0  0
    8.9582   -4.2929   24.4523 C   0  0  0  0  0  0  0  0  0  0  0  0
    8.6672   -5.6123   23.0983 Br  0  0  0  0  0  0  0  0  0  0  0  0
    9.4017   -4.6463   25.7350 C   0  0  0  0  0  0  0  0  0  0  0  0
    9.4851   -3.6760   26.7405 C   0  0  0  0  0  0  0  0  0  0  0  0
    9.0875   -2.3536   26.4847 C   0  0  0  0  0  0  0  0  0  0  0  0
    9.1123   -1.6144   27.2785 H   0  0  0  0  0  0  0  0  0  0  0  0
    9.8615   -3.9650   27.7171 H   0  0  0  0  0  0  0  0  0  0  0  0
    9.6668   -5.6750   25.9595 H   0  0  0  0  0  0  0  0  0  0  0  0
    8.0182    0.1626   25.1366 H   0  0  0  0  0  0  0  0  0  0  0  0
  1  2  2  0
  2  3  1  0
  3  4  1  0
  4  5  2  0
  5  6  1  0
  6  7  2  0
  7  8  1  0
  8  9  2  0
  9 10  1  0
  7 11  1  0
  6 12  1  0
  5 13  1  0
  3 14  1  0
  2 15  1  0
 15 16  2  0
 16 17  1  0
 17 18  2  0
 18 19  1  0
 18 20  1  0
 20 21  1  0
 20 22  2  0
 22 23  1  0
 23 24  2  0
 24 25  1  0
 23 26  1  0
 22 27  1  0
 16 28  1  0
  9  4  1  0
 19 15  1  0
 24 17  1  0
M  END
>  <cnnaffinity>  (1) 
-4.83656

>  <filename>  (1) 
O=C(Nc1cccnc1)c1cc2cccc(Br)c2o1

$$$$
