
     RDKit          3D

 36 37  0  0  0  0  0  0  0  0999 V2000
    9.1113   -3.1791   24.7020 O   0  0  0  0  0  0  0  0  0  0  0  0
    8.1458   -3.5674   24.0350 C   0  0  0  0  0  0  0  0  0  0  0  0
    7.9382   -3.1202   22.7839 N   0  0  0  0  0  0  0  0  0  0  0  0
    8.9136   -2.2748   22.1054 C   0  0  0  0  0  0  0  0  0  0  0  0
    8.2798   -1.4798   20.9943 C   0  0  0  0  0  0  0  0  0  0  0  0
    7.2537   -0.6308   21.1104 C   0  0  0  0  0  0  0  0  0  0  0  0
    6.6041    0.0580   19.9728 C   0  0  0  0  0  0  0  0  0  0  0  0
    5.3914    0.7493   20.1515 C   0  0  0  0  0  0  0  0  0  0  0  0
    4.7945    1.3709   19.0532 C   0  0  0  0  0  0  0  0  0  0  0  0
    5.4326    1.2930   17.8119 C   0  0  0  0  0  0  0  0  0  0  0  0
    6.5894    0.6421   17.6123 N   0  0  0  0  0  0  0  0  0  0  0  0
    7.1449    0.0430   18.6703 C   0  0  0  0  0  0  0  0  0  0  0  0
    8.0815   -0.4806   18.4771 H   0  0  0  0  0  0  0  0  0  0  0  0
    4.9952    1.7605   16.9331 H   0  0  0  0  0  0  0  0  0  0  0  0
    3.8591    1.9139   19.1413 H   0  0  0  0  0  0  0  0  0  0  0  0
    4.9222    0.7928   21.1347 H   0  0  0  0  0  0  0  0  0  0  0  0
    6.8177   -0.4205   22.0926 H   0  0  0  0  0  0  0  0  0  0  0  0
    8.7224   -1.6331   20.0133 H   0  0  0  0  0  0  0  0  0  0  0  0
    9.3899   -1.6260   22.8556 H   0  0  0  0  0  0  0  0  0  0  0  0
    9.7255   -2.8890   21.6879 H   0  0  0  0  0  0  0  0  0  0  0  0
    7.0838   -3.3574   22.3035 H   0  0  0  0  0  0  0  0  0  0  0  0
    7.1254   -4.4809   24.6578 C   0  0  0  0  0  0  0  0  0  0  0  0
    6.5666   -5.6724   24.0977 C   0  0  0  0  0  0  0  0  0  0  0  0
    7.0008   -6.2298   22.7302 C   0  0  0  0  0  0  0  0  0  0  0  0
    8.3367   -6.2633   22.5900 F   0  0  0  0  0  0  0  0  0  0  0  0
    6.5391   -5.4456   21.7266 F   0  0  0  0  0  0  0  0  0  0  0  0
    6.5378   -7.4686   22.4830 F   0  0  0  0  0  0  0  0  0  0  0  0
    5.5732   -6.3555   24.8151 C   0  0  0  0  0  0  0  0  0  0  0  0
    5.1743   -5.9234   26.0844 C   0  0  0  0  0  0  0  0  0  0  0  0
    5.7482   -4.7957   26.6508 C   0  0  0  0  0  0  0  0  0  0  0  0
    6.7522   -4.0973   25.9735 C   0  0  0  0  0  0  0  0  0  0  0  0
    7.3239   -3.0645   26.6171 O   0  0  0  0  0  0  0  0  0  0  0  0
    8.2229   -2.9556   26.2348 H   0  0  0  0  0  0  0  0  0  0  0  0
    5.4722   -4.4397   27.6368 H   0  0  0  0  0  0  0  0  0  0  0  0
    4.4351   -6.4954   26.6417 H   0  0  0  0  0  0  0  0  0  0  0  0
    5.1051   -7.2333   24.3836 H   0  0  0  0  0  0  0  0  0  0  0  0
  1  2  2  0
  2  3  1  0
  3  4  1  0
  4  5  1  0
  5  6  2  3
  6  7  1  0
  7  8  2  0
  8  9  1  0
  9 10  2  0
 10 11  1  0
 11 12  2  0
 12 13  1  0
 10 14  1  0
  9 15  1  0
  8 16  1  0
  6 17  1  0
  5 18  1  0
  4 19  1  0
  4 20  1  0
  3 21  1  0
  2 22  1  0
 22 23  2  0
 23 24  1  0
 24 25  1  0
 24 26  1  0
 24 27  1  0
 23 28  1  0
 28 29  2  0
 29 30  1  0
 30 31  2  0
 31 32  1  0
 32 33  1  0
 30 34  1  0
 29 35  1  0
 28 36  1  0
 12  7  1  0
 31 22  1  0
M  END
>  <cnnaffinity>  (1) 
-5.17119

>  <filename>  (1) 
O=C(NCC=Cc1cccnc1)c1c(O)cccc1C(F)(F)F

$$$$
