
     RDKit          3D

 33 34  0  0  0  0  0  0  0  0999 V2000
    7.2141   -2.7970   23.6631 O   0  0  0  0  0  0  0  0  0  0  0  0
    7.8097   -3.5437   22.9066 C   0  0  0  0  0  0  0  0  0  0  0  0
    8.9191   -3.1250   22.2170 N   0  0  0  0  0  0  0  0  0  0  0  0
    9.2960   -1.7130   22.2090 C   0  0  0  0  0  0  0  0  0  0  0  0
    8.6519   -0.9493   21.0685 C   0  0  0  0  0  0  0  0  0  0  0  0
    7.3387   -0.6848   21.0164 C   0  0  0  0  0  0  0  0  0  0  0  0
    6.6425    0.0009   19.9058 C   0  0  0  0  0  0  0  0  0  0  0  0
    5.4132    0.6416   20.1362 C   0  0  0  0  0  0  0  0  0  0  0  0
    4.7829    1.3090   19.0822 C   0  0  0  0  0  0  0  0  0  0  0  0
    5.3939    1.3006   17.8232 C   0  0  0  0  0  0  0  0  0  0  0  0
    6.5570    0.6807   17.5737 N   0  0  0  0  0  0  0  0  0  0  0  0
    7.1594    0.0630   18.5975 C   0  0  0  0  0  0  0  0  0  0  0  0
    8.1060   -0.4182   18.3498 H   0  0  0  0  0  0  0  0  0  0  0  0
    4.9421    1.8126   16.9749 H   0  0  0  0  0  0  0  0  0  0  0  0
    3.8548    1.8529   19.2199 H   0  0  0  0  0  0  0  0  0  0  0  0
    4.9807    0.6349   21.1389 H   0  0  0  0  0  0  0  0  0  0  0  0
    6.6957   -0.9808   21.8484 H   0  0  0  0  0  0  0  0  0  0  0  0
    9.2915   -0.5934   20.2626 H   0  0  0  0  0  0  0  0  0  0  0  0
    8.9590   -1.3011   23.1712 H   0  0  0  0  0  0  0  0  0  0  0  0
   10.3908   -1.6375   22.1790 H   0  0  0  0  0  0  0  0  0  0  0  0
    9.3362   -3.7454   21.5429 H   0  0  0  0  0  0  0  0  0  0  0  0
    7.3509   -4.9987   22.7047 C   0  0  0  0  0  0  0  0  0  0  0  0
    8.3549   -5.8740   22.5322 N   0  0  0  0  0  0  0  0  0  0  0  0
    8.1462   -7.1752   22.4111 N   0  0  0  0  0  0  0  0  0  0  0  0
    6.8982   -7.6555   22.3757 C   0  0  0  0  0  0  0  0  0  0  0  0
    5.7880   -6.8320   22.5803 C   0  0  0  0  0  0  0  0  0  0  0  0
    6.0048   -5.4651   22.7420 C   0  0  0  0  0  0  0  0  0  0  0  0
    4.8531   -4.5179   23.0216 C   0  0  0  0  0  0  0  0  0  0  0  0
    4.9293   -3.4288   22.2378 F   0  0  0  0  0  0  0  0  0  0  0  0
    4.8418   -4.1207   24.2963 F   0  0  0  0  0  0  0  0  0  0  0  0
    3.6622   -5.0949   22.7777 F   0  0  0  0  0  0  0  0  0  0  0  0
    4.7880   -7.2540   22.6293 H   0  0  0  0  0  0  0  0  0  0  0  0
    6.8153   -8.7210   22.1954 H   0  0  0  0  0  0  0  0  0  0  0  0
  1  2  2  0
  2  3  1  0
  3  4  1  0
  4  5  1  0
  5  6  2  3
  6  7  1  0
  7  8  2  0
  8  9  1  0
  9 10  2  0
 10 11  1  0
 11 12  2  0
 12 13  1  0
 10 14  1  0
  9 15  1  0
  8 16  1  0
  6 17  1  0
  5 18  1  0
  4 19  1  0
  4 20  1  0
  3 21  1  0
  2 22  1  0
 22 23  2  0
 23 24  1  0
 24 25  2  0
 25 26  1  0
 26 27  2  0
 27 28  1  0
 28 29  1  0
 28 30  1  0
 28 31  1  0
 26 32  1  0
 25 33  1  0
 12  7  1  0
 27 22  1  0
M  END
>  <cnnaffinity>  (1) 
-5.6666

>  <filename>  (1) 
O=C(NCC=Cc1cccnc1)c1nnccc1C(F)(F)F

$$$$
