
     RDKit          3D

 25 26  0  0  0  0  0  0  0  0999 V2000
    8.5096   -1.1274   20.7311 O   0  0  0  0  0  0  0  0  0  0  0  0
    7.3529   -0.8099   20.9648 C   0  0  0  0  0  0  0  0  0  0  0  0
    6.7460   -1.2068   22.1331 N   0  0  0  0  0  0  0  0  0  0  0  0
    7.3723   -1.9667   23.1121 C   0  0  0  0  0  0  0  0  0  0  0  0
    7.0025   -1.8156   24.4515 C   0  0  0  0  0  0  0  0  0  0  0  0
    5.7803   -0.4195   24.9442 Br  0  0  0  0  0  0  0  0  0  0  0  0
    7.6104   -2.6158   25.4314 C   0  0  0  0  0  0  0  0  0  0  0  0
    7.1585   -2.4906   27.1155 Cl  0  0  0  0  0  0  0  0  0  0  0  0
    8.6167   -3.5210   25.0699 C   0  0  0  0  0  0  0  0  0  0  0  0
    9.0278   -3.6290   23.7369 C   0  0  0  0  0  0  0  0  0  0  0  0
    8.3918   -2.8552   22.7625 C   0  0  0  0  0  0  0  0  0  0  0  0
    8.6880   -2.9116   21.7207 H   0  0  0  0  0  0  0  0  0  0  0  0
    9.8426   -4.2980   23.4698 H   0  0  0  0  0  0  0  0  0  0  0  0
    9.0918   -4.1210   25.8412 H   0  0  0  0  0  0  0  0  0  0  0  0
    5.7964   -0.8876   22.2913 H   0  0  0  0  0  0  0  0  0  0  0  0
    6.6185   -0.0680   19.9803 C   0  0  0  0  0  0  0  0  0  0  0  0
    5.3924    0.5744   20.2071 C   0  0  0  0  0  0  0  0  0  0  0  0
    4.8197    1.2482   19.1347 C   0  0  0  0  0  0  0  0  0  0  0  0
    5.4731    1.2495   17.8994 C   0  0  0  0  0  0  0  0  0  0  0  0
    6.6421    0.6139   17.6934 N   0  0  0  0  0  0  0  0  0  0  0  0
    7.2122   -0.0140   18.7247 C   0  0  0  0  0  0  0  0  0  0  0  0
    8.1703   -0.5106   18.5736 H   0  0  0  0  0  0  0  0  0  0  0  0
    5.0284    1.8075   17.0830 H   0  0  0  0  0  0  0  0  0  0  0  0
    3.8844    1.7913   19.2385 H   0  0  0  0  0  0  0  0  0  0  0  0
    4.9006    0.5859   21.1798 H   0  0  0  0  0  0  0  0  0  0  0  0
  1  2  2  0
  2  3  1  0
  3  4  1  0
  4  5  2  0
  5  6  1  0
  5  7  1  0
  7  8  1  0
  7  9  2  0
  9 10  1  0
 10 11  2  0
 11 12  1  0
 10 13  1  0
  9 14  1  0
  3 15  1  0
  2 16  1  0
 16 17  2  0
 17 18  1  0
 18 19  2  0
 19 20  1  0
 20 21  2  0
 21 22  1  0
 19 23  1  0
 18 24  1  0
 17 25  1  0
 11  4  1  0
 21 16  1  0
M  END
>  <cnnaffinity>  (1) 
-5.0198

>  <filename>  (1) 
O=C(Nc1cccc(Cl)c1Br)c1cccnc1

$$$$
