
     RDKit          3D

 28 30  0  0  0  0  0  0  0  0999 V2000
    9.4901   -0.2090   20.2686 O   0  0  0  0  0  0  0  0  0  0  0  0
    8.7305   -0.5356   21.1686 C   0  0  0  0  0  0  0  0  0  0  0  0
    7.3667   -0.4317   21.0136 N   0  0  0  0  0  0  0  0  0  0  0  0
    6.7086    0.0800   19.8876 C   0  0  0  0  0  0  0  0  0  0  0  0
    5.4525    0.6150   20.1123 C   0  0  0  0  0  0  0  0  0  0  0  0
    4.8093    1.2475   19.0490 C   0  0  0  0  0  0  0  0  0  0  0  0
    5.4186    1.2915   17.7867 C   0  0  0  0  0  0  0  0  0  0  0  0
    6.6060    0.7076   17.5362 N   0  0  0  0  0  0  0  0  0  0  0  0
    7.2385    0.1158   18.5727 C   0  0  0  0  0  0  0  0  0  0  0  0
    8.2016   -0.3510   18.3913 H   0  0  0  0  0  0  0  0  0  0  0  0
    4.9110    1.8134   16.9817 H   0  0  0  0  0  0  0  0  0  0  0  0
    3.8507    1.7278   19.1990 H   0  0  0  0  0  0  0  0  0  0  0  0
    5.0182    0.5655   21.1090 H   0  0  0  0  0  0  0  0  0  0  0  0
    6.8237   -0.5945   21.8553 H   0  0  0  0  0  0  0  0  0  0  0  0
    9.2130   -1.2363   22.3318 C   0  0  0  0  0  0  0  0  0  0  0  0
    8.5723   -1.3167   23.5493 C   0  0  0  0  0  0  0  0  0  0  0  0
    7.0073   -0.2964   23.9685 Br  0  0  0  0  0  0  0  0  0  0  0  0
    9.2008   -2.2878   24.4363 C   0  0  0  0  0  0  0  0  0  0  0  0
    8.8416   -2.6774   25.7382 C   0  0  0  0  0  0  0  0  0  0  0  0
    9.5421   -3.7088   26.3793 C   0  0  0  0  0  0  0  0  0  0  0  0
   10.5791   -4.3594   25.7031 C   0  0  0  0  0  0  0  0  0  0  0  0
   10.9824   -3.9238   24.4399 C   0  0  0  0  0  0  0  0  0  0  0  0
   10.2892   -2.8945   23.8117 C   0  0  0  0  0  0  0  0  0  0  0  0
   10.6350   -2.2488   22.2171 S   0  0  0  0  0  0  0  0  0  0  0  0
   11.8296   -4.3863   23.9555 H   0  0  0  0  0  0  0  0  0  0  0  0
   11.0922   -5.1937   26.1606 H   0  0  0  0  0  0  0  0  0  0  0  0
    9.2883   -4.0180   27.3912 H   0  0  0  0  0  0  0  0  0  0  0  0
    7.9979   -2.2134   26.2345 H   0  0  0  0  0  0  0  0  0  0  0  0
  1  2  2  0
  2  3  1  0
  3  4  1  0
  4  5  2  0
  5  6  1  0
  6  7  2  0
  7  8  1  0
  8  9  2  0
  9 10  1  0
  7 11  1  0
  6 12  1  0
  5 13  1  0
  3 14  1  0
  2 15  1  0
 15 16  2  0
 16 17  1  0
 16 18  1  0
 18 19  2  0
 19 20  1  0
 20 21  2  0
 21 22  1  0
 22 23  2  0
 23 24  1  0
 22 25  1  0
 21 26  1  0
 20 27  1  0
 19 28  1  0
  9  4  1  0
 24 15  1  0
 23 18  1  0
M  END
>  <cnnaffinity>  (1) 
-5.50591

>  <filename>  (1) 
O=C(Nc1cccnc1)c1sc2ccccc2c1Br

$$$$
