
     RDKit          3D

 43 45  0  0  0  0  0  0  0  0999 V2000
    4.9895    1.8821   16.9512 H   0  0  0  0  0  0  0  0  0  0  0  0
    5.4433    1.3537   17.7874 C   0  0  0  0  0  0  0  0  0  0  0  0
    6.6036    0.7273   17.5317 N   0  0  0  0  0  0  0  0  0  0  0  0
    7.1932    0.0855   18.5499 C   0  0  0  0  0  0  0  0  0  0  0  0
    8.1436   -0.3988   18.3247 H   0  0  0  0  0  0  0  0  0  0  0  0
    6.6653    0.0199   19.8574 C   0  0  0  0  0  0  0  0  0  0  0  0
    7.3322   -0.7298   20.9487 C   0  0  0  0  0  0  0  0  0  0  0  0
    7.5634   -2.0689   21.1543 C   0  0  0  0  0  0  0  0  0  0  0  0
    7.2629   -2.8967   20.5284 H   0  0  0  0  0  0  0  0  0  0  0  0
    8.1947   -2.2764   22.3545 N   0  0  0  0  0  0  0  0  0  0  0  0
    8.3159   -1.0874   22.8887 C   0  0  0  0  0  0  0  0  0  0  0  0
    8.7059   -0.8607   23.8715 H   0  0  0  0  0  0  0  0  0  0  0  0
    7.8203   -0.1074   22.0853 N   0  0  0  0  0  0  0  0  0  0  0  0
    7.5975    1.2480   22.5161 C   0  0  0  0  0  0  0  0  0  0  0  0
    8.4158    1.5141   23.1952 H   0  0  0  0  0  0  0  0  0  0  0  0
    7.6494    1.8887   21.6300 H   0  0  0  0  0  0  0  0  0  0  0  0
    6.3064    1.3980   23.1669 N   0  0  0  0  0  0  0  0  0  0  0  0
    5.9263    2.3285   23.1604 H   0  0  0  0  0  0  0  0  0  0  0  0
    6.1220    0.8700   24.4370 C   0  0  0  0  0  0  0  0  0  0  0  0
    6.8959    0.1338   25.0198 O   0  0  0  0  0  0  0  0  0  0  0  0
    4.9471    1.3377   24.9657 N   0  0  0  0  0  0  0  0  0  0  0  0
    4.3220    1.5668   24.2200 H   0  0  0  0  0  0  0  0  0  0  0  0
    4.3150    0.6955   26.1124 C   0  0  0  0  0  0  0  0  0  0  0  0
    5.0269    0.7191   26.9500 H   0  0  0  0  0  0  0  0  0  0  0  0
    3.0757    1.5142   26.4762 C   0  0  0  0  0  0  0  0  0  0  0  0
    2.3577    1.4019   25.6470 H   0  0  0  0  0  0  0  0  0  0  0  0
    3.3438    2.5769   26.5225 H   0  0  0  0  0  0  0  0  0  0  0  0
    2.4285    1.0437   27.8055 C   0  0  0  0  0  0  0  0  0  0  0  0
    2.8248    1.6438   28.6354 H   0  0  0  0  0  0  0  0  0  0  0  0
    1.3488    1.2466   27.7692 H   0  0  0  0  0  0  0  0  0  0  0  0
    2.6992   -0.4534   28.1171 C   0  0  0  0  0  0  0  0  0  0  0  0
    1.9229   -0.8544   28.7826 H   0  0  0  0  0  0  0  0  0  0  0  0
    3.6397   -0.5341   28.6815 H   0  0  0  0  0  0  0  0  0  0  0  0
    2.8237   -1.3094   26.8434 C   0  0  0  0  0  0  0  0  0  0  0  0
    1.8511   -1.3268   26.3276 H   0  0  0  0  0  0  0  0  0  0  0  0
    3.0340   -2.3505   27.1142 H   0  0  0  0  0  0  0  0  0  0  0  0
    3.9130   -0.7802   25.8649 C   0  0  0  0  0  0  0  0  0  0  0  0
    3.5052   -0.8715   24.8565 H   0  0  0  0  0  0  0  0  0  0  0  0
    4.8262   -1.3823   25.8822 H   0  0  0  0  0  0  0  0  0  0  0  0
    5.4503    0.6834   20.0926 C   0  0  0  0  0  0  0  0  0  0  0  0
    5.0345    0.6674   21.0993 H   0  0  0  0  0  0  0  0  0  0  0  0
    4.8249    1.3553   19.0413 C   0  0  0  0  0  0  0  0  0  0  0  0
    3.8874    1.8851   19.1785 H   0  0  0  0  0  0  0  0  0  0  0  0
  1  2  1  0
  2  3  2  0
  3  4  1  0
  4  5  1  0
  4  6  2  0
  6  7  1  0
  7  8  2  0
  8  9  1  0
  8 10  1  0
 10 11  2  0
 11 12  1  0
 11 13  1  0
 13 14  1  0
 14 15  1  0
 14 16  1  0
 14 17  1  0
 17 18  1  0
 17 19  1  0
 19 20  2  0
 19 21  1  0
 21 22  1  0
 21 23  1  0
 23 24  1  0
 23 25  1  0
 25 26  1  0
 25 27  1  0
 25 28  1  0
 28 29  1  0
 28 30  1  0
 28 31  1  0
 31 32  1  0
 31 33  1  0
 31 34  1  0
 34 35  1  0
 34 36  1  0
 34 37  1  0
 37 38  1  0
 37 39  1  0
  6 40  1  0
 40 41  1  0
 40 42  2  0
 42 43  1  0
 42  2  1  0
 13  7  1  0
 37 23  1  0
M  END
>  <cnnaffinity>  (1) 
-4.91139

>  <filename>  (1) 
O=C(NCn1cncc1-c1cccnc1)NC1CCCCC1

$$$$
