
     RDKit          3D

 37 38  0  0  0  0  0  0  0  0999 V2000
    8.7133   -3.7124   21.8072 O   0  0  0  0  0  0  0  0  0  0  0  0
    7.6710   -3.2113   22.1650 C   0  0  0  0  0  0  0  0  0  0  0  0
    6.7820   -2.5328   21.1887 C   0  0  0  0  0  0  0  0  0  0  0  0
    7.5024   -0.9348   21.2585 S   0  0  0  0  0  0  0  0  0  0  0  0
    7.1067   -0.3915   22.5486 O   0  0  0  0  0  0  0  0  0  0  0  0
    8.8842   -1.0143   20.8117 O   0  0  0  0  0  0  0  0  0  0  0  0
    6.6136   -0.0901   20.0273 C   0  0  0  0  0  0  0  0  0  0  0  0
    5.4161    0.5872   20.2605 C   0  0  0  0  0  0  0  0  0  0  0  0
    4.8480    1.2393   19.1728 C   0  0  0  0  0  0  0  0  0  0  0  0
    5.4951    1.1953   17.9339 C   0  0  0  0  0  0  0  0  0  0  0  0
    6.6503    0.5429   17.7423 N   0  0  0  0  0  0  0  0  0  0  0  0
    7.2116   -0.0774   18.7761 C   0  0  0  0  0  0  0  0  0  0  0  0
    8.1812   -0.5446   18.5999 H   0  0  0  0  0  0  0  0  0  0  0  0
    5.0784    1.7165   17.0692 H   0  0  0  0  0  0  0  0  0  0  0  0
    3.9323    1.8042   19.2727 H   0  0  0  0  0  0  0  0  0  0  0  0
    4.9668    0.6445   21.2538 H   0  0  0  0  0  0  0  0  0  0  0  0
    6.9132   -2.9451   20.1997 H   0  0  0  0  0  0  0  0  0  0  0  0
    5.7366   -2.4584   21.4786 H   0  0  0  0  0  0  0  0  0  0  0  0
    7.2230   -3.1589   23.4445 N   0  0  0  0  0  0  0  0  0  0  0  0
    7.8778   -3.9012   24.5129 C   0  0  0  0  0  0  0  0  0  0  0  0
    9.2926   -3.4220   24.8957 C   0  0  0  0  0  0  0  0  0  0  0  0
    9.3252   -1.9746   25.3095 C   0  0  0  0  0  0  0  0  0  0  0  0
    9.7321   -1.0034   24.3865 C   0  0  0  0  0  0  0  0  0  0  0  0
    9.6438    0.3560   24.6906 C   0  0  0  0  0  0  0  0  0  0  0  0
    9.1453    0.7394   25.9376 C   0  0  0  0  0  0  0  0  0  0  0  0
    8.9377    2.4339   26.2728 Cl  0  0  0  0  0  0  0  0  0  0  0  0
    8.7721   -0.2082   26.8931 C   0  0  0  0  0  0  0  0  0  0  0  0
    8.8591   -1.5665   26.5687 C   0  0  0  0  0  0  0  0  0  0  0  0
    8.5437   -2.3185   27.2891 H   0  0  0  0  0  0  0  0  0  0  0  0
    8.4133    0.1197   27.8636 H   0  0  0  0  0  0  0  0  0  0  0  0
    9.9333    1.1168   23.9730 H   0  0  0  0  0  0  0  0  0  0  0  0
   10.0795   -1.3223   23.4043 H   0  0  0  0  0  0  0  0  0  0  0  0
    9.9441   -3.5853   24.0333 H   0  0  0  0  0  0  0  0  0  0  0  0
    9.6581   -4.0697   25.7036 H   0  0  0  0  0  0  0  0  0  0  0  0
    7.2244   -3.8643   25.3899 H   0  0  0  0  0  0  0  0  0  0  0  0
    7.9440   -4.9519   24.2082 H   0  0  0  0  0  0  0  0  0  0  0  0
    6.6728   -2.3414   23.6704 H   0  0  0  0  0  0  0  0  0  0  0  0
  1  2  2  0
  2  3  1  0
  3  4  1  0
  4  5  2  0
  4  6  2  0
  4  7  1  0
  7  8  2  0
  8  9  1  0
  9 10  2  0
 10 11  1  0
 11 12  2  0
 12 13  1  0
 10 14  1  0
  9 15  1  0
  8 16  1  0
  3 17  1  0
  3 18  1  0
  2 19  1  0
 19 20  1  0
 20 21  1  0
 21 22  1  0
 22 23  2  0
 23 24  1  0
 24 25  2  0
 25 26  1  0
 25 27  1  0
 27 28  2  0
 28 29  1  0
 27 30  1  0
 24 31  1  0
 23 32  1  0
 21 33  1  0
 21 34  1  0
 20 35  1  0
 20 36  1  0
 19 37  1  0
 12  7  1  0
 28 22  1  0
M  END
>  <cnnaffinity>  (1) 
-4.80636

>  <filename>  (1) 
O=C(CS(=O)(=O)c1cccnc1)NCCc1ccc(Cl)cc1

$$$$
