
     RDKit          3D

 38 39  0  0  0  0  0  0  0  0999 V2000
    9.3905    6.5628   21.3522 H   0  0  0  0  0  0  0  0  0  0  0  0
    8.6256    6.7632   21.9260 O   0  0  0  0  0  0  0  0  0  0  0  0
    8.1589    5.5453   22.3980 N   0  0  0  0  0  0  0  0  0  0  0  0
    7.2594    5.2723   22.0287 H   0  0  0  0  0  0  0  0  0  0  0  0
    8.6772    4.8765   23.4832 C   0  0  0  0  0  0  0  0  0  0  0  0
    9.6764    5.2041   24.0941 O   0  0  0  0  0  0  0  0  0  0  0  0
    7.9269    3.5918   23.8171 C   0  0  0  0  0  0  0  0  0  0  0  0
    6.8676    3.6138   23.5212 H   0  0  0  0  0  0  0  0  0  0  0  0
    7.9599    3.5251   24.9088 H   0  0  0  0  0  0  0  0  0  0  0  0
    8.6330    2.3535   23.2197 C   0  0  0  0  0  0  0  0  0  0  0  0
    8.2218    1.4356   23.6714 H   0  0  0  0  0  0  0  0  0  0  0  0
    9.6935    2.3855   23.5156 H   0  0  0  0  0  0  0  0  0  0  0  0
    8.5154    2.2697   21.6935 C   0  0  0  0  0  0  0  0  0  0  0  0
    7.4492    2.2574   21.4176 H   0  0  0  0  0  0  0  0  0  0  0  0
    8.9396    3.1743   21.2414 H   0  0  0  0  0  0  0  0  0  0  0  0
    9.2176    1.0420   21.0892 C   0  0  0  0  0  0  0  0  0  0  0  0
    9.1830    1.0986   20.0000 H   0  0  0  0  0  0  0  0  0  0  0  0
   10.2766    1.0468   21.3743 H   0  0  0  0  0  0  0  0  0  0  0  0
    8.5949   -0.2661   21.4985 C   0  0  0  0  0  0  0  0  0  0  0  0
    9.1774   -1.0494   22.5477 C   0  0  0  0  0  0  0  0  0  0  0  0
   10.1087   -0.6788   22.9825 H   0  0  0  0  0  0  0  0  0  0  0  0
    8.5891   -2.1941   23.0083 C   0  0  0  0  0  0  0  0  0  0  0  0
    8.9991   -2.8144   23.7952 H   0  0  0  0  0  0  0  0  0  0  0  0
    7.3277   -2.6518   22.4376 C   0  0  0  0  0  0  0  0  0  0  0  0
    6.7008   -3.6555   22.7270 O   0  0  0  0  0  0  0  0  0  0  0  0
    6.8180   -1.8320   21.4504 N   0  0  0  0  0  0  0  0  0  0  0  0
    5.9493   -2.1884   21.0993 H   0  0  0  0  0  0  0  0  0  0  0  0
    7.4005   -0.6915   20.9615 C   0  0  0  0  0  0  0  0  0  0  0  0
    6.6462   -0.0042   19.9073 C   0  0  0  0  0  0  0  0  0  0  0  0
    7.1554    0.0449   18.5983 C   0  0  0  0  0  0  0  0  0  0  0  0
    8.1081   -0.4333   18.3647 H   0  0  0  0  0  0  0  0  0  0  0  0
    6.5512    0.6630   17.5750 N   0  0  0  0  0  0  0  0  0  0  0  0
    5.3947    1.2916   17.8343 C   0  0  0  0  0  0  0  0  0  0  0  0
    4.9319    1.7976   16.9870 H   0  0  0  0  0  0  0  0  0  0  0  0
    4.7981    1.3054   19.1019 C   0  0  0  0  0  0  0  0  0  0  0  0
    3.8707    1.8469   19.2426 H   0  0  0  0  0  0  0  0  0  0  0  0
    5.4218    0.6346   20.1541 C   0  0  0  0  0  0  0  0  0  0  0  0
    5.0015    0.6241   21.1603 H   0  0  0  0  0  0  0  0  0  0  0  0
  1  2  1  0
  2  3  1  0
  3  4  1  0
  3  5  1  0
  5  6  2  0
  5  7  1  0
  7  8  1  0
  7  9  1  0
  7 10  1  0
 10 11  1  0
 10 12  1  0
 10 13  1  0
 13 14  1  0
 13 15  1  0
 13 16  1  0
 16 17  1  0
 16 18  1  0
 16 19  1  0
 19 20  1  0
 20 21  1  0
 20 22  2  0
 22 23  1  0
 22 24  1  0
 24 25  2  0
 24 26  1  0
 26 27  1  0
 26 28  1  0
 28 29  1  0
 29 30  2  0
 30 31  1  0
 30 32  1  0
 32 33  2  0
 33 34  1  0
 33 35  1  0
 35 36  1  0
 35 37  2  0
 37 38  1  0
 28 19  2  0
 37 29  1  0
M  END
>  <cnnaffinity>  (1) 
-5.38251

>  <filename>  (1) 
O=C(CCCCc1ccc(=O)[nH]c1-c1cccnc1)NO

$$$$
