
     RDKit          3D

 23 24  0  0  0  0  0  0  0  0999 V2000
    4.9097    1.7706   17.0071 H   0  0  0  0  0  0  0  0  0  0  0  0
    5.4053    1.2894   17.8481 C   0  0  0  0  0  0  0  0  0  0  0  0
    6.5747    0.6785   17.5857 N   0  0  0  0  0  0  0  0  0  0  0  0
    7.1806    0.0581   18.6021 C   0  0  0  0  0  0  0  0  0  0  0  0
    8.1294   -0.4372   18.3828 H   0  0  0  0  0  0  0  0  0  0  0  0
    6.6528    0.0176   19.9006 C   0  0  0  0  0  0  0  0  0  0  0  0
    7.4024   -0.7379   20.9382 C   0  0  0  0  0  0  0  0  0  0  0  0
    8.1435   -1.6486   20.6289 O   0  0  0  0  0  0  0  0  0  0  0  0
    7.1904   -0.3774   22.3829 C   0  0  0  0  0  0  0  0  0  0  0  0
    6.8395   -1.4094   23.2763 C   0  0  0  0  0  0  0  0  0  0  0  0
    6.7096   -2.4233   22.9017 H   0  0  0  0  0  0  0  0  0  0  0  0
    6.6453   -1.1471   24.6286 C   0  0  0  0  0  0  0  0  0  0  0  0
    6.3685   -1.9518   25.3042 H   0  0  0  0  0  0  0  0  0  0  0  0
    6.8139    0.1532   25.1127 C   0  0  0  0  0  0  0  0  0  0  0  0
    6.6659    0.3592   26.1677 H   0  0  0  0  0  0  0  0  0  0  0  0
    7.1827    1.1871   24.2505 C   0  0  0  0  0  0  0  0  0  0  0  0
    7.3266    2.1915   24.6313 H   0  0  0  0  0  0  0  0  0  0  0  0
    7.3804    0.9229   22.8926 C   0  0  0  0  0  0  0  0  0  0  0  0
    7.9116    2.2317   21.8750 Cl  0  0  0  0  0  0  0  0  0  0  0  0
    5.4334    0.6526   20.1594 C   0  0  0  0  0  0  0  0  0  0  0  0
    5.0019    0.6315   21.1585 H   0  0  0  0  0  0  0  0  0  0  0  0
    4.8025    1.3106   19.1121 C   0  0  0  0  0  0  0  0  0  0  0  0
    3.8693    1.8471   19.2662 H   0  0  0  0  0  0  0  0  0  0  0  0
  1  2  1  0
  2  3  2  0
  3  4  1  0
  4  5  1  0
  4  6  2  0
  6  7  1  0
  7  8  2  0
  7  9  1  0
  9 10  2  0
 10 11  1  0
 10 12  1  0
 12 13  1  0
 12 14  2  0
 14 15  1  0
 14 16  1  0
 16 17  1  0
 16 18  2  0
 18 19  1  0
  6 20  1  0
 20 21  1  0
 20 22  2  0
 22 23  1  0
 22  2  1  0
 18  9  1  0
M  END
>  <cnnaffinity>  (1) 
-4.52434

>  <filename>  (1) 
O=C(c1cccnc1)c1ccccc1Cl

$$$$
