
     RDKit          3D

 41 42  0  0  0  0  0  0  0  0999 V2000
   11.3224   -0.2621   24.2328 O   0  0  0  0  0  0  0  0  0  0  0  0
   10.8479    0.0202   23.1586 C   0  0  0  0  0  0  0  0  0  0  0  0
   10.6110   -0.9942   22.0105 C   0  0  0  0  0  0  0  0  0  0  0  0
    9.2389   -1.2618   21.5738 N   0  0  0  0  0  0  0  0  0  0  0  0
    8.5829   -0.5215   20.6336 C   0  0  0  0  0  0  0  0  0  0  0  0
    9.1415    0.3436   19.9815 O   0  0  0  0  0  0  0  0  0  0  0  0
    7.0523   -0.9247   20.4542 C   0  0  0  0  0  0  0  0  0  0  0  0
    6.7953   -2.3253   20.2936 O   0  0  0  0  0  0  0  0  0  0  0  0
    6.9191   -2.5436   19.3551 H   0  0  0  0  0  0  0  0  0  0  0  0
    6.3706   -0.1529   19.3545 C   0  0  0  0  0  0  0  0  0  0  0  0
    5.3779    0.7969   19.6204 C   0  0  0  0  0  0  0  0  0  0  0  0
    4.8352    1.5193   18.5562 C   0  0  0  0  0  0  0  0  0  0  0  0
    5.3108    1.2620   17.2652 C   0  0  0  0  0  0  0  0  0  0  0  0
    6.2579    0.3520   16.9904 N   0  0  0  0  0  0  0  0  0  0  0  0
    6.7631   -0.3344   18.0178 C   0  0  0  0  0  0  0  0  0  0  0  0
    7.5651   -1.0303   17.7635 H   0  0  0  0  0  0  0  0  0  0  0  0
    4.9219    1.8158   16.4158 H   0  0  0  0  0  0  0  0  0  0  0  0
    4.0706    2.2744   18.7110 H   0  0  0  0  0  0  0  0  0  0  0  0
    5.0458    0.9600   20.6503 H   0  0  0  0  0  0  0  0  0  0  0  0
    6.5855   -0.6750   21.4158 H   0  0  0  0  0  0  0  0  0  0  0  0
    8.6858   -1.9570   22.0490 H   0  0  0  0  0  0  0  0  0  0  0  0
   11.0719   -1.9308   22.3218 H   0  0  0  0  0  0  0  0  0  0  0  0
   11.1622   -0.6087   21.1468 H   0  0  0  0  0  0  0  0  0  0  0  0
   10.5029    1.2567   22.7709 O   0  0  0  0  0  0  0  0  0  0  0  0
   10.8777    2.3835   23.6113 C   0  0  0  0  0  0  0  0  0  0  0  0
   10.1795    3.5921   22.9975 C   0  0  0  0  0  0  0  0  0  0  0  0
   10.5174    4.9447   23.6704 C   0  0  0  0  0  0  0  0  0  0  0  0
   11.9710    5.0075   24.2053 C   0  0  0  0  0  0  0  0  0  0  0  0
   12.8987    4.0106   23.4930 C   0  0  0  0  0  0  0  0  0  0  0  0
   12.4197    2.5441   23.6242 C   0  0  0  0  0  0  0  0  0  0  0  0
   12.8498    1.9492   22.8085 H   0  0  0  0  0  0  0  0  0  0  0  0
   12.7796    2.0767   24.5442 H   0  0  0  0  0  0  0  0  0  0  0  0
   13.9253    4.1225   23.8604 H   0  0  0  0  0  0  0  0  0  0  0  0
   12.9389    4.2679   22.4239 H   0  0  0  0  0  0  0  0  0  0  0  0
   12.3760    6.0186   24.0878 H   0  0  0  0  0  0  0  0  0  0  0  0
   11.9725    4.8143   25.2834 H   0  0  0  0  0  0  0  0  0  0  0  0
   10.3764    5.7269   22.9156 H   0  0  0  0  0  0  0  0  0  0  0  0
    9.8158    5.1750   24.4854 H   0  0  0  0  0  0  0  0  0  0  0  0
   10.5315    3.6231   21.9624 H   0  0  0  0  0  0  0  0  0  0  0  0
    9.0974    3.4322   22.9675 H   0  0  0  0  0  0  0  0  0  0  0  0
   10.5009    2.2099   24.6287 H   0  0  0  0  0  0  0  0  0  0  0  0
  1  2  2  0
  2  3  1  0
  3  4  1  0
  4  5  1  0
  5  6  2  0
  5  7  1  0
  7  8  1  0
  8  9  1  0
  7 10  1  0
 10 11  2  0
 11 12  1  0
 12 13  2  0
 13 14  1  0
 14 15  2  0
 15 16  1  0
 13 17  1  0
 12 18  1  0
 11 19  1  0
  7 20  1  0
  4 21  1  0
  3 22  1  0
  3 23  1  0
  2 24  1  0
 24 25  1  0
 25 26  1  0
 26 27  1  0
 27 28  1  0
 28 29  1  0
 29 30  1  0
 30 31  1  0
 30 32  1  0
 29 33  1  0
 29 34  1  0
 28 35  1  0
 28 36  1  0
 27 37  1  0
 27 38  1  0
 26 39  1  0
 26 40  1  0
 25 41  1  0
 15 10  1  0
 30 25  1  0
M  END
>  <cnnaffinity>  (1) 
-4.49407

>  <filename>  (1) 
O=C(CNC(=O)C(O)c1cccnc1)OC1CCCCC1

$$$$
