
     RDKit          3D

 34 35  0  0  0  0  0  0  0  0999 V2000
    5.3979   -2.6585   24.2187 O   0  0  0  0  0  0  0  0  0  0  0  0
    6.6009   -2.5549   24.2305 C   0  0  0  0  0  0  0  0  0  0  0  0
    7.3849   -2.1288   23.1381 N   0  0  0  0  0  0  0  0  0  0  0  0
    6.8225   -1.1986   22.1906 N   0  0  0  0  0  0  0  0  0  0  0  0
    7.4841   -0.7677   21.0638 C   0  0  0  0  0  0  0  0  0  0  0  0
    8.6786   -0.9097   20.8710 O   0  0  0  0  0  0  0  0  0  0  0  0
    6.6054   -0.0749   20.0500 C   0  0  0  0  0  0  0  0  0  0  0  0
    5.3843    0.5920   20.2564 C   0  0  0  0  0  0  0  0  0  0  0  0
    4.8120    1.2530   19.1652 C   0  0  0  0  0  0  0  0  0  0  0  0
    5.4554    1.2179   17.9222 C   0  0  0  0  0  0  0  0  0  0  0  0
    6.6113    0.5738   17.7128 N   0  0  0  0  0  0  0  0  0  0  0  0
    7.1663   -0.0336   18.7641 C   0  0  0  0  0  0  0  0  0  0  0  0
    8.1230   -0.5192   18.5950 H   0  0  0  0  0  0  0  0  0  0  0  0
    5.0311    1.7416   17.0646 H   0  0  0  0  0  0  0  0  0  0  0  0
    3.8852    1.8060   19.2643 H   0  0  0  0  0  0  0  0  0  0  0  0
    4.8963    0.6494   21.2360 H   0  0  0  0  0  0  0  0  0  0  0  0
    5.8237   -1.3021   22.0550 H   0  0  0  0  0  0  0  0  0  0  0  0
    8.2681   -1.7923   23.4931 H   0  0  0  0  0  0  0  0  0  0  0  0
    7.4002   -2.8577   25.3227 N   0  0  0  0  0  0  0  0  0  0  0  0
    6.8353   -3.3806   26.5034 C   0  0  0  0  0  0  0  0  0  0  0  0
    5.7662   -2.7068   27.1016 C   0  0  0  0  0  0  0  0  0  0  0  0
    5.1989   -3.1658   28.2901 C   0  0  0  0  0  0  0  0  0  0  0  0
    5.6900   -4.3403   28.8672 C   0  0  0  0  0  0  0  0  0  0  0  0
    4.9971   -4.9156   30.3559 Cl  0  0  0  0  0  0  0  0  0  0  0  0
    6.7383   -5.0443   28.2740 C   0  0  0  0  0  0  0  0  0  0  0  0
    7.3226   -4.5670   27.0842 C   0  0  0  0  0  0  0  0  0  0  0  0
    8.4469   -5.3236   26.4245 C   0  0  0  0  0  0  0  0  0  0  0  0
    9.6214   -4.6578   26.5139 F   0  0  0  0  0  0  0  0  0  0  0  0
    8.6393   -6.5348   26.9627 F   0  0  0  0  0  0  0  0  0  0  0  0
    8.2305   -5.5255   25.1055 F   0  0  0  0  0  0  0  0  0  0  0  0
    7.0778   -5.9663   28.7402 H   0  0  0  0  0  0  0  0  0  0  0  0
    4.3804   -2.6260   28.7604 H   0  0  0  0  0  0  0  0  0  0  0  0
    5.3760   -1.8303   26.5974 H   0  0  0  0  0  0  0  0  0  0  0  0
    8.3387   -3.1459   25.1161 H   0  0  0  0  0  0  0  0  0  0  0  0
  1  2  2  0
  2  3  1  0
  3  4  1  0
  4  5  1  0
  5  6  2  0
  5  7  1  0
  7  8  2  0
  8  9  1  0
  9 10  2  0
 10 11  1  0
 11 12  2  0
 12 13  1  0
 10 14  1  0
  9 15  1  0
  8 16  1  0
  4 17  1  0
  3 18  1  0
  2 19  1  0
 19 20  1  0
 20 21  2  0
 21 22  1  0
 22 23  2  0
 23 24  1  0
 23 25  1  0
 25 26  2  0
 26 27  1  0
 27 28  1  0
 27 29  1  0
 27 30  1  0
 25 31  1  0
 22 32  1  0
 21 33  1  0
 19 34  1  0
 12  7  1  0
 26 20  1  0
M  END
>  <cnnaffinity>  (1) 
-4.84494

>  <filename>  (1) 
O=C(NNC(=O)c1cccnc1)Nc1ccc(Cl)cc1C(F)(F)F

$$$$
