
     RDKit          3D

 32 34  0  0  0  0  0  0  0  0999 V2000
    5.1446    1.6699   16.3811 H   0  0  0  0  0  0  0  0  0  0  0  0
    5.4919    1.2512   17.3233 C   0  0  0  0  0  0  0  0  0  0  0  0
    6.6155    0.5191   17.2648 N   0  0  0  0  0  0  0  0  0  0  0  0
    7.0842    0.0045   18.4084 C   0  0  0  0  0  0  0  0  0  0  0  0
    7.9935   -0.5910   18.3444 H   0  0  0  0  0  0  0  0  0  0  0  0
    6.4682    0.2156   19.6647 C   0  0  0  0  0  0  0  0  0  0  0  0
    7.0190   -0.2834   20.9082 N   0  0  0  0  0  0  0  0  0  0  0  0
    7.2593    0.5878   22.0206 C   0  0  0  0  0  0  0  0  0  0  0  0
    6.7615    1.6931   22.0588 O   0  0  0  0  0  0  0  0  0  0  0  0
    8.1423    0.0742   23.0330 C   0  0  0  0  0  0  0  0  0  0  0  0
    8.4190    0.7576   23.8166 H   0  0  0  0  0  0  0  0  0  0  0  0
    8.6128   -1.1713   22.9405 C   0  0  0  0  0  0  0  0  0  0  0  0
    9.5314   -1.7089   23.8304 N   0  0  0  0  0  0  0  0  0  0  0  0
    9.2795   -1.6591   24.8033 H   0  0  0  0  0  0  0  0  0  0  0  0
   10.4893   -2.6107   23.4535 C   0  0  0  0  0  0  0  0  0  0  0  0
   11.1514   -2.5929   22.4834 O   0  0  0  0  0  0  0  0  0  0  0  0
   10.4297   -4.7071   24.6197 C   0  0  0  0  0  0  0  0  0  0  0  0
   10.5629   -4.6546   24.8950 S   0  0  0  0  0  0  0  0  0  0  0  0
   10.2850   -5.9165   26.1152 C   0  0  0  0  0  0  0  0  0  0  0  0
   10.9521   -6.8205   26.2724 H   0  0  0  0  0  0  0  0  0  0  0  0
    9.5438   -5.1365   27.0306 C   0  0  0  0  0  0  0  0  0  0  0  0
    9.1764   -5.5739   27.9554 H   0  0  0  0  0  0  0  0  0  0  0  0
    9.3920   -3.8465   26.6051 C   0  0  0  0  0  0  0  0  0  0  0  0
    8.8745   -3.0369   27.2064 H   0  0  0  0  0  0  0  0  0  0  0  0
    8.1741   -2.0059   21.9627 N   0  0  0  0  0  0  0  0  0  0  0  0
    8.2019   -3.0000   22.0791 H   0  0  0  0  0  0  0  0  0  0  0  0
    7.1473   -1.6523   21.1156 C   0  0  0  0  0  0  0  0  0  0  0  0
    6.4875   -2.5041   20.5766 O   0  0  0  0  0  0  0  0  0  0  0  0
    5.2895    0.9591   19.7046 C   0  0  0  0  0  0  0  0  0  0  0  0
    4.8108    1.1415   20.6633 H   0  0  0  0  0  0  0  0  0  0  0  0
    4.7882    1.4809   18.5076 C   0  0  0  0  0  0  0  0  0  0  0  0
    3.8907    2.0882   18.4907 H   0  0  0  0  0  0  0  0  0  0  0  0
  1  2  1  0
  2  3  2  0
  3  4  1  0
  4  5  1  0
  4  6  2  0
  6  7  1  0
  7  8  1  0
  8  9  2  0
  8 10  1  0
 10 11  1  0
 10 12  2  0
 12 13  1  0
 13 14  1  0
 13 15  1  0
 15 16  2  0
 15 17  1  0
 17 18  1  0
 18 19  1  0
 19 20  1  0
 19 21  2  0
 21 22  1  0
 21 23  1  0
 23 24  1  0
 12 25  1  0
 25 26  1  0
 25 27  1  0
 27 28  2  0
  6 29  1  0
 29 30  1  0
 29 31  2  0
 31 32  1  0
 31  2  1  0
 27  7  1  0
 23 17  2  0
M  END
>  <cnnaffinity>  (1) 
-5.55949

>  <filename>  (1) 
O=C(Nc1cc(=O)n(-c2cccnc2)c(=O)[nH]1)c1cccs1

$$$$
