
     RDKit          3D

 45 47  0  0  0  0  0  0  0  0999 V2000
    6.5398   -0.8138   24.1268 O   0  0  0  0  0  0  0  0  0  0  0  0
    7.7497   -0.9429   24.1471 C   0  0  0  0  0  0  0  0  0  0  0  0
    8.4189   -1.6021   25.1256 O   0  0  0  0  0  0  0  0  0  0  0  0
    7.6491   -2.1919   26.2024 C   0  0  0  0  0  0  0  0  0  0  0  0
    7.0020   -3.5265   25.7977 C   0  0  0  0  0  0  0  0  0  0  0  0
    6.2586   -4.1901   26.9504 C   0  0  0  0  0  0  0  0  0  0  0  0
    4.9113   -3.8859   27.2065 C   0  0  0  0  0  0  0  0  0  0  0  0
    4.2209   -4.4764   28.2734 C   0  0  0  0  0  0  0  0  0  0  0  0
    4.8724   -5.3846   29.1134 C   0  0  0  0  0  0  0  0  0  0  0  0
    6.2153   -5.6966   28.8781 C   0  0  0  0  0  0  0  0  0  0  0  0
    6.8990   -5.1011   27.8084 C   0  0  0  0  0  0  0  0  0  0  0  0
    7.9410   -5.3622   27.6336 H   0  0  0  0  0  0  0  0  0  0  0  0
    6.7274   -6.4063   29.5258 H   0  0  0  0  0  0  0  0  0  0  0  0
    4.3373   -5.8459   29.9440 H   0  0  0  0  0  0  0  0  0  0  0  0
    3.1770   -4.2249   28.4508 H   0  0  0  0  0  0  0  0  0  0  0  0
    4.3953   -3.1815   26.5564 H   0  0  0  0  0  0  0  0  0  0  0  0
    6.3207   -3.3265   24.9589 H   0  0  0  0  0  0  0  0  0  0  0  0
    7.7903   -4.1887   25.4179 H   0  0  0  0  0  0  0  0  0  0  0  0
    8.3998   -2.3506   26.9835 H   0  0  0  0  0  0  0  0  0  0  0  0
    6.8948   -1.4794   26.5588 H   0  0  0  0  0  0  0  0  0  0  0  0
    8.5904   -0.4488   23.1889 N   0  0  0  0  0  0  0  0  0  0  0  0
   10.0582   -0.4830   23.2299 C   0  0  0  0  0  0  0  0  0  0  0  0
   10.4875    0.1842   21.9070 C   0  0  0  0  0  0  0  0  0  0  0  0
    9.2586    0.9751   21.4283 C   0  0  0  0  0  0  0  0  0  0  0  0
    8.0414    0.2481   22.0212 C   0  0  0  0  0  0  0  0  0  0  0  0
    7.3736   -0.7283   21.0234 C   0  0  0  0  0  0  0  0  0  0  0  0
    6.6473   -0.0223   19.8921 C   0  0  0  0  0  0  0  0  0  0  0  0
    5.4372    0.6466   20.1372 C   0  0  0  0  0  0  0  0  0  0  0  0
    4.7974    1.3134   19.0874 C   0  0  0  0  0  0  0  0  0  0  0  0
    5.3913    1.3018   17.8209 C   0  0  0  0  0  0  0  0  0  0  0  0
    6.5497    0.6820   17.5627 N   0  0  0  0  0  0  0  0  0  0  0  0
    7.1562    0.0517   18.5794 C   0  0  0  0  0  0  0  0  0  0  0  0
    8.1082   -0.4190   18.3305 H   0  0  0  0  0  0  0  0  0  0  0  0
    4.9198    1.8098   16.9792 H   0  0  0  0  0  0  0  0  0  0  0  0
    3.8693    1.8498   19.2361 H   0  0  0  0  0  0  0  0  0  0  0  0
    5.0204    0.6397   21.1455 H   0  0  0  0  0  0  0  0  0  0  0  0
    6.6704   -1.3337   21.6058 H   0  0  0  0  0  0  0  0  0  0  0  0
    8.1437   -1.4087   20.6345 H   0  0  0  0  0  0  0  0  0  0  0  0
    7.2710    0.9618   22.3530 H   0  0  0  0  0  0  0  0  0  0  0  0
    9.2805    2.0147   21.7705 H   0  0  0  0  0  0  0  0  0  0  0  0
    9.1944    1.0028   20.3345 H   0  0  0  0  0  0  0  0  0  0  0  0
   11.3595    0.8338   22.0400 H   0  0  0  0  0  0  0  0  0  0  0  0
   10.7716   -0.5710   21.1638 H   0  0  0  0  0  0  0  0  0  0  0  0
   10.4310    0.0637   24.1064 H   0  0  0  0  0  0  0  0  0  0  0  0
   10.4238   -1.5151   23.3171 H   0  0  0  0  0  0  0  0  0  0  0  0
  1  2  2  0
  2  3  1  0
  3  4  1  0
  4  5  1  0
  5  6  1  0
  6  7  2  0
  7  8  1  0
  8  9  2  0
  9 10  1  0
 10 11  2  0
 11 12  1  0
 10 13  1  0
  9 14  1  0
  8 15  1  0
  7 16  1  0
  5 17  1  0
  5 18  1  0
  4 19  1  0
  4 20  1  0
  2 21  1  0
 21 22  1  0
 22 23  1  0
 23 24  1  0
 24 25  1  0
 25 26  1  0
 26 27  1  0
 27 28  2  0
 28 29  1  0
 29 30  2  0
 30 31  1  0
 31 32  2  0
 32 33  1  0
 30 34  1  0
 29 35  1  0
 28 36  1  0
 26 37  1  0
 26 38  1  0
 25 39  1  0
 24 40  1  0
 24 41  1  0
 23 42  1  0
 23 43  1  0
 22 44  1  0
 22 45  1  0
 11  6  1  0
 25 21  1  0
 32 27  1  0
M  END
>  <cnnaffinity>  (1) 
-4.97374

>  <filename>  (1) 
O=C(OCCc1ccccc1)N1CCCC1Cc1cccnc1

$$$$
