
     RDKit          3D

 40 41  0  0  0  0  0  0  0  0999 V2000
   11.1585    0.6375   23.2248 O   0  0  0  0  0  0  0  0  0  0  0  0
    9.9772    0.5096   23.4980 C   0  0  0  0  0  0  0  0  0  0  0  0
    9.1084   -0.4708   22.7347 C   0  0  0  0  0  0  0  0  0  0  0  0
    8.3415    0.2409   21.6139 C   0  0  0  0  0  0  0  0  0  0  0  0
    7.3738   -0.7297   20.9422 C   0  0  0  0  0  0  0  0  0  0  0  0
    6.6427   -0.0222   19.8293 C   0  0  0  0  0  0  0  0  0  0  0  0
    5.4350    0.6313   20.0809 C   0  0  0  0  0  0  0  0  0  0  0  0
    4.8322    1.3058   19.0184 C   0  0  0  0  0  0  0  0  0  0  0  0
    5.4355    1.3044   17.7544 C   0  0  0  0  0  0  0  0  0  0  0  0
    6.5928    0.6666   17.5058 N   0  0  0  0  0  0  0  0  0  0  0  0
    7.1818    0.0226   18.5315 C   0  0  0  0  0  0  0  0  0  0  0  0
    8.1264   -0.4800   18.3519 H   0  0  0  0  0  0  0  0  0  0  0  0
    4.9483    1.8418   16.9454 H   0  0  0  0  0  0  0  0  0  0  0  0
    3.9066    1.8497   19.1623 H   0  0  0  0  0  0  0  0  0  0  0  0
    4.9911    0.6298   21.0765 H   0  0  0  0  0  0  0  0  0  0  0  0
    6.6552   -1.1055   21.6774 H   0  0  0  0  0  0  0  0  0  0  0  0
    7.9252   -1.5899   20.5491 H   0  0  0  0  0  0  0  0  0  0  0  0
    7.7769    1.0854   22.0237 H   0  0  0  0  0  0  0  0  0  0  0  0
    9.0414    0.6384   20.8699 H   0  0  0  0  0  0  0  0  0  0  0  0
    9.7396   -1.2553   22.3106 H   0  0  0  0  0  0  0  0  0  0  0  0
    8.4112   -0.9393   23.4336 H   0  0  0  0  0  0  0  0  0  0  0  0
    9.3881    1.2830   24.4718 N   0  0  0  0  0  0  0  0  0  0  0  0
   10.0447    2.4533   25.0086 C   0  0  0  0  0  0  0  0  0  0  0  0
    9.9691    3.5921   24.0088 C   0  0  0  0  0  0  0  0  0  0  0  0
   10.8053    4.6972   24.5704 C   0  0  0  0  0  0  0  0  0  0  0  0
   10.2919    5.5338   25.5724 C   0  0  0  0  0  0  0  0  0  0  0  0
   11.0710    6.5659   26.1055 C   0  0  0  0  0  0  0  0  0  0  0  0
   12.4011    6.6988   25.7107 C   0  0  0  0  0  0  0  0  0  0  0  0
   12.9300    5.7924   24.7878 C   0  0  0  0  0  0  0  0  0  0  0  0
   12.1405    4.8213   24.1862 C   0  0  0  0  0  0  0  0  0  0  0  0
   12.9098    3.6652   22.8629 Br  0  0  0  0  0  0  0  0  0  0  0  0
   13.9563    5.8110   24.4806 H   0  0  0  0  0  0  0  0  0  0  0  0
   13.0141    7.5070   26.0993 H   0  0  0  0  0  0  0  0  0  0  0  0
   10.6607    7.2714   26.8223 H   0  0  0  0  0  0  0  0  0  0  0  0
    9.2918    5.3594   25.9444 H   0  0  0  0  0  0  0  0  0  0  0  0
   10.3732    3.2704   23.0405 H   0  0  0  0  0  0  0  0  0  0  0  0
    8.9336    3.9157   23.8627 H   0  0  0  0  0  0  0  0  0  0  0  0
   11.0913    2.2190   25.2359 H   0  0  0  0  0  0  0  0  0  0  0  0
    9.5724    2.7613   25.9432 H   0  0  0  0  0  0  0  0  0  0  0  0
    8.3797    1.2212   24.5357 H   0  0  0  0  0  0  0  0  0  0  0  0
  1  2  2  0
  2  3  1  0
  3  4  1  0
  4  5  1  0
  5  6  1  0
  6  7  2  0
  7  8  1  0
  8  9  2  0
  9 10  1  0
 10 11  2  0
 11 12  1  0
  9 13  1  0
  8 14  1  0
  7 15  1  0
  5 16  1  0
  5 17  1  0
  4 18  1  0
  4 19  1  0
  3 20  1  0
  3 21  1  0
  2 22  1  0
 22 23  1  0
 23 24  1  0
 24 25  1  0
 25 26  2  0
 26 27  1  0
 27 28  2  0
 28 29  1  0
 29 30  2  0
 30 31  1  0
 29 32  1  0
 28 33  1  0
 27 34  1  0
 26 35  1  0
 24 36  1  0
 24 37  1  0
 23 38  1  0
 23 39  1  0
 22 40  1  0
 11  6  1  0
 30 25  1  0
M  END
>  <cnnaffinity>  (1) 
-5.11473

>  <filename>  (1) 
O=C(CCCc1cccnc1)NCCc1ccccc1Br

$$$$
