
     RDKit          3D

 43 46  0  0  0  0  0  0  0  0999 V2000
    7.0738   -4.0710   24.9170 O   0  0  0  0  0  0  0  0  0  0  0  0
    6.5112   -3.0366   24.6218 C   0  0  0  0  0  0  0  0  0  0  0  0
    7.2768   -1.7439   24.4831 C   0  0  0  0  0  0  0  0  0  0  0  0
    7.6762   -1.5565   23.0575 C   0  0  0  0  0  0  0  0  0  0  0  0
    8.7984   -2.0332   22.4633 C   0  0  0  0  0  0  0  0  0  0  0  0
    8.8568   -1.5380   20.8205 S   0  0  0  0  0  0  0  0  0  0  0  0
    7.3201   -0.7348   21.0331 C   0  0  0  0  0  0  0  0  0  0  0  0
    6.6373   -0.0099   19.9477 C   0  0  0  0  0  0  0  0  0  0  0  0
    5.4161    0.6566   20.1731 C   0  0  0  0  0  0  0  0  0  0  0  0
    4.8023    1.3071   19.1063 C   0  0  0  0  0  0  0  0  0  0  0  0
    5.4270    1.2785   17.8546 C   0  0  0  0  0  0  0  0  0  0  0  0
    6.5905    0.6466   17.6213 N   0  0  0  0  0  0  0  0  0  0  0  0
    7.1771    0.0295   18.6509 C   0  0  0  0  0  0  0  0  0  0  0  0
    8.1285   -0.4570   18.4262 H   0  0  0  0  0  0  0  0  0  0  0  0
    4.9735    1.7847   17.0058 H   0  0  0  0  0  0  0  0  0  0  0  0
    3.8651    1.8435   19.2363 H   0  0  0  0  0  0  0  0  0  0  0  0
    4.9773    0.6570   21.1708 H   0  0  0  0  0  0  0  0  0  0  0  0
    6.8340   -0.8581   22.2381 N   0  0  0  0  0  0  0  0  0  0  0  0
    9.5817   -2.6109   22.9240 H   0  0  0  0  0  0  0  0  0  0  0  0
    8.1440   -1.8360   25.1372 H   0  0  0  0  0  0  0  0  0  0  0  0
    6.6584   -0.9021   24.7897 H   0  0  0  0  0  0  0  0  0  0  0  0
    5.1605   -2.8810   24.3358 N   0  0  0  0  0  0  0  0  0  0  0  0
    4.2713   -3.8943   23.9857 N   0  0  0  0  0  0  0  0  0  0  0  0
    4.8388   -5.1128   23.3891 C   0  0  0  0  0  0  0  0  0  0  0  0
    3.7869   -5.7531   22.4953 C   0  0  0  0  0  0  0  0  0  0  0  0
    2.5430   -6.1553   23.2851 C   0  0  0  0  0  0  0  0  0  0  0  0
    2.0977   -5.0026   24.1814 C   0  0  0  0  0  0  0  0  0  0  0  0
    0.7708   -4.9644   24.6298 C   0  0  0  0  0  0  0  0  0  0  0  0
    0.3185   -3.9637   25.4903 C   0  0  0  0  0  0  0  0  0  0  0  0
    1.2072   -2.9736   25.9236 C   0  0  0  0  0  0  0  0  0  0  0  0
    2.5281   -2.9747   25.4780 C   0  0  0  0  0  0  0  0  0  0  0  0
    2.9880   -3.9568   24.5706 C   0  0  0  0  0  0  0  0  0  0  0  0
    3.2226   -2.2166   25.8211 H   0  0  0  0  0  0  0  0  0  0  0  0
    0.8731   -2.1874   26.5992 H   0  0  0  0  0  0  0  0  0  0  0  0
   -0.7146   -3.9567   25.8261 H   0  0  0  0  0  0  0  0  0  0  0  0
    0.0742   -5.7327   24.2892 H   0  0  0  0  0  0  0  0  0  0  0  0
    2.7333   -7.0522   23.8948 H   0  0  0  0  0  0  0  0  0  0  0  0
    1.7267   -6.4220   22.5992 H   0  0  0  0  0  0  0  0  0  0  0  0
    4.2067   -6.5827   21.9208 H   0  0  0  0  0  0  0  0  0  0  0  0
    3.4974   -4.9801   21.7848 H   0  0  0  0  0  0  0  0  0  0  0  0
    5.7071   -4.8306   22.7841 H   0  0  0  0  0  0  0  0  0  0  0  0
    5.2098   -5.7771   24.1853 H   0  0  0  0  0  0  0  0  0  0  0  0
    5.0436   -2.0378   23.7845 H   0  0  0  0  0  0  0  0  0  0  0  0
  1  2  2  0
  2  3  1  0
  3  4  1  0
  4  5  2  0
  5  6  1  0
  6  7  1  0
  7  8  1  0
  8  9  2  0
  9 10  1  0
 10 11  2  0
 11 12  1  0
 12 13  2  0
 13 14  1  0
 11 15  1  0
 10 16  1  0
  9 17  1  0
  7 18  2  0
  5 19  1  0
  3 20  1  0
  3 21  1  0
  2 22  1  0
 22 23  1  0
 23 24  1  0
 24 25  1  0
 25 26  1  0
 26 27  1  0
 27 28  2  0
 28 29  1  0
 29 30  2  0
 30 31  1  0
 31 32  2  0
 31 33  1  0
 30 34  1  0
 29 35  1  0
 28 36  1  0
 26 37  1  0
 26 38  1  0
 25 39  1  0
 25 40  1  0
 24 41  1  0
 24 42  1  0
 22 43  1  0
 18  4  1  0
 32 23  1  0
 13  8  1  0
 32 27  1  0
M  END
>  <cnnaffinity>  (1) 
-6.00046

>  <filename>  (1) 
O=C(Cc1csc(-c2cccnc2)n1)NN1CCCc2ccccc21

$$$$
