
     RDKit          3D

 39 41  0  0  0  0  0  0  0  0999 V2000
    4.9207    1.8145   16.9756 H   0  0  0  0  0  0  0  0  0  0  0  0
    5.3872    1.3048   17.8170 C   0  0  0  0  0  0  0  0  0  0  0  0
    6.5432    0.6808   17.5542 N   0  0  0  0  0  0  0  0  0  0  0  0
    7.1457    0.0537   18.5742 C   0  0  0  0  0  0  0  0  0  0  0  0
    8.0978   -0.4195   18.3279 H   0  0  0  0  0  0  0  0  0  0  0  0
    6.6444   -0.0099   19.8912 C   0  0  0  0  0  0  0  0  0  0  0  0
    7.3960   -0.6952   21.0067 C   0  0  0  0  0  0  0  0  0  0  0  0
    8.0295   -1.5038   20.6114 H   0  0  0  0  0  0  0  0  0  0  0  0
    6.6842   -1.1826   21.6887 H   0  0  0  0  0  0  0  0  0  0  0  0
    8.3019    0.2583   21.8652 C   0  0  1  0  0  0  0  0  0  0  0  0
    7.4397    1.3299   22.5587 C   0  0  0  0  0  0  0  0  0  0  0  0
    6.8746    1.0832   23.6111 O   0  0  0  0  0  0  0  0  0  0  0  0
    7.3564    2.5635   21.9547 N   0  0  0  0  0  0  0  0  0  0  0  0
    7.5149    2.6209   20.9629 H   0  0  0  0  0  0  0  0  0  0  0  0
    6.6881    3.6636   22.4853 C   0  0  0  0  0  0  0  0  0  0  0  0
    6.7878    4.0005   23.8268 C   0  0  0  0  0  0  0  0  0  0  0  0
    7.3793    3.3860   24.4906 H   0  0  0  0  0  0  0  0  0  0  0  0
    6.0888    5.1282   24.2535 C   0  0  0  0  0  0  0  0  0  0  0  0
    6.1239    5.4352   25.3006 H   0  0  0  0  0  0  0  0  0  0  0  0
    5.3322    5.8871   23.4462 N   0  0  0  0  0  0  0  0  0  0  0  0
    5.2602    5.5453   22.1511 C   0  0  0  0  0  0  0  0  0  0  0  0
    4.6324    6.2003   21.5454 H   0  0  0  0  0  0  0  0  0  0  0  0
    5.9309    4.4434   21.6239 C   0  0  0  0  0  0  0  0  0  0  0  0
    5.8824    4.1172   20.5985 H   0  0  0  0  0  0  0  0  0  0  0  0
    9.0103   -0.5680   22.9732 C   0  0  0  0  0  0  0  0  0  0  0  0
    9.2164    0.0689   23.8504 H   0  0  0  0  0  0  0  0  0  0  0  0
    8.3621   -1.3816   23.3294 H   0  0  0  0  0  0  0  0  0  0  0  0
   10.2022   -1.1045   22.3379 N   0  0  0  0  0  0  0  0  0  0  0  0
   10.9674   -1.2277   22.9842 H   0  0  0  0  0  0  0  0  0  0  0  0
   10.5712   -0.3221   21.1649 C   0  0  0  0  0  0  0  0  0  0  0  0
   11.6050    0.0489   21.2072 H   0  0  0  0  0  0  0  0  0  0  0  0
   10.5033   -0.9473   20.2755 H   0  0  0  0  0  0  0  0  0  0  0  0
    9.5264    0.7940   21.0728 C   0  0  0  0  0  0  0  0  0  0  0  0
    9.9080    1.7044   21.5482 H   0  0  0  0  0  0  0  0  0  0  0  0
    9.2816    1.0109   20.0302 H   0  0  0  0  0  0  0  0  0  0  0  0
    5.4264    0.6419   20.1335 C   0  0  0  0  0  0  0  0  0  0  0  0
    5.0105    0.6504   21.1440 H   0  0  0  0  0  0  0  0  0  0  0  0
    4.7944    1.3144   19.0842 C   0  0  0  0  0  0  0  0  0  0  0  0
    3.8670    1.8535   19.2359 H   0  0  0  0  0  0  0  0  0  0  0  0
  1  2  1  0
  2  3  2  0
  3  4  1  0
  4  5  1  0
  4  6  2  0
  6  7  1  0
  7  8  1  0
  7  9  1  0
 10  7  1  6
 10 11  1  0
 11 12  2  0
 11 13  1  0
 13 14  1  0
 13 15  1  0
 15 16  2  0
 16 17  1  0
 16 18  1  0
 18 19  1  0
 18 20  2  0
 20 21  1  0
 21 22  1  0
 21 23  2  0
 23 24  1  0
 10 25  1  0
 25 26  1  0
 25 27  1  0
 25 28  1  0
 28 29  1  0
 28 30  1  0
 30 31  1  0
 30 32  1  0
 30 33  1  0
 33 34  1  0
 33 35  1  0
  6 36  1  0
 36 37  1  0
 36 38  2  0
 38 39  1  0
 38  2  1  0
 33 10  1  0
 23 15  1  0
M  END
>  <cnnaffinity>  (1) 
-4.70151

>  <filename>  (1) 
O=C(Nc1ccncc1)[C@@]1(Cc2cccnc2)CCNC1

$$$$
