
     RDKit          3D

 28 29  0  0  0  0  0  0  0  0999 V2000
    8.6560   -1.7596   19.9642 H   0  0  0  0  0  0  0  0  0  0  0  0
    8.1944   -1.5512   20.9262 C   0  0  0  0  0  0  0  0  0  0  0  0
    7.3173   -0.5488   21.0404 C   0  0  0  0  0  0  0  0  0  0  0  0
    6.9765   -0.0633   22.2572 F   0  0  0  0  0  0  0  0  0  0  0  0
    6.6266    0.1244   19.9373 C   0  0  0  0  0  0  0  0  0  0  0  0
    7.1477    0.1048   18.6306 C   0  0  0  0  0  0  0  0  0  0  0  0
    8.0924   -0.3968   18.4301 H   0  0  0  0  0  0  0  0  0  0  0  0
    6.5613    0.6840   17.5823 N   0  0  0  0  0  0  0  0  0  0  0  0
    5.3927    1.3115   17.7936 C   0  0  0  0  0  0  0  0  0  0  0  0
    4.9304    1.7709   16.9226 H   0  0  0  0  0  0  0  0  0  0  0  0
    4.7715    1.3713   19.0462 C   0  0  0  0  0  0  0  0  0  0  0  0
    3.8194    1.8781   19.1503 H   0  0  0  0  0  0  0  0  0  0  0  0
    5.3946    0.7777   20.1399 C   0  0  0  0  0  0  0  0  0  0  0  0
    4.9562    0.7935   21.1364 H   0  0  0  0  0  0  0  0  0  0  0  0
    8.6192   -2.3833   21.9714 N   0  0  0  0  0  0  0  0  0  0  0  0
    9.5797   -2.6960   21.9745 H   0  0  0  0  0  0  0  0  0  0  0  0
    7.9215   -2.7273   23.1145 C   0  0  0  0  0  0  0  0  0  0  0  0
    6.7290   -2.5577   23.2567 O   0  0  0  0  0  0  0  0  0  0  0  0
    8.7901   -3.3839   24.2163 C   0  0  0  0  0  0  0  0  0  0  0  0
   10.0652   -3.7186   23.9208 N   0  0  0  0  0  0  0  0  0  0  0  0
   10.8236   -4.2905   24.8585 C   0  0  0  0  0  0  0  0  0  0  0  0
   11.8461   -4.5031   24.5540 H   0  0  0  0  0  0  0  0  0  0  0  0
   10.3443   -4.5857   26.1384 C   0  0  0  0  0  0  0  0  0  0  0  0
   10.9908   -5.0705   26.8605 H   0  0  0  0  0  0  0  0  0  0  0  0
    9.0274   -4.2356   26.4567 C   0  0  0  0  0  0  0  0  0  0  0  0
    8.6193   -4.4489   27.4437 H   0  0  0  0  0  0  0  0  0  0  0  0
    8.2403   -3.6082   25.4880 C   0  0  0  0  0  0  0  0  0  0  0  0
    7.2191   -3.2944   25.6835 H   0  0  0  0  0  0  0  0  0  0  0  0
  1  2  1  0
  2  3  2  3
  3  4  1  0
  3  5  1  0
  5  6  2  0
  6  7  1  0
  6  8  1  0
  8  9  2  0
  9 10  1  0
  9 11  1  0
 11 12  1  0
 11 13  2  0
 13 14  1  0
  2 15  1  0
 15 16  1  0
 15 17  1  0
 17 18  2  0
 17 19  1  0
 19 20  2  0
 20 21  1  0
 21 22  1  0
 21 23  2  0
 23 24  1  0
 23 25  1  0
 25 26  1  0
 25 27  2  0
 27 28  1  0
 13  5  1  0
 27 19  1  0
M  END
>  <cnnaffinity>  (1) 
-4.52419

>  <filename>  (1) 
O=C(NC=C(F)c1cccnc1)c1ccccn1

$$$$
