
     RDKit          3D

 30 32  0  0  0  0  0  0  0  0999 V2000
    4.9216    1.7759   17.0012 H   0  0  0  0  0  0  0  0  0  0  0  0
    5.4085    1.2884   17.8439 C   0  0  0  0  0  0  0  0  0  0  0  0
    6.5733    0.6696   17.5899 N   0  0  0  0  0  0  0  0  0  0  0  0
    7.1734    0.0454   18.6079 C   0  0  0  0  0  0  0  0  0  0  0  0
    8.1210   -0.4358   18.3794 H   0  0  0  0  0  0  0  0  0  0  0  0
    6.6554    0.0040   19.9119 C   0  0  0  0  0  0  0  0  0  0  0  0
    7.3768   -0.6956   20.9674 C   0  0  0  0  0  0  0  0  0  0  0  0
    8.0034   -1.8923   20.7549 N   0  0  0  0  0  0  0  0  0  0  0  0
    8.4821   -2.2788   21.9051 C   0  0  0  0  0  0  0  0  0  0  0  0
    9.0432   -3.1877   22.0967 H   0  0  0  0  0  0  0  0  0  0  0  0
    8.2082   -1.3733   22.8749 N   0  0  0  0  0  0  0  0  0  0  0  0
    8.5241   -1.4079   23.8309 H   0  0  0  0  0  0  0  0  0  0  0  0
    7.5175   -0.3265   22.2872 C   0  0  0  0  0  0  0  0  0  0  0  0
    7.1389    0.9628   22.8988 C   0  0  0  0  0  0  0  0  0  0  0  0
    7.1602    1.9827   22.2298 O   0  0  0  0  0  0  0  0  0  0  0  0
    6.7581    0.9869   24.3595 C   0  0  0  0  0  0  0  0  0  0  0  0
    6.9579    2.1736   25.0858 C   0  0  0  0  0  0  0  0  0  0  0  0
    7.3864    3.0384   24.5853 H   0  0  0  0  0  0  0  0  0  0  0  0
    6.5977    2.2572   26.4282 C   0  0  0  0  0  0  0  0  0  0  0  0
    6.7459    3.1774   26.9832 H   0  0  0  0  0  0  0  0  0  0  0  0
    6.0318    1.1434   27.0541 C   0  0  0  0  0  0  0  0  0  0  0  0
    5.5802    1.2452   28.7274 Cl  0  0  0  0  0  0  0  0  0  0  0  0
    5.8166   -0.0481   26.3575 C   0  0  0  0  0  0  0  0  0  0  0  0
    5.3716   -0.9010   26.8604 H   0  0  0  0  0  0  0  0  0  0  0  0
    6.1799   -0.1218   25.0120 C   0  0  0  0  0  0  0  0  0  0  0  0
    5.9860   -1.0479   24.4719 H   0  0  0  0  0  0  0  0  0  0  0  0
    5.4330    0.6482   20.1568 C   0  0  0  0  0  0  0  0  0  0  0  0
    4.9969    0.6408   21.1583 H   0  0  0  0  0  0  0  0  0  0  0  0
    4.8030    1.3053   19.1051 C   0  0  0  0  0  0  0  0  0  0  0  0
    3.8744    1.8434   19.2621 H   0  0  0  0  0  0  0  0  0  0  0  0
  1  2  1  0
  2  3  2  0
  3  4  1  0
  4  5  1  0
  4  6  2  0
  6  7  1  0
  7  8  1  0
  8  9  2  0
  9 10  1  0
  9 11  1  0
 11 12  1  0
 11 13  1  0
 13 14  1  0
 14 15  2  0
 14 16  1  0
 16 17  2  0
 17 18  1  0
 17 19  1  0
 19 20  1  0
 19 21  2  0
 21 22  1  0
 21 23  1  0
 23 24  1  0
 23 25  2  0
 25 26  1  0
  6 27  1  0
 27 28  1  0
 27 29  2  0
 29 30  1  0
 29  2  1  0
 13  7  2  0
 25 16  1  0
M  END
>  <cnnaffinity>  (1) 
-5.27414

>  <filename>  (1) 
O=C(c1ccc(Cl)cc1)c1[nH]cnc1-c1cccnc1

$$$$
