
     RDKit          3D

 43 45  0  0  0  0  0  0  0  0999 V2000
    5.8037   -2.0334   21.7115 O   0  0  0  0  0  0  0  0  0  0  0  0
    6.7895   -1.3715   21.9992 C   0  0  0  0  0  0  0  0  0  0  0  0
    7.3894   -0.5981   21.0165 N   0  0  0  0  0  0  0  0  0  0  0  0
    6.6962    0.0009   19.9274 C   0  0  0  0  0  0  0  0  0  0  0  0
    5.4645    0.6110   20.1629 C   0  0  0  0  0  0  0  0  0  0  0  0
    4.8285    1.2735   19.1019 C   0  0  0  0  0  0  0  0  0  0  0  0
    5.4020    1.2895   17.8246 C   0  0  0  0  0  0  0  0  0  0  0  0
    6.5710    0.6771   17.5633 N   0  0  0  0  0  0  0  0  0  0  0  0
    7.1958    0.0591   18.5974 C   0  0  0  0  0  0  0  0  0  0  0  0
    8.1457   -0.4247   18.4000 H   0  0  0  0  0  0  0  0  0  0  0  0
    4.8863    1.8170   17.0251 H   0  0  0  0  0  0  0  0  0  0  0  0
    3.8994    1.8064   19.2598 H   0  0  0  0  0  0  0  0  0  0  0  0
    5.0376    0.6032   21.1625 H   0  0  0  0  0  0  0  0  0  0  0  0
    8.3837   -0.7842   20.9285 H   0  0  0  0  0  0  0  0  0  0  0  0
    7.5411   -1.6807   23.1344 N   0  0  0  0  0  0  0  0  0  0  0  0
    8.6174   -0.7925   23.5991 C   0  0  0  0  0  0  0  0  0  0  0  0
    8.3644   -0.2979   25.0135 C   0  0  0  0  0  0  0  0  0  0  0  0
    9.0988   -0.8414   26.0794 C   0  0  0  0  0  0  0  0  0  0  0  0
    8.9036   -0.4082   27.3968 C   0  0  0  0  0  0  0  0  0  0  0  0
    7.9528    0.5771   27.6650 C   0  0  0  0  0  0  0  0  0  0  0  0
    7.2149    1.1297   26.6124 C   0  0  0  0  0  0  0  0  0  0  0  0
    7.4159    0.7019   25.2910 C   0  0  0  0  0  0  0  0  0  0  0  0
    6.3939    1.4882   23.8753 Br  0  0  0  0  0  0  0  0  0  0  0  0
    6.4776    1.8987   26.8142 H   0  0  0  0  0  0  0  0  0  0  0  0
    7.7931    0.9083   28.6873 H   0  0  0  0  0  0  0  0  0  0  0  0
    9.4908   -0.8278   28.2093 H   0  0  0  0  0  0  0  0  0  0  0  0
    9.8274   -1.6095   25.8612 H   0  0  0  0  0  0  0  0  0  0  0  0
    9.5740   -1.3324   23.5781 H   0  0  0  0  0  0  0  0  0  0  0  0
    8.7218    0.0746   22.9369 H   0  0  0  0  0  0  0  0  0  0  0  0
    7.2416   -2.8629   23.9575 C   0  0  0  0  0  0  0  0  0  0  0  0
    7.1920   -4.1433   23.1224 C   0  0  0  0  0  0  0  0  0  0  0  0
    6.0690   -4.9998   23.7068 C   0  0  0  0  0  0  0  0  0  0  0  0
    5.0668   -3.9944   24.2572 C   0  0  0  0  0  0  0  0  0  0  0  0
    5.9015   -2.7870   24.6954 C   0  0  0  0  0  0  0  0  0  0  0  0
    5.3831   -1.8469   24.4971 H   0  0  0  0  0  0  0  0  0  0  0  0
    6.0868   -2.8452   25.7728 H   0  0  0  0  0  0  0  0  0  0  0  0
    4.3680   -3.6943   23.4689 H   0  0  0  0  0  0  0  0  0  0  0  0
    4.4912   -4.4187   25.0889 H   0  0  0  0  0  0  0  0  0  0  0  0
    5.6174   -5.6524   22.9507 H   0  0  0  0  0  0  0  0  0  0  0  0
    6.4546   -5.6283   24.5188 H   0  0  0  0  0  0  0  0  0  0  0  0
    6.9723   -3.8985   22.0776 H   0  0  0  0  0  0  0  0  0  0  0  0
    8.1501   -4.6708   23.1673 H   0  0  0  0  0  0  0  0  0  0  0  0
    8.0265   -2.9747   24.7170 H   0  0  0  0  0  0  0  0  0  0  0  0
  1  2  2  0
  2  3  1  0
  3  4  1  0
  4  5  2  0
  5  6  1  0
  6  7  2  0
  7  8  1  0
  8  9  2  0
  9 10  1  0
  7 11  1  0
  6 12  1  0
  5 13  1  0
  3 14  1  0
  2 15  1  0
 15 16  1  0
 16 17  1  0
 17 18  2  0
 18 19  1  0
 19 20  2  0
 20 21  1  0
 21 22  2  0
 22 23  1  0
 21 24  1  0
 20 25  1  0
 19 26  1  0
 18 27  1  0
 16 28  1  0
 16 29  1  0
 15 30  1  0
 30 31  1  0
 31 32  1  0
 32 33  1  0
 33 34  1  0
 34 35  1  0
 34 36  1  0
 33 37  1  0
 33 38  1  0
 32 39  1  0
 32 40  1  0
 31 41  1  0
 31 42  1  0
 30 43  1  0
  9  4  1  0
 22 17  1  0
 34 30  1  0
M  END
>  <cnnaffinity>  (1) 
-5.36044

>  <filename>  (1) 
O=C(Nc1cccnc1)N(Cc1ccccc1Br)C1CCCC1

$$$$
