
     RDKit          3D

 39 41  0  0  0  0  0  0  0  0999 V2000
    4.9086    1.8087   16.9338 H   0  0  0  0  0  0  0  0  0  0  0  0
    5.3789    1.3139   17.7814 C   0  0  0  0  0  0  0  0  0  0  0  0
    6.5293    0.6694   17.5248 N   0  0  0  0  0  0  0  0  0  0  0  0
    7.1495    0.0645   18.5441 C   0  0  0  0  0  0  0  0  0  0  0  0
    8.0813   -0.4480   18.3169 H   0  0  0  0  0  0  0  0  0  0  0  0
    6.6570    0.0582   19.8661 C   0  0  0  0  0  0  0  0  0  0  0  0
    7.3692   -0.5949   20.8997 N   0  0  0  0  0  0  0  0  0  0  0  0
    8.7640   -0.6226   21.1097 C   0  0  0  0  0  0  0  0  0  0  0  0
    9.5994   -0.0751   20.4186 O   0  0  0  0  0  0  0  0  0  0  0  0
    8.9079   -1.4593   22.2965 C   0  0  0  0  0  0  0  0  0  0  0  0
    9.8742   -1.7052   22.7020 H   0  0  0  0  0  0  0  0  0  0  0  0
    7.6877   -1.8460   22.7356 C   0  0  0  0  0  0  0  0  0  0  0  0
    7.4278   -2.8113   23.8873 C   0  0  0  0  0  0  0  0  0  0  0  0
    8.3598   -3.3900   24.4304 O   0  0  0  0  0  0  0  0  0  0  0  0
    6.1305   -3.0135   24.2392 N   0  0  0  0  0  0  0  0  0  0  0  0
    5.4534   -2.3757   23.8541 H   0  0  0  0  0  0  0  0  0  0  0  0
    5.7370   -3.9406   25.2891 C   0  0  0  0  0  0  0  0  0  0  0  0
    6.3453   -3.7671   26.1869 H   0  0  0  0  0  0  0  0  0  0  0  0
    4.6983   -3.7211   25.5523 H   0  0  0  0  0  0  0  0  0  0  0  0
    5.8650   -5.4140   24.8597 C   0  0  0  0  0  0  0  0  0  0  0  0
    5.2459   -5.5712   23.9709 H   0  0  0  0  0  0  0  0  0  0  0  0
    6.9009   -5.5884   24.5486 H   0  0  0  0  0  0  0  0  0  0  0  0
    5.4675   -6.3445   25.9831 C   0  0  0  0  0  0  0  0  0  0  0  0
    6.3603   -6.5578   27.0473 C   0  0  0  0  0  0  0  0  0  0  0  0
    7.3624   -6.1345   26.9918 H   0  0  0  0  0  0  0  0  0  0  0  0
    5.9702   -7.2839   28.1749 C   0  0  0  0  0  0  0  0  0  0  0  0
    6.6721   -7.4390   28.9910 H   0  0  0  0  0  0  0  0  0  0  0  0
    4.6781   -7.8110   28.2489 C   0  0  0  0  0  0  0  0  0  0  0  0
    4.3727   -8.3663   29.1309 H   0  0  0  0  0  0  0  0  0  0  0  0
    3.7879   -7.6323   27.1843 C   0  0  0  0  0  0  0  0  0  0  0  0
    2.7919   -8.0663   27.2328 H   0  0  0  0  0  0  0  0  0  0  0  0
    4.1798   -6.8976   26.0590 C   0  0  0  0  0  0  0  0  0  0  0  0
    3.4826   -6.7480   25.2361 H   0  0  0  0  0  0  0  0  0  0  0  0
    6.6838   -1.2159   21.9535 N   0  0  0  0  0  0  0  0  0  0  0  0
    5.9290   -1.7905   21.5768 H   0  0  0  0  0  0  0  0  0  0  0  0
    5.4423    0.7199   20.1148 C   0  0  0  0  0  0  0  0  0  0  0  0
    5.0413    0.7137   21.1264 H   0  0  0  0  0  0  0  0  0  0  0  0
    4.7959    1.3587   19.0543 C   0  0  0  0  0  0  0  0  0  0  0  0
    3.8560    1.8830   19.2009 H   0  0  0  0  0  0  0  0  0  0  0  0
  1  2  1  0
  2  3  2  0
  3  4  1  0
  4  5  1  0
  4  6  2  0
  6  7  1  0
  7  8  1  0
  8  9  2  0
  8 10  1  0
 10 11  1  0
 10 12  2  0
 12 13  1  0
 13 14  2  0
 13 15  1  0
 15 16  1  0
 15 17  1  0
 17 18  1  0
 17 19  1  0
 17 20  1  0
 20 21  1  0
 20 22  1  0
 20 23  1  0
 23 24  2  0
 24 25  1  0
 24 26  1  0
 26 27  1  0
 26 28  2  0
 28 29  1  0
 28 30  1  0
 30 31  1  0
 30 32  2  0
 32 33  1  0
 12 34  1  0
 34 35  1  0
  6 36  1  0
 36 37  1  0
 36 38  2  0
 38 39  1  0
 38  2  1  0
 34  7  1  0
 32 23  1  0
M  END
>  <cnnaffinity>  (1) 
-5.15243

>  <filename>  (1) 
O=C(NCCc1ccccc1)c1cc(=O)n(-c2cccnc2)[nH]1

$$$$
