
     RDKit          3D

 30 31  0  0  0  0  0  0  0  0999 V2000
    7.7623    0.9658   22.6593 O   0  0  0  0  0  0  0  0  0  0  0  0
    8.2605    0.3609   21.7258 C   0  0  0  0  0  0  0  0  0  0  0  0
    7.4716   -0.6778   20.9364 C   0  0  0  0  0  0  0  0  0  0  0  0
    6.6878   -0.0271   19.7988 C   0  0  0  0  0  0  0  0  0  0  0  0
    5.4943    0.6539   20.0745 C   0  0  0  0  0  0  0  0  0  0  0  0
    4.8249    1.3149   19.0388 C   0  0  0  0  0  0  0  0  0  0  0  0
    5.3917    1.2890   17.7607 C   0  0  0  0  0  0  0  0  0  0  0  0
    6.5291    0.6423   17.4687 N   0  0  0  0  0  0  0  0  0  0  0  0
    7.1520    0.0052   18.4712 C   0  0  0  0  0  0  0  0  0  0  0  0
    8.0744   -0.5117   18.2014 H   0  0  0  0  0  0  0  0  0  0  0  0
    4.9148    1.8120   16.9317 H   0  0  0  0  0  0  0  0  0  0  0  0
    3.8988    1.8571   19.2039 H   0  0  0  0  0  0  0  0  0  0  0  0
    5.1100    0.6640   21.0958 H   0  0  0  0  0  0  0  0  0  0  0  0
    6.7980   -1.1356   21.6681 H   0  0  0  0  0  0  0  0  0  0  0  0
    8.1458   -1.4560   20.5609 H   0  0  0  0  0  0  0  0  0  0  0  0
    9.5142    0.6103   21.2319 N   0  0  0  0  0  0  0  0  0  0  0  0
   10.3613    1.6173   21.8604 C   0  0  0  0  0  0  0  0  0  0  0  0
   10.9430    1.1345   23.1623 C   0  0  0  0  0  0  0  0  0  0  0  0
   11.8384    0.1353   23.3879 C   0  0  0  0  0  0  0  0  0  0  0  0
   12.4012   -0.6522   22.1991 C   0  0  0  0  0  0  0  0  0  0  0  0
   11.6889   -0.7376   21.1650 O   0  0  0  0  0  0  0  0  0  0  0  0
   13.5379   -1.1339   22.3206 O   0  0  0  0  0  1  0  0  0  0  0  0
   12.0014    0.0659   24.8273 C   0  0  0  0  0  0  0  0  0  0  0  0
   11.1513    0.9808   25.3387 C   0  0  0  0  0  0  0  0  0  0  0  0
   10.5143    1.6520   24.3416 O   0  0  0  0  0  0  0  0  0  0  0  0
   10.8757    1.2300   26.3561 H   0  0  0  0  0  0  0  0  0  0  0  0
   12.6706   -0.5519   25.4094 H   0  0  0  0  0  0  0  0  0  0  0  0
   11.1790    1.7899   21.1494 H   0  0  0  0  0  0  0  0  0  0  0  0
    9.8172    2.5561   21.9898 H   0  0  0  0  0  0  0  0  0  0  0  0
   10.1187   -0.1890   20.9921 H   0  0  0  0  0  0  0  0  0  0  0  0
  1  2  2  0
  2  3  1  0
  3  4  1  0
  4  5  2  0
  5  6  1  0
  6  7  2  0
  7  8  1  0
  8  9  2  0
  9 10  1  0
  7 11  1  0
  6 12  1  0
  5 13  1  0
  3 14  1  0
  3 15  1  0
  2 16  1  0
 16 17  1  0
 17 18  1  0
 18 19  2  0
 19 20  1  0
 20 21  2  0
 20 22  1  0
 19 23  1  0
 23 24  2  0
 24 25  1  0
 24 26  1  0
 23 27  1  0
 17 28  1  0
 17 29  1  0
 16 30  1  0
  9  4  1  0
 25 18  1  0
M  CHG  1  22  -1
M  END
>  <cnnaffinity>  (1) 
-4.26688

>  <filename>  (1) 
O=C(Cc1cccnc1)NCc1occc1C(=O)[O-]

$$$$
