
     RDKit          3D

 36 38  0  0  0  0  0  0  0  0999 V2000
    5.8670   -6.5527   23.0736 O   0  0  0  0  0  0  0  0  0  0  0  0
    5.2156   -5.5304   23.0962 C   0  0  0  0  0  0  0  0  0  0  0  0
    4.6845   -4.9237   21.8355 C   0  0  0  0  0  0  0  0  0  0  0  0
    5.7254   -3.9522   21.4665 C   0  0  0  0  0  0  0  0  0  0  0  0
    6.8454   -4.3034   20.9170 N   0  0  0  0  0  0  0  0  0  0  0  0
    7.5315   -3.1200   20.8042 O   0  0  0  0  0  0  0  0  0  0  0  0
    6.7529   -2.1541   21.2789 C   0  0  0  0  0  0  0  0  0  0  0  0
    7.3098   -0.7250   21.0502 C   0  0  0  0  0  0  0  0  0  0  0  0
    8.6473   -0.8096   20.8013 F   0  0  0  0  0  0  0  0  0  0  0  0
    7.1826   -0.0148   22.2080 F   0  0  0  0  0  0  0  0  0  0  0  0
    6.6271    0.0363   19.9288 C   0  0  0  0  0  0  0  0  0  0  0  0
    5.4013    0.6760   20.1584 C   0  0  0  0  0  0  0  0  0  0  0  0
    4.7847    1.3205   19.0883 C   0  0  0  0  0  0  0  0  0  0  0  0
    5.4117    1.2966   17.8396 C   0  0  0  0  0  0  0  0  0  0  0  0
    6.5804    0.6813   17.6110 N   0  0  0  0  0  0  0  0  0  0  0  0
    7.1774    0.0742   18.6403 C   0  0  0  0  0  0  0  0  0  0  0  0
    8.1327   -0.4033   18.4252 H   0  0  0  0  0  0  0  0  0  0  0  0
    4.9509    1.7804   16.9812 H   0  0  0  0  0  0  0  0  0  0  0  0
    3.8476    1.8517   19.2108 H   0  0  0  0  0  0  0  0  0  0  0  0
    4.9579    0.6915   21.1546 H   0  0  0  0  0  0  0  0  0  0  0  0
    5.6209   -2.6176   21.7546 N   0  0  0  0  0  0  0  0  0  0  0  0
    4.5950   -5.7253   21.1074 H   0  0  0  0  0  0  0  0  0  0  0  0
    3.7290   -4.4297   21.9972 H   0  0  0  0  0  0  0  0  0  0  0  0
    4.9380   -4.8105   24.2202 N   0  0  0  0  0  0  0  0  0  0  0  0
    5.1466   -5.2762   25.5304 C   0  0  0  0  0  0  0  0  0  0  0  0
    5.5250   -4.3883   26.5406 C   0  0  0  0  0  0  0  0  0  0  0  0
    5.7393   -4.8594   27.8407 C   0  0  0  0  0  0  0  0  0  0  0  0
    5.5560   -6.2164   28.1209 C   0  0  0  0  0  0  0  0  0  0  0  0
    5.8322   -6.8158   29.7315 Cl  0  0  0  0  0  0  0  0  0  0  0  0
    5.1579   -7.1069   27.1206 C   0  0  0  0  0  0  0  0  0  0  0  0
    4.9590   -6.6353   25.8237 C   0  0  0  0  0  0  0  0  0  0  0  0
    4.6710   -7.3050   25.0230 H   0  0  0  0  0  0  0  0  0  0  0  0
    5.0181   -8.1567   27.3632 H   0  0  0  0  0  0  0  0  0  0  0  0
    6.0439   -4.1901   28.6383 H   0  0  0  0  0  0  0  0  0  0  0  0
    5.6742   -3.3385   26.3048 H   0  0  0  0  0  0  0  0  0  0  0  0
    4.7534   -3.8299   24.0699 H   0  0  0  0  0  0  0  0  0  0  0  0
  1  2  2  0
  2  3  1  0
  3  4  1  0
  4  5  2  0
  5  6  1  0
  6  7  1  0
  7  8  1  0
  8  9  1  0
  8 10  1  0
  8 11  1  0
 11 12  2  0
 12 13  1  0
 13 14  2  0
 14 15  1  0
 15 16  2  0
 16 17  1  0
 14 18  1  0
 13 19  1  0
 12 20  1  0
  7 21  2  0
  3 22  1  0
  3 23  1  0
  2 24  1  0
 24 25  1  0
 25 26  2  0
 26 27  1  0
 27 28  2  0
 28 29  1  0
 28 30  1  0
 30 31  2  0
 31 32  1  0
 30 33  1  0
 27 34  1  0
 26 35  1  0
 24 36  1  0
 21  4  1  0
 31 25  1  0
 16 11  1  0
M  END
>  <cnnaffinity>  (1) 
-5.11964

>  <filename>  (1) 
O=C(Cc1noc(C(F)(F)c2cccnc2)n1)Nc1ccc(Cl)cc1

$$$$
