
     RDKit          3D

 36 38  0  0  0  0  0  0  0  0999 V2000
    4.9169    1.7783   16.9993 H   0  0  0  0  0  0  0  0  0  0  0  0
    5.4043    1.2904   17.8435 C   0  0  0  0  0  0  0  0  0  0  0  0
    6.5722    0.6728   17.5889 N   0  0  0  0  0  0  0  0  0  0  0  0
    7.1817    0.0506   18.6015 C   0  0  0  0  0  0  0  0  0  0  0  0
    8.1272   -0.4414   18.3818 H   0  0  0  0  0  0  0  0  0  0  0  0
    6.6586    0.0140   19.9089 C   0  0  0  0  0  0  0  0  0  0  0  0
    7.3482   -0.6863   20.9517 N   0  0  0  0  0  0  0  0  0  0  0  0
    7.7833   -1.9448   20.7650 N   0  0  0  0  0  0  0  0  0  0  0  0
    8.2816   -2.3451   21.8782 N   0  0  0  0  0  0  0  0  0  0  0  0
    8.1973   -1.3903   22.8212 N   0  0  0  0  0  0  0  0  0  0  0  0
    7.6258   -0.3509   22.2423 C   0  0  0  0  0  0  0  0  0  0  0  0
    7.4105    1.0243   22.8268 C   0  0  0  0  0  0  0  0  0  0  0  0
    7.1993    1.9910   22.1123 O   0  0  0  0  0  0  0  0  0  0  0  0
    7.4575    1.1307   24.1779 N   0  0  0  0  0  0  0  0  0  0  0  0
    7.6811    0.3126   24.7179 H   0  0  0  0  0  0  0  0  0  0  0  0
    7.2000    2.3943   24.8566 C   0  0  0  0  0  0  0  0  0  0  0  0
    7.7896    3.1813   24.3785 H   0  0  0  0  0  0  0  0  0  0  0  0
    7.5530    2.3195   25.8869 H   0  0  0  0  0  0  0  0  0  0  0  0
    5.7147    2.7672   24.8486 C   0  0  0  0  0  0  0  0  0  0  0  0
    5.1523    1.9627   25.3343 H   0  0  0  0  0  0  0  0  0  0  0  0
    5.3781    2.8067   23.8083 H   0  0  0  0  0  0  0  0  0  0  0  0
    5.4582    4.0827   25.5379 C   0  0  0  0  0  0  0  0  0  0  0  0
    5.5431    5.2871   24.8209 C   0  0  0  0  0  0  0  0  0  0  0  0
    5.7631    5.2607   23.7536 H   0  0  0  0  0  0  0  0  0  0  0  0
    5.3504    6.5130   25.4652 C   0  0  0  0  0  0  0  0  0  0  0  0
    5.4077    7.4366   24.8943 H   0  0  0  0  0  0  0  0  0  0  0  0
    5.0808    6.5461   26.8385 C   0  0  0  0  0  0  0  0  0  0  0  0
    4.9255    7.4976   27.3387 H   0  0  0  0  0  0  0  0  0  0  0  0
    5.0150    5.3521   27.5662 C   0  0  0  0  0  0  0  0  0  0  0  0
    4.8102    5.3710   28.6336 H   0  0  0  0  0  0  0  0  0  0  0  0
    5.2093    4.1282   26.9179 C   0  0  0  0  0  0  0  0  0  0  0  0
    5.1667    3.1992   27.4842 H   0  0  0  0  0  0  0  0  0  0  0  0
    5.4393    0.6425   20.1676 C   0  0  0  0  0  0  0  0  0  0  0  0
    5.0055    0.6340   21.1684 H   0  0  0  0  0  0  0  0  0  0  0  0
    4.8079    1.3019   19.1074 C   0  0  0  0  0  0  0  0  0  0  0  0
    3.8787    1.8405   19.2641 H   0  0  0  0  0  0  0  0  0  0  0  0
  1  2  1  0
  2  3  2  0
  3  4  1  0
  4  5  1  0
  4  6  2  0
  6  7  1  0
  7  8  1  0
  8  9  2  0
  9 10  1  0
 10 11  2  0
 11 12  1  0
 12 13  2  0
 12 14  1  0
 14 15  1  0
 14 16  1  0
 16 17  1  0
 16 18  1  0
 16 19  1  0
 19 20  1  0
 19 21  1  0
 19 22  1  0
 22 23  2  0
 23 24  1  0
 23 25  1  0
 25 26  1  0
 25 27  2  0
 27 28  1  0
 27 29  1  0
 29 30  1  0
 29 31  2  0
 31 32  1  0
  6 33  1  0
 33 34  1  0
 33 35  2  0
 35 36  1  0
 35  2  1  0
 11  7  1  0
 31 22  1  0
M  END
>  <cnnaffinity>  (1) 
-4.92

>  <filename>  (1) 
O=C(NCCc1ccccc1)c1nnnn1-c1cccnc1

$$$$
