
     RDKit          3D

 34 36  0  0  0  0  0  0  0  0999 V2000
    6.2306   -3.0196   19.9216 O   0  0  0  0  0  0  0  0  0  0  0  0
    6.0447   -2.7893   21.1007 C   0  0  0  0  0  0  0  0  0  0  0  0
    6.6087   -1.7140   21.7403 N   0  0  0  0  0  0  0  0  0  0  0  0
    7.4050   -0.7137   21.0128 C   0  0  0  0  0  0  0  0  0  0  0  0
    8.0316    0.2822   22.0042 C   0  0  0  0  0  0  0  0  0  0  0  0
    9.0163    1.0322   21.3098 O   0  0  0  0  0  0  0  0  0  0  0  0
    9.3096    1.7647   21.8668 H   0  0  0  0  0  0  0  0  0  0  0  0
    8.4741   -0.2961   22.8313 H   0  0  0  0  0  0  0  0  0  0  0  0
    7.2345    0.9220   22.4224 H   0  0  0  0  0  0  0  0  0  0  0  0
    6.6235   -0.0217   19.8977 C   0  0  0  0  0  0  0  0  0  0  0  0
    5.4158    0.6505   20.1284 C   0  0  0  0  0  0  0  0  0  0  0  0
    4.7892    1.3150   19.0706 C   0  0  0  0  0  0  0  0  0  0  0  0
    5.4045    1.2974   17.8123 C   0  0  0  0  0  0  0  0  0  0  0  0
    6.5601    0.6667   17.5623 N   0  0  0  0  0  0  0  0  0  0  0  0
    7.1422    0.0363   18.5955 C   0  0  0  0  0  0  0  0  0  0  0  0
    8.0916   -0.4461   18.3622 H   0  0  0  0  0  0  0  0  0  0  0  0
    4.9507    1.8222   16.9720 H   0  0  0  0  0  0  0  0  0  0  0  0
    3.8616    1.8630   19.2124 H   0  0  0  0  0  0  0  0  0  0  0  0
    4.9672    0.6601   21.1242 H   0  0  0  0  0  0  0  0  0  0  0  0
    8.2546   -1.2196   20.5446 H   0  0  0  0  0  0  0  0  0  0  0  0
    6.1598   -1.4417   22.6079 H   0  0  0  0  0  0  0  0  0  0  0  0
    5.1628   -3.6992   21.9687 C   0  0  0  0  0  0  0  0  0  0  0  0
    4.6822   -3.4270   23.1414 N   0  0  0  0  0  0  0  0  0  0  0  0
    3.8338   -4.4848   23.4303 C   0  0  0  0  0  0  0  0  0  0  0  0
    2.9903   -4.7364   24.5267 C   0  0  0  0  0  0  0  0  0  0  0  0
    2.2045   -5.8911   24.4938 C   0  0  0  0  0  0  0  0  0  0  0  0
    2.2477   -6.7670   23.3897 C   0  0  0  0  0  0  0  0  0  0  0  0
    3.0982   -6.5339   22.3064 C   0  0  0  0  0  0  0  0  0  0  0  0
    3.8851   -5.3868   22.3617 C   0  0  0  0  0  0  0  0  0  0  0  0
    4.7716   -4.9067   21.4497 O   0  0  0  0  0  0  0  0  0  0  0  0
    3.1255   -7.1960   21.4540 H   0  0  0  0  0  0  0  0  0  0  0  0
    1.5922   -7.6336   23.3632 H   0  0  0  0  0  0  0  0  0  0  0  0
    1.5716   -6.1431   25.3427 H   0  0  0  0  0  0  0  0  0  0  0  0
    2.9653   -4.0518   25.3685 H   0  0  0  0  0  0  0  0  0  0  0  0
  1  2  2  0
  2  3  1  0
  3  4  1  0
  4  5  1  0
  5  6  1  0
  6  7  1  0
  5  8  1  0
  5  9  1  0
  4 10  1  0
 10 11  2  0
 11 12  1  0
 12 13  2  0
 13 14  1  0
 14 15  2  0
 15 16  1  0
 13 17  1  0
 12 18  1  0
 11 19  1  0
  4 20  1  0
  3 21  1  0
  2 22  1  0
 22 23  2  0
 23 24  1  0
 24 25  2  0
 25 26  1  0
 26 27  2  0
 27 28  1  0
 28 29  2  0
 29 30  1  0
 28 31  1  0
 27 32  1  0
 26 33  1  0
 25 34  1  0
 15 10  1  0
 30 22  1  0
 29 24  1  0
M  END
>  <cnnaffinity>  (1) 
-5.00173

>  <filename>  (1) 
O=C(NC(CO)c1cccnc1)c1nc2ccccc2o1

$$$$
