
     RDKit          3D

 34 36  0  0  0  0  0  0  0  0999 V2000
   11.3555    1.4075   24.5534 H   0  0  0  0  0  0  0  0  0  0  0  0
   12.0764    2.0546   24.5188 O   0  0  0  0  0  0  0  0  0  0  0  0
   12.1029    2.5627   23.2618 C   0  0  0  0  0  0  0  0  0  0  0  0
   13.0511    3.5575   23.0042 C   0  0  0  0  0  0  0  0  0  0  0  0
   13.7022    3.8643   23.8122 H   0  0  0  0  0  0  0  0  0  0  0  0
   13.1231    4.1338   21.7315 C   0  0  0  0  0  0  0  0  0  0  0  0
   14.1785    5.4833   21.4363 Cl  0  0  0  0  0  0  0  0  0  0  0  0
   12.3385    3.6543   20.6850 C   0  0  0  0  0  0  0  0  0  0  0  0
   12.4146    4.1084   19.7026 H   0  0  0  0  0  0  0  0  0  0  0  0
   11.4277    2.6212   20.9364 C   0  0  0  0  0  0  0  0  0  0  0  0
   10.8523    2.1531   20.1609 H   0  0  0  0  0  0  0  0  0  0  0  0
   11.2404    2.1343   22.2216 C   0  0  0  0  0  0  0  0  0  0  0  0
   10.1467    1.3278   22.5674 O   0  0  0  0  0  0  0  0  0  0  0  0
    9.5470    0.4775   21.6694 C   0  0  0  0  0  0  0  0  0  0  0  0
   10.0816   -0.0441   20.7244 O   0  0  0  0  0  0  0  0  0  0  0  0
    8.2679    0.2855   22.0803 N   0  0  0  0  0  0  0  0  0  0  0  0
    7.9165    1.0420   22.6390 H   0  0  0  0  0  0  0  0  0  0  0  0
    7.3335   -0.4773   21.3043 C   0  0  0  0  0  0  0  0  0  0  0  0
    6.6561    0.2198   20.1682 C   0  0  0  0  0  0  0  0  0  0  0  0
    7.2728    0.2126   18.9066 C   0  0  0  0  0  0  0  0  0  0  0  0
    8.2480   -0.2618   18.8040 H   0  0  0  0  0  0  0  0  0  0  0  0
    6.7285    0.7184   17.7899 N   0  0  0  0  0  0  0  0  0  0  0  0
    5.5223    1.2897   17.9088 C   0  0  0  0  0  0  0  0  0  0  0  0
    5.0862    1.6747   16.9885 H   0  0  0  0  0  0  0  0  0  0  0  0
    4.8268    1.3853   19.1209 C   0  0  0  0  0  0  0  0  0  0  0  0
    3.8532    1.8625   19.1426 H   0  0  0  0  0  0  0  0  0  0  0  0
    5.4053    0.8460   20.2727 C   0  0  0  0  0  0  0  0  0  0  0  0
    4.8971    0.8925   21.2379 H   0  0  0  0  0  0  0  0  0  0  0  0
    7.6671   -1.9284   21.1048 C   0  0  0  0  0  0  0  0  0  0  0  0
    7.3249   -2.3704   20.1780 H   0  0  0  0  0  0  0  0  0  0  0  0
    8.6296   -2.2724   21.4640 H   0  0  0  0  0  0  0  0  0  0  0  0
    6.6118   -1.5390   22.0872 C   0  0  0  0  0  0  0  0  0  0  0  0
    6.8766   -1.6144   23.1351 H   0  0  0  0  0  0  0  0  0  0  0  0
    5.5746   -1.7368   21.8429 H   0  0  0  0  0  0  0  0  0  0  0  0
  1  2  1  0
  2  3  1  0
  3  4  2  0
  4  5  1  0
  4  6  1  0
  6  7  1  0
  6  8  2  0
  8  9  1  0
  8 10  1  0
 10 11  1  0
 10 12  2  0
 12 13  1  0
 13 14  1  0
 14 15  2  0
 14 16  1  0
 16 17  1  0
 16 18  1  0
 18 19  1  0
 19 20  2  0
 20 21  1  0
 20 22  1  0
 22 23  2  0
 23 24  1  0
 23 25  1  0
 25 26  1  0
 25 27  2  0
 27 28  1  0
 18 29  1  0
 29 30  1  0
 29 31  1  0
 29 32  1  0
 32 33  1  0
 32 34  1  0
 12  3  1  0
 32 18  1  0
 27 19  1  0
M  END
>  <cnnaffinity>  (1) 
-5.26627

>  <filename>  (1) 
O=C(NC1(c2cccnc2)CC1)Oc1ccc(Cl)cc1O

$$$$
