
     RDKit          3D

 31 33  0  0  0  0  0  0  0  0999 V2000
    4.9157    1.7898   16.9907 H   0  0  0  0  0  0  0  0  0  0  0  0
    5.3993    1.2961   17.8305 C   0  0  0  0  0  0  0  0  0  0  0  0
    6.5634    0.6863   17.5646 N   0  0  0  0  0  0  0  0  0  0  0  0
    7.1768    0.0713   18.5810 C   0  0  0  0  0  0  0  0  0  0  0  0
    8.1238   -0.4172   18.3490 H   0  0  0  0  0  0  0  0  0  0  0  0
    6.6687    0.0135   19.8895 C   0  0  0  0  0  0  0  0  0  0  0  0
    7.4044   -0.6914   21.0061 C   0  0  2  0  0  0  0  0  0  0  0  0
    8.1917   -1.3352   20.5986 H   0  0  0  0  0  0  0  0  0  0  0  0
    6.5110   -1.6424   21.8312 C   0  0  0  0  0  0  0  0  0  0  0  0
    5.7683   -2.5287   21.4585 O   0  0  0  0  0  0  0  0  0  0  0  0
    6.7473   -1.3339   23.1248 N   0  0  0  0  0  0  0  0  0  0  0  0
    6.2808   -1.9219   23.7931 H   0  0  0  0  0  0  0  0  0  0  0  0
    7.7579   -0.3486   23.4249 C   0  0  0  0  0  0  0  0  0  0  0  0
    8.6593   -0.8148   23.8527 H   0  0  0  0  0  0  0  0  0  0  0  0
    7.3901    0.3818   24.1640 H   0  0  0  0  0  0  0  0  0  0  0  0
    8.0197    0.2971   22.0413 C   0  0  1  0  0  0  0  0  0  0  0  0
    7.4650    1.2432   21.9876 H   0  0  0  0  0  0  0  0  0  0  0  0
    9.5027    0.6228   21.8254 C   0  0  0  0  0  0  0  0  0  0  0  0
   10.2564   -0.1912   21.3296 O   0  0  0  0  0  0  0  0  0  0  0  0
   10.0040    1.9407   22.2928 C   0  0  0  0  0  0  0  0  0  0  0  0
   11.6417    2.3767   21.9483 S   0  0  0  0  0  0  0  0  0  0  0  0
   11.4598    3.8669   22.7732 C   0  0  0  0  0  0  0  0  0  0  0  0
   12.2906    4.5596   22.8249 H   0  0  0  0  0  0  0  0  0  0  0  0
   10.2106    4.0296   23.2946 C   0  0  0  0  0  0  0  0  0  0  0  0
    9.8900    4.9071   23.8456 H   0  0  0  0  0  0  0  0  0  0  0  0
    9.3698    2.9183   23.0195 C   0  0  0  0  0  0  0  0  0  0  0  0
    8.3414    2.8441   23.3628 H   0  0  0  0  0  0  0  0  0  0  0  0
    5.4500    0.6533   20.1483 C   0  0  0  0  0  0  0  0  0  0  0  0
    5.0174    0.6251   21.1517 H   0  0  0  0  0  0  0  0  0  0  0  0
    4.8091    1.3105   19.0985 C   0  0  0  0  0  0  0  0  0  0  0  0
    3.8789    1.8403   19.2526 H   0  0  0  0  0  0  0  0  0  0  0  0
  1  2  1  0
  2  3  2  0
  3  4  1  0
  4  5  1  0
  4  6  2  0
  6  7  1  0
  7  8  1  6
  7  9  1  0
  9 10  2  0
  9 11  1  0
 11 12  1  0
 11 13  1  0
 13 14  1  0
 13 15  1  0
 13 16  1  0
 16 17  1  1
 16 18  1  0
 18 19  2  0
 18 20  1  0
 20 21  1  0
 21 22  1  0
 22 23  1  0
 22 24  2  0
 24 25  1  0
 24 26  1  0
 26 27  1  0
  6 28  1  0
 28 29  1  0
 28 30  2  0
 30 31  1  0
 30  2  1  0
 16  7  1  0
 26 20  2  0
M  END
>  <cnnaffinity>  (1) 
-5.43216

>  <filename>  (1) 
O=C(c1cccs1)[C@@H]1CNC(=O)[C@H]1c1cccnc1

$$$$
