
     RDKit          3D

 38 40  0  0  0  0  0  0  0  0999 V2000
    5.0215    1.7454   17.1519 H   0  0  0  0  0  0  0  0  0  0  0  0
    5.4050    1.1321   17.9663 C   0  0  0  0  0  0  0  0  0  0  0  0
    6.4898    0.3938   17.6818 N   0  0  0  0  0  0  0  0  0  0  0  0
    7.0371   -0.3132   18.6746 C   0  0  0  0  0  0  0  0  0  0  0  0
    7.9532   -0.8557   18.4435 H   0  0  0  0  0  0  0  0  0  0  0  0
    6.5264   -0.3417   19.9927 C   0  0  0  0  0  0  0  0  0  0  0  0
    7.3133   -0.9197   21.0642 N   0  0  0  0  0  0  0  0  0  0  0  0
    7.1036   -1.9693   21.9562 C   0  0  0  0  0  0  0  0  0  0  0  0
    5.9391   -2.6994   21.9707 N   0  0  0  0  0  0  0  0  0  0  0  0
    5.2391   -2.3880   21.3291 H   0  0  0  0  0  0  0  0  0  0  0  0
    5.6177   -3.6196   22.9665 C   0  0  0  0  0  0  0  0  0  0  0  0
    6.3732   -3.8915   23.8675 O   0  0  0  0  0  0  0  0  0  0  0  0
    4.2472   -4.3155   22.8290 C   0  0  0  0  0  0  0  0  0  0  0  0
    3.6936   -3.7748   22.0617 H   0  0  0  0  0  0  0  0  0  0  0  0
    4.4017   -5.7591   22.2700 C   0  0  0  0  0  0  0  0  0  0  0  0
    4.8199   -5.7329   21.2562 H   0  0  0  0  0  0  0  0  0  0  0  0
    5.1228   -6.3142   22.8812 H   0  0  0  0  0  0  0  0  0  0  0  0
    3.0435   -6.4861   22.3081 C   0  0  0  0  0  0  0  0  0  0  0  0
    2.3140   -5.8891   21.7385 H   0  0  0  0  0  0  0  0  0  0  0  0
    3.1109   -7.4613   21.8096 H   0  0  0  0  0  0  0  0  0  0  0  0
    2.5262   -6.6789   23.7658 C   0  0  0  0  0  0  0  0  0  0  0  0
    2.7189   -7.7086   24.0994 H   0  0  0  0  0  0  0  0  0  0  0  0
    1.4323   -6.5462   23.7915 H   0  0  0  0  0  0  0  0  0  0  0  0
    3.2102   -5.7142   24.7648 C   0  0  0  0  0  0  0  0  0  0  0  0
    4.2006   -6.1190   25.0262 H   0  0  0  0  0  0  0  0  0  0  0  0
    2.6386   -5.6624   25.7038 H   0  0  0  0  0  0  0  0  0  0  0  0
    3.4219   -4.3009   24.1734 C   0  0  0  0  0  0  0  0  0  0  0  0
    3.9227   -3.6751   24.9223 H   0  0  0  0  0  0  0  0  0  0  0  0
    2.4342   -3.8463   24.0075 H   0  0  0  0  0  0  0  0  0  0  0  0
    8.1219   -2.1857   22.7323 N   0  0  0  0  0  0  0  0  0  0  0  0
    8.9925   -1.2083   22.3503 N   0  0  0  0  0  0  0  0  0  0  0  0
    9.8876   -1.0521   22.7896 H   0  0  0  0  0  0  0  0  0  0  0  0
    8.5646   -0.3955   21.3832 C   0  0  0  0  0  0  0  0  0  0  0  0
    9.3975    0.9036   20.7656 S   0  0  0  0  0  0  0  0  0  0  0  0
    5.3574    0.3756   20.2597 C   0  0  0  0  0  0  0  0  0  0  0  0
    4.9389    0.3788   21.2670 H   0  0  0  0  0  0  0  0  0  0  0  0
    4.7962    1.1397   19.2237 C   0  0  0  0  0  0  0  0  0  0  0  0
    3.9308    1.7706   19.3876 H   0  0  0  0  0  0  0  0  0  0  0  0
  1  2  1  0
  2  3  2  0
  3  4  1  0
  4  5  1  0
  4  6  2  0
  6  7  1  0
  7  8  1  0
  8  9  1  0
  9 10  1  0
  9 11  1  0
 11 12  2  0
 11 13  1  0
 13 14  1  0
 13 15  1  0
 15 16  1  0
 15 17  1  0
 15 18  1  0
 18 19  1  0
 18 20  1  0
 18 21  1  0
 21 22  1  0
 21 23  1  0
 21 24  1  0
 24 25  1  0
 24 26  1  0
 24 27  1  0
 27 28  1  0
 27 29  1  0
  8 30  2  0
 30 31  1  0
 31 32  1  0
 31 33  1  0
 33 34  2  0
  6 35  1  0
 35 36  1  0
 35 37  2  0
 37 38  1  0
 37  2  1  0
 33  7  1  0
 27 13  1  0
M  END
>  <cnnaffinity>  (1) 
-5.04618

>  <filename>  (1) 
O=C(Nc1n[nH]c(=S)n1-c1cccnc1)C1CCCCC1

$$$$
