
     RDKit          3D

 30 32  0  0  0  0  0  0  0  0999 V2000
    4.9560    1.7996   16.9740 H   0  0  0  0  0  0  0  0  0  0  0  0
    5.4062    1.2922   17.8230 C   0  0  0  0  0  0  0  0  0  0  0  0
    6.5757    0.6782   17.5910 N   0  0  0  0  0  0  0  0  0  0  0  0
    7.1864    0.0877   18.6245 C   0  0  0  0  0  0  0  0  0  0  0  0
    8.1439   -0.3905   18.4150 H   0  0  0  0  0  0  0  0  0  0  0  0
    6.6534    0.0573   19.9296 C   0  0  0  0  0  0  0  0  0  0  0  0
    7.3321   -0.6533   20.9687 N   0  0  0  0  0  0  0  0  0  0  0  0
    7.6482   -1.9882   20.9926 C   0  0  0  0  0  0  0  0  0  0  0  0
    7.3215   -2.6308   20.1977 H   0  0  0  0  0  0  0  0  0  0  0  0
    8.2369   -2.3552   22.1007 N   0  0  0  0  0  0  0  0  0  0  0  0
    8.2736   -1.2316   22.8691 C   0  0  0  0  0  0  0  0  0  0  0  0
    8.6484   -1.2737   23.8861 H   0  0  0  0  0  0  0  0  0  0  0  0
    7.7033   -0.1656   22.2236 C   0  0  0  0  0  0  0  0  0  0  0  0
    7.3882    1.1699   22.7644 C   0  0  0  0  0  0  0  0  0  0  0  0
    7.4190    2.1686   22.0643 O   0  0  0  0  0  0  0  0  0  0  0  0
    7.0243    1.2951   24.2332 C   0  0  0  0  0  0  0  0  0  0  0  0
    6.3493    0.2952   24.9641 C   0  0  0  0  0  0  0  0  0  0  0  0
    6.0473   -0.6354   24.4825 H   0  0  0  0  0  0  0  0  0  0  0  0
    6.0600    0.4819   26.3198 C   0  0  0  0  0  0  0  0  0  0  0  0
    5.5595   -0.2873   26.9003 H   0  0  0  0  0  0  0  0  0  0  0  0
    6.4338    1.6783   26.9390 C   0  0  0  0  0  0  0  0  0  0  0  0
    6.0778    1.9207   28.6217 Cl  0  0  0  0  0  0  0  0  0  0  0  0
    7.0823    2.6937   26.2319 C   0  0  0  0  0  0  0  0  0  0  0  0
    7.3647    3.6145   26.7336 H   0  0  0  0  0  0  0  0  0  0  0  0
    7.3625    2.4973   24.8830 C   0  0  0  0  0  0  0  0  0  0  0  0
    7.8472    3.2755   24.3008 H   0  0  0  0  0  0  0  0  0  0  0  0
    5.4151    0.6748   20.1546 C   0  0  0  0  0  0  0  0  0  0  0  0
    4.9644    0.6661   21.1506 H   0  0  0  0  0  0  0  0  0  0  0  0
    4.7889    1.3089   19.0792 C   0  0  0  0  0  0  0  0  0  0  0  0
    3.8475    1.8248   19.2069 H   0  0  0  0  0  0  0  0  0  0  0  0
  1  2  1  0
  2  3  2  0
  3  4  1  0
  4  5  1  0
  4  6  2  0
  6  7  1  0
  7  8  1  0
  8  9  1  0
  8 10  2  0
 10 11  1  0
 11 12  1  0
 11 13  2  0
 13 14  1  0
 14 15  2  0
 14 16  1  0
 16 17  2  0
 17 18  1  0
 17 19  1  0
 19 20  1  0
 19 21  2  0
 21 22  1  0
 21 23  1  0
 23 24  1  0
 23 25  2  0
 25 26  1  0
  6 27  1  0
 27 28  1  0
 27 29  2  0
 29 30  1  0
 29  2  1  0
 13  7  1  0
 25 16  1  0
M  END
>  <cnnaffinity>  (1) 
-5.31783

>  <filename>  (1) 
O=C(c1ccc(Cl)cc1)c1cncn1-c1cccnc1

$$$$
