
     RDKit          3D

 32 34  0  0  0  0  0  0  0  0999 V2000
    5.0178    1.7950   16.9705 H   0  0  0  0  0  0  0  0  0  0  0  0
    5.4389    1.2868   17.8376 C   0  0  0  0  0  0  0  0  0  0  0  0
    6.6072    0.6473   17.6643 N   0  0  0  0  0  0  0  0  0  0  0  0
    7.1353    0.0202   18.7228 C   0  0  0  0  0  0  0  0  0  0  0  0
    8.0868   -0.4870   18.5672 H   0  0  0  0  0  0  0  0  0  0  0  0
    6.5345   -0.0023   19.9956 C   0  0  0  0  0  0  0  0  0  0  0  0
    7.1479   -0.7172   21.0881 N   0  0  0  0  0  0  0  0  0  0  0  0
    7.8520   -0.1705   22.1526 C   0  0  0  0  0  0  0  0  0  0  0  0
    7.9696    1.3227   22.4280 C   0  0  0  0  0  0  0  0  0  0  0  0
    7.8079    2.1611   21.5574 O   0  0  0  0  0  0  0  0  0  0  0  0
    8.2618    1.6161   23.7336 N   0  0  0  0  0  0  0  0  0  0  0  0
    8.4081    0.8136   24.3277 H   0  0  0  0  0  0  0  0  0  0  0  0
    8.5018    2.9020   24.2688 C   0  0  0  0  0  0  0  0  0  0  0  0
    8.1158    3.2143   25.5814 C   0  0  0  0  0  0  0  0  0  0  0  0
    7.5986    2.4816   26.1940 H   0  0  0  0  0  0  0  0  0  0  0  0
    8.3767    4.4883   26.1051 C   0  0  0  0  0  0  0  0  0  0  0  0
    8.0801    4.7545   27.1152 H   0  0  0  0  0  0  0  0  0  0  0  0
    9.0402    5.4336   25.3203 C   0  0  0  0  0  0  0  0  0  0  0  0
    9.3880    7.0164   25.9541 Cl  0  0  0  0  0  0  0  0  0  0  0  0
    9.4338    5.1246   24.0171 C   0  0  0  0  0  0  0  0  0  0  0  0
    9.9458    5.8648   23.4128 H   0  0  0  0  0  0  0  0  0  0  0  0
    9.1560    3.8633   23.4930 C   0  0  0  0  0  0  0  0  0  0  0  0
    9.4261    3.6109   22.4749 H   0  0  0  0  0  0  0  0  0  0  0  0
    8.3844   -1.1097   22.8914 N   0  0  0  0  0  0  0  0  0  0  0  0
    7.9855   -2.2531   22.2978 N   0  0  0  0  0  0  0  0  0  0  0  0
    8.1653   -3.1552   22.7114 H   0  0  0  0  0  0  0  0  0  0  0  0
    7.1582   -2.0988   21.2431 C   0  0  0  0  0  0  0  0  0  0  0  0
    6.3537   -3.2935   20.4219 S   0  0  0  0  0  0  0  0  0  0  0  0
    5.3250    0.6696   20.1690 C   0  0  0  0  0  0  0  0  0  0  0  0
    4.8604    0.6879   21.1553 H   0  0  0  0  0  0  0  0  0  0  0  0
    4.7666    1.3187   19.0619 C   0  0  0  0  0  0  0  0  0  0  0  0
    3.8373    1.8677   19.1490 H   0  0  0  0  0  0  0  0  0  0  0  0
  1  2  1  0
  2  3  2  0
  3  4  1  0
  4  5  1  0
  4  6  2  0
  6  7  1  0
  7  8  1  0
  8  9  1  0
  9 10  2  0
  9 11  1  0
 11 12  1  0
 11 13  1  0
 13 14  2  0
 14 15  1  0
 14 16  1  0
 16 17  1  0
 16 18  2  0
 18 19  1  0
 18 20  1  0
 20 21  1  0
 20 22  2  0
 22 23  1  0
  8 24  2  0
 24 25  1  0
 25 26  1  0
 25 27  1  0
 27 28  2  0
  6 29  1  0
 29 30  1  0
 29 31  2  0
 31 32  1  0
 31  2  1  0
 27  7  1  0
 22 13  1  0
M  END
>  <cnnaffinity>  (1) 
-5.1739

>  <filename>  (1) 
O=C(Nc1ccc(Cl)cc1)c1n[nH]c(=S)n1-c1cccnc1

$$$$
