
     RDKit          3D

 33 35  0  0  0  0  0  0  0  0999 V2000
    4.8435    1.7739   16.8339 H   0  0  0  0  0  0  0  0  0  0  0  0
    5.3545    1.2983   17.6687 C   0  0  0  0  0  0  0  0  0  0  0  0
    6.4974    0.6557   17.3748 N   0  0  0  0  0  0  0  0  0  0  0  0
    7.1870    0.1012   18.3821 C   0  0  0  0  0  0  0  0  0  0  0  0
    8.1120   -0.4114   18.1162 H   0  0  0  0  0  0  0  0  0  0  0  0
    6.7681    0.1515   19.7323 C   0  0  0  0  0  0  0  0  0  0  0  0
    7.4919   -0.4587   20.8093 N   0  0  0  0  0  0  0  0  0  0  0  0
    6.9158   -1.3034   21.7387 C   0  0  0  0  0  0  0  0  0  0  0  0
    5.8495   -1.4889   21.7513 H   0  0  0  0  0  0  0  0  0  0  0  0
    7.8669   -1.8162   22.5556 C   0  0  0  0  0  0  0  0  0  0  0  0
    7.5130   -2.8481   23.5979 C   0  0  0  0  0  0  0  0  0  0  0  0
    6.3590   -3.2273   23.6890 O   0  0  0  0  0  0  0  0  0  0  0  0
    8.5182   -3.3231   24.3931 N   0  0  0  0  0  0  0  0  0  0  0  0
    9.3486   -2.7639   24.4252 H   0  0  0  0  0  0  0  0  0  0  0  0
    8.3645   -4.2395   25.4586 C   0  0  0  0  0  0  0  0  0  0  0  0
    9.2142   -4.1104   26.5603 C   0  0  0  0  0  0  0  0  0  0  0  0
    9.9417   -3.3062   26.5820 H   0  0  0  0  0  0  0  0  0  0  0  0
    9.1017   -4.9838   27.6428 C   0  0  0  0  0  0  0  0  0  0  0  0
    9.7659   -4.9216   28.4914 H   0  0  0  0  0  0  0  0  0  0  0  0
    8.1222   -5.9729   27.6148 C   0  0  0  0  0  0  0  0  0  0  0  0
    7.9780   -6.7900   28.6701 F   0  0  0  0  0  0  0  0  0  0  0  0
    7.2921   -6.1442   26.5131 C   0  0  0  0  0  0  0  0  0  0  0  0
    6.5730   -6.9583   26.5294 H   0  0  0  0  0  0  0  0  0  0  0  0
    7.4132   -5.2723   25.4278 C   0  0  0  0  0  0  0  0  0  0  0  0
    6.7411   -5.3354   24.5855 H   0  0  0  0  0  0  0  0  0  0  0  0
    9.0764   -1.2072   22.1415 N   0  0  0  0  0  0  0  0  0  0  0  0
   10.0506   -1.3891   22.3271 H   0  0  0  0  0  0  0  0  0  0  0  0
    8.8759   -0.3806   21.0564 C   0  0  0  0  0  0  0  0  0  0  0  0
    9.7325    0.2395   20.4659 O   0  0  0  0  0  0  0  0  0  0  0  0
    5.5512    0.7877   20.0112 C   0  0  0  0  0  0  0  0  0  0  0  0
    5.1851    0.8279   21.0365 H   0  0  0  0  0  0  0  0  0  0  0  0
    4.8357    1.3770   18.9647 C   0  0  0  0  0  0  0  0  0  0  0  0
    3.9026    1.9025   19.1465 H   0  0  0  0  0  0  0  0  0  0  0  0
  1  2  1  0
  2  3  2  0
  3  4  1  0
  4  5  1  0
  4  6  2  0
  6  7  1  0
  7  8  1  0
  8  9  1  0
  8 10  2  0
 10 11  1  0
 11 12  2  0
 11 13  1  0
 13 14  1  0
 13 15  1  0
 15 16  2  0
 16 17  1  0
 16 18  1  0
 18 19  1  0
 18 20  2  0
 20 21  1  0
 20 22  1  0
 22 23  1  0
 22 24  2  0
 24 25  1  0
 10 26  1  0
 26 27  1  0
 26 28  1  0
 28 29  2  0
  6 30  1  0
 30 31  1  0
 30 32  2  0
 32 33  1  0
 32  2  1  0
 28  7  1  0
 24 15  1  0
M  END
>  <cnnaffinity>  (1) 
-5.04838

>  <filename>  (1) 
O=C(Nc1ccc(F)cc1)c1cn(-c2cccnc2)c(=O)[nH]1

$$$$
