
     RDKit          3D

 32 34  0  0  0  0  0  0  0  0999 V2000
    6.7648    0.9373   24.1690 O   0  0  0  0  0  0  0  0  0  0  0  0
    7.1093    0.9380   22.9984 C   0  0  0  0  0  0  0  0  0  0  0  0
    7.0602    2.0908   22.2544 N   0  0  0  0  0  0  0  0  0  0  0  0
    6.6146    3.3004   22.7587 C   0  0  0  0  0  0  0  0  0  0  0  0
    6.7965    3.6361   24.1055 C   0  0  0  0  0  0  0  0  0  0  0  0
    6.3144    4.8494   24.5979 C   0  0  0  0  0  0  0  0  0  0  0  0
    6.6079    5.3502   26.4163 Br  0  0  0  0  0  0  0  0  0  0  0  0
    5.6162    5.7006   23.7387 C   0  0  0  0  0  0  0  0  0  0  0  0
    5.4242    5.3618   22.3938 C   0  0  0  0  0  0  0  0  0  0  0  0
    5.9438    4.1642   21.9007 C   0  0  0  0  0  0  0  0  0  0  0  0
    5.8035    3.8739   20.8629 H   0  0  0  0  0  0  0  0  0  0  0  0
    4.8729    6.0208   21.7297 H   0  0  0  0  0  0  0  0  0  0  0  0
    5.2291    6.6308   24.1277 H   0  0  0  0  0  0  0  0  0  0  0  0
    7.3131    2.9383   24.7567 H   0  0  0  0  0  0  0  0  0  0  0  0
    7.1177    1.9854   21.2515 H   0  0  0  0  0  0  0  0  0  0  0  0
    7.5407   -0.2834   22.3761 C   0  0  0  0  0  0  0  0  0  0  0  0
    8.2073   -1.3290   22.9508 C   0  0  0  0  0  0  0  0  0  0  0  0
    8.4611   -2.1956   21.9099 N   0  0  0  0  0  0  0  0  0  0  0  0
    7.9931   -1.7299   20.7207 N   0  0  0  0  0  0  0  0  0  0  0  0
    7.4131   -0.5862   20.9789 C   0  0  0  0  0  0  0  0  0  0  0  0
    6.6923    0.1315   19.9517 C   0  0  0  0  0  0  0  0  0  0  0  0
    5.4757    0.7754   20.1913 C   0  0  0  0  0  0  0  0  0  0  0  0
    4.8294    1.3562   19.1017 C   0  0  0  0  0  0  0  0  0  0  0  0
    5.4244    1.2985   17.8379 C   0  0  0  0  0  0  0  0  0  0  0  0
    6.5778    0.6409   17.6113 N   0  0  0  0  0  0  0  0  0  0  0  0
    7.1901    0.0531   18.6487 C   0  0  0  0  0  0  0  0  0  0  0  0
    8.0990   -0.5127   18.4484 H   0  0  0  0  0  0  0  0  0  0  0  0
    4.9393    1.8058   17.0109 H   0  0  0  0  0  0  0  0  0  0  0  0
    3.8794    1.8657   19.2251 H   0  0  0  0  0  0  0  0  0  0  0  0
    5.0301    0.7909   21.1857 H   0  0  0  0  0  0  0  0  0  0  0  0
    8.9023   -3.1053   22.0279 H   0  0  0  0  0  0  0  0  0  0  0  0
    8.4994   -1.4561   23.9884 H   0  0  0  0  0  0  0  0  0  0  0  0
  1  2  2  0
  2  3  1  0
  3  4  1  0
  4  5  2  0
  5  6  1  0
  6  7  1  0
  6  8  2  0
  8  9  1  0
  9 10  2  0
 10 11  1  0
  9 12  1  0
  8 13  1  0
  5 14  1  0
  3 15  1  0
  2 16  1  0
 16 17  2  0
 17 18  1  0
 18 19  1  0
 19 20  2  0
 20 21  1  0
 21 22  2  0
 22 23  1  0
 23 24  2  0
 24 25  1  0
 25 26  2  0
 26 27  1  0
 24 28  1  0
 23 29  1  0
 22 30  1  0
 18 31  1  0
 17 32  1  0
 10  4  1  0
 20 16  1  0
 26 21  1  0
M  END
>  <cnnaffinity>  (1) 
-5.44253

>  <filename>  (1) 
O=C(Nc1cccc(Br)c1)c1c[nH]nc1-c1cccnc1

$$$$
