
     RDKit          3D

 33 35  0  0  0  0  0  0  0  0999 V2000
    6.9912    1.7609   22.1488 H   0  0  0  0  0  0  0  0  0  0  0  0
    7.3529    0.9609   22.7913 C   0  0  0  0  0  0  0  0  0  0  0  0
    7.5945    1.3313   24.2106 C   0  0  0  0  0  0  0  0  0  0  0  0
    7.6968    0.4980   25.0970 O   0  0  0  0  0  0  0  0  0  0  0  0
    7.7058    2.8115   24.5403 C   0  0  0  0  0  0  0  0  0  0  0  0
    8.0886    3.7971   23.6122 C   0  0  0  0  0  0  0  0  0  0  0  0
    8.3353    3.5481   22.5840 H   0  0  0  0  0  0  0  0  0  0  0  0
    8.1836    5.1293   24.0224 C   0  0  0  0  0  0  0  0  0  0  0  0
    8.4692    5.8914   23.3067 H   0  0  0  0  0  0  0  0  0  0  0  0
    7.9380    5.5495   25.2713 N   0  0  0  0  0  0  0  0  0  0  0  0
    7.5811    4.6089   26.1571 C   0  0  0  0  0  0  0  0  0  0  0  0
    7.3871    4.9492   27.1673 H   0  0  0  0  0  0  0  0  0  0  0  0
    7.4572    3.2540   25.8511 C   0  0  0  0  0  0  0  0  0  0  0  0
    7.1833    2.5388   26.6177 H   0  0  0  0  0  0  0  0  0  0  0  0
    7.5875   -0.2765   22.2954 C   0  0  0  0  0  0  0  0  0  0  0  0
    7.3781   -0.7696   20.9156 C   0  0  0  0  0  0  0  0  0  0  0  0
    6.6491    0.0079   19.8978 C   0  0  0  0  0  0  0  0  0  0  0  0
    7.1693    0.0527   18.6013 C   0  0  0  0  0  0  0  0  0  0  0  0
    8.1130   -0.4371   18.3779 H   0  0  0  0  0  0  0  0  0  0  0  0
    6.5704    0.6791   17.5864 N   0  0  0  0  0  0  0  0  0  0  0  0
    5.4041    1.2926   17.8416 C   0  0  0  0  0  0  0  0  0  0  0  0
    4.9238    1.7799   16.9969 H   0  0  0  0  0  0  0  0  0  0  0  0
    4.8009    1.3106   19.1041 C   0  0  0  0  0  0  0  0  0  0  0  0
    3.8699    1.8447   19.2545 H   0  0  0  0  0  0  0  0  0  0  0  0
    5.4339    0.6575   20.1593 C   0  0  0  0  0  0  0  0  0  0  0  0
    4.9949    0.6371   21.1622 H   0  0  0  0  0  0  0  0  0  0  0  0
    7.8830   -1.9246   20.6920 N   0  0  0  0  0  0  0  0  0  0  0  0
    8.4746   -2.4389   21.9290 C   0  0  0  0  0  0  0  0  0  0  0  0
    9.5388   -2.6067   21.7491 H   0  0  0  0  0  0  0  0  0  0  0  0
    8.0226   -3.4045   22.1665 H   0  0  0  0  0  0  0  0  0  0  0  0
    8.2442   -1.3995   23.0515 C   0  0  0  0  0  0  0  0  0  0  0  0
    9.1693   -1.0670   23.5320 H   0  0  0  0  0  0  0  0  0  0  0  0
    7.5987   -1.7635   23.8571 H   0  0  0  0  0  0  0  0  0  0  0  0
  1  2  1  0
  2  3  1  0
  3  4  2  0
  3  5  1  0
  5  6  2  0
  6  7  1  0
  6  8  1  0
  8  9  1  0
  8 10  2  0
 10 11  1  0
 11 12  1  0
 11 13  2  0
 13 14  1  0
  2 15  2  3
 15 16  1  0
 16 17  1  0
 17 18  2  0
 18 19  1  0
 18 20  1  0
 20 21  2  0
 21 22  1  0
 21 23  1  0
 23 24  1  0
 23 25  2  0
 25 26  1  0
 16 27  2  0
 27 28  1  0
 28 29  1  0
 28 30  1  0
 28 31  1  0
 31 32  1  0
 31 33  1  0
 13  5  1  0
 31 15  1  0
 25 17  1  0
M  END
>  <cnnaffinity>  (1) 
-4.98397

>  <filename>  (1) 
O=C(C=C1CCN=C1c1cccnc1)c1ccncc1

$$$$
