
     RDKit          3D

 27 28  0  0  0  0  0  0  0  0999 V2000
    4.9685    1.9215   16.5677 H   0  0  0  0  0  0  0  0  0  0  0  0
    5.3022    1.4426   17.4866 C   0  0  0  0  0  0  0  0  0  0  0  0
    6.4530    0.7589   17.4119 N   0  0  0  0  0  0  0  0  0  0  0  0
    6.9008    0.1559   18.5231 C   0  0  0  0  0  0  0  0  0  0  0  0
    7.8260   -0.4066   18.4088 H   0  0  0  0  0  0  0  0  0  0  0  0
    6.2240    0.1805   19.7676 C   0  0  0  0  0  0  0  0  0  0  0  0
    6.6495   -0.4417   20.9564 N   0  0  0  0  0  0  0  0  0  0  0  0
    5.9790   -1.1139   21.3362 H   0  0  0  0  0  0  0  0  0  0  0  0
    8.0030   -0.8945   21.0003 N   0  0  0  0  0  0  0  0  0  0  0  0
    8.6100   -0.2359   20.5328 H   0  0  0  0  0  0  0  0  0  0  0  0
    8.6170   -1.2563   22.1971 C   0  0  0  0  0  0  0  0  0  0  0  0
    8.0896   -1.8429   23.1188 O   0  0  0  0  0  0  0  0  0  0  0  0
   10.0959   -0.9171   22.1811 C   0  0  0  0  0  0  0  0  0  0  0  0
   11.0653   -1.9367   22.2491 C   0  0  0  0  0  0  0  0  0  0  0  0
   10.7659   -2.9795   22.3509 H   0  0  0  0  0  0  0  0  0  0  0  0
   12.4291   -1.6352   22.2123 C   0  0  0  0  0  0  0  0  0  0  0  0
   13.1694   -2.4239   22.1899 H   0  0  0  0  0  0  0  0  0  0  0  0
   12.8356   -0.3015   22.2302 C   0  0  0  0  0  0  0  0  0  0  0  0
   14.5111    0.1066   22.3807 Cl  0  0  0  0  0  0  0  0  0  0  0  0
   11.9076    0.7296   22.1432 C   0  0  0  0  0  0  0  0  0  0  0  0
   12.2245    1.7621   22.0594 H   0  0  0  0  0  0  0  0  0  0  0  0
   10.5515    0.4136   22.1109 C   0  0  0  0  0  0  0  0  0  0  0  0
    9.4485    1.7612   22.0525 Cl  0  0  0  0  0  0  0  0  0  0  0  0
    5.0167    0.9014   19.8171 C   0  0  0  0  0  0  0  0  0  0  0  0
    4.4862    0.9626   20.7669 H   0  0  0  0  0  0  0  0  0  0  0  0
    4.5545    1.5367   18.6652 C   0  0  0  0  0  0  0  0  0  0  0  0
    3.6382    2.1149   18.6696 H   0  0  0  0  0  0  0  0  0  0  0  0
  1  2  1  0
  2  3  2  0
  3  4  1  0
  4  5  1  0
  4  6  2  0
  6  7  1  0
  7  8  1  0
  7  9  1  0
  9 10  1  0
  9 11  1  0
 11 12  2  0
 11 13  1  0
 13 14  2  0
 14 15  1  0
 14 16  1  0
 16 17  1  0
 16 18  2  0
 18 19  1  0
 18 20  1  0
 20 21  1  0
 20 22  2  0
 22 23  1  0
  6 24  1  0
 24 25  1  0
 24 26  2  0
 26 27  1  0
 26  2  1  0
 22 13  1  0
M  END
>  <cnnaffinity>  (1) 
-5.00564

>  <filename>  (1) 
O=C(NNc1cccnc1)c1ccc(Cl)cc1Cl

$$$$
