
     RDKit          3D

 35 37  0  0  0  0  0  0  0  0999 V2000
    4.9645    1.7643   17.0068 H   0  0  0  0  0  0  0  0  0  0  0  0
    5.4173    1.2776   17.8695 C   0  0  0  0  0  0  0  0  0  0  0  0
    6.5809    0.6530   17.6390 N   0  0  0  0  0  0  0  0  0  0  0  0
    7.1805    0.0556   18.6756 C   0  0  0  0  0  0  0  0  0  0  0  0
    8.1115   -0.4585   18.4470 H   0  0  0  0  0  0  0  0  0  0  0  0
    6.6668    0.0475   19.9788 C   0  0  0  0  0  0  0  0  0  0  0  0
    7.4411   -0.7448   20.9791 C   0  0  0  0  0  0  0  0  0  0  0  0
    8.1495   -1.6824   20.6501 O   0  0  0  0  0  0  0  0  0  0  0  0
    7.2871   -0.3578   22.2744 N   0  0  0  0  0  0  0  0  0  0  0  0
    6.8824    0.5482   22.4426 H   0  0  0  0  0  0  0  0  0  0  0  0
    7.9447   -1.0141   23.3727 C   0  0  0  0  0  0  0  0  0  0  0  0
    9.4310   -0.7085   23.5615 C   0  0  0  0  0  0  0  0  0  0  0  0
    9.7923   -1.3064   24.4096 H   0  0  0  0  0  0  0  0  0  0  0  0
    9.9662   -1.0452   22.6691 H   0  0  0  0  0  0  0  0  0  0  0  0
    9.7043    0.7584   23.8466 C   0  0  0  0  0  0  0  0  0  0  0  0
    9.5317    1.2536   25.1507 C   0  0  0  0  0  0  0  0  0  0  0  0
    9.2880    0.5567   25.9550 H   0  0  0  0  0  0  0  0  0  0  0  0
    9.6631    2.6124   25.4369 C   0  0  0  0  0  0  0  0  0  0  0  0
    9.4910    2.9636   26.4493 H   0  0  0  0  0  0  0  0  0  0  0  0
   10.0156    3.5104   24.4252 C   0  0  0  0  0  0  0  0  0  0  0  0
   10.1553    4.5674   24.6490 H   0  0  0  0  0  0  0  0  0  0  0  0
   10.1992    3.0518   23.1220 C   0  0  0  0  0  0  0  0  0  0  0  0
   10.4513    3.7223   22.3059 H   0  0  0  0  0  0  0  0  0  0  0  0
   10.0354    1.6891   22.8422 C   0  0  0  0  0  0  0  0  0  0  0  0
   10.2410    1.1926   21.1834 Cl  0  0  0  0  0  0  0  0  0  0  0  0
    7.4581   -2.4001   23.6758 C   0  0  0  0  0  0  0  0  0  0  0  0
    6.6764   -2.7719   23.0179 H   0  0  0  0  0  0  0  0  0  0  0  0
    8.1818   -3.1571   23.9823 H   0  0  0  0  0  0  0  0  0  0  0  0
    7.1061   -1.2569   24.5941 C   0  0  0  0  0  0  0  0  0  0  0  0
    7.5976   -1.1983   25.5665 H   0  0  0  0  0  0  0  0  0  0  0  0
    6.0841   -0.8846   24.5920 H   0  0  0  0  0  0  0  0  0  0  0  0
    5.4348    0.6889   20.2038 C   0  0  0  0  0  0  0  0  0  0  0  0
    4.9415    0.6706   21.1780 H   0  0  0  0  0  0  0  0  0  0  0  0
    4.8051    1.3149   19.1276 C   0  0  0  0  0  0  0  0  0  0  0  0
    3.8644    1.8409   19.2405 H   0  0  0  0  0  0  0  0  0  0  0  0
  1  2  1  0
  2  3  2  0
  3  4  1  0
  4  5  1  0
  4  6  2  0
  6  7  1  0
  7  8  2  0
  7  9  1  0
  9 10  1  0
  9 11  1  0
 11 12  1  0
 12 13  1  0
 12 14  1  0
 12 15  1  0
 15 16  2  0
 16 17  1  0
 16 18  1  0
 18 19  1  0
 18 20  2  0
 20 21  1  0
 20 22  1  0
 22 23  1  0
 22 24  2  0
 24 25  1  0
 11 26  1  0
 26 27  1  0
 26 28  1  0
 26 29  1  0
 29 30  1  0
 29 31  1  0
  6 32  1  0
 32 33  1  0
 32 34  2  0
 34 35  1  0
 34  2  1  0
 29 11  1  0
 24 15  1  0
M  END
>  <cnnaffinity>  (1) 
-5.29566

>  <filename>  (1) 
O=C(NC1(Cc2ccccc2Cl)CC1)c1cccnc1

$$$$
