
     RDKit          3D

 30 31  0  0  0  0  0  0  0  0999 V2000
    6.2472    5.0396   26.4088 H   0  0  0  0  0  0  0  0  0  0  0  0
    6.1599    5.0578   25.4317 O   0  0  0  0  0  0  0  0  0  0  0  0
    6.5496    3.7985   25.2316 C   0  0  0  0  0  0  0  0  0  0  0  0
    6.8093    3.1346   26.2099 O   0  0  0  0  0  0  0  0  0  0  0  0
    6.7000    3.2830   23.7430 C   0  0  0  0  0  0  0  0  0  0  0  0
    6.5784    4.0418   22.7854 O   0  0  0  0  0  0  0  0  0  0  0  0
    7.0545    1.8928   23.5888 C   0  0  0  0  0  0  0  0  0  0  0  0
    6.8774    1.2006   24.4002 H   0  0  0  0  0  0  0  0  0  0  0  0
    7.5892    1.4248   22.4295 C   0  0  0  0  0  0  0  0  0  0  0  0
    7.9345    2.2522   21.4514 O   0  0  0  0  0  0  0  0  0  0  0  0
    7.5663    3.1387   21.6974 H   0  0  0  0  0  0  0  0  0  0  0  0
    7.7985   -0.0358   22.1871 C   0  0  0  0  0  0  0  0  0  0  0  0
    8.3991   -0.8421   23.1781 C   0  0  0  0  0  0  0  0  0  0  0  0
    8.6932   -0.4218   24.1335 H   0  0  0  0  0  0  0  0  0  0  0  0
    8.6199   -2.1957   22.9324 C   0  0  0  0  0  0  0  0  0  0  0  0
    9.1170   -2.8177   23.6697 H   0  0  0  0  0  0  0  0  0  0  0  0
    8.2267   -2.8230   21.8159 N   0  0  0  0  0  0  0  0  0  0  0  0
    7.5986   -2.0687   20.9088 C   0  0  0  0  0  0  0  0  0  0  0  0
    7.1823   -2.5893   20.0534 H   0  0  0  0  0  0  0  0  0  0  0  0
    7.3824   -0.6812   20.9916 C   0  0  0  0  0  0  0  0  0  0  0  0
    6.6547    0.0302   19.8839 C   0  0  0  0  0  0  0  0  0  0  0  0
    7.1565    0.0725   18.5676 C   0  0  0  0  0  0  0  0  0  0  0  0
    8.1096   -0.4080   18.3377 H   0  0  0  0  0  0  0  0  0  0  0  0
    6.5495    0.6869   17.5435 N   0  0  0  0  0  0  0  0  0  0  0  0
    5.3872    1.3069   17.8061 C   0  0  0  0  0  0  0  0  0  0  0  0
    4.9223    1.8223   16.9685 H   0  0  0  0  0  0  0  0  0  0  0  0
    4.7832    1.3161   19.0664 C   0  0  0  0  0  0  0  0  0  0  0  0
    3.8473    1.8456   19.2116 H   0  0  0  0  0  0  0  0  0  0  0  0
    5.4261    0.6663   20.1218 C   0  0  0  0  0  0  0  0  0  0  0  0
    4.9977    0.6425   21.1273 H   0  0  0  0  0  0  0  0  0  0  0  0
  1  2  1  0
  2  3  1  0
  3  4  2  0
  3  5  1  0
  5  6  2  0
  5  7  1  0
  7  8  1  0
  7  9  2  3
  9 10  1  0
 10 11  1  0
  9 12  1  0
 12 13  2  0
 13 14  1  0
 13 15  1  0
 15 16  1  0
 15 17  2  0
 17 18  1  0
 18 19  1  0
 18 20  2  0
 20 21  1  0
 21 22  2  0
 22 23  1  0
 22 24  1  0
 24 25  2  0
 25 26  1  0
 25 27  1  0
 27 28  1  0
 27 29  2  0
 29 30  1  0
 20 12  1  0
 29 21  1  0
M  END
>  <cnnaffinity>  (1) 
-4.17772

>  <filename>  (1) 
O=C(O)C(=O)C=C(O)c1ccncc1-c1cccnc1

$$$$
