
     RDKit          3D

 36 38  0  0  0  0  0  0  0  0999 V2000
    7.5994   -4.1940   24.5293 O   0  0  0  0  0  0  0  0  0  0  0  0
    6.5422   -3.6029   24.6917 C   0  0  0  0  0  0  0  0  0  0  0  0
    5.6164   -4.0359   25.8315 C   0  0  0  0  0  0  0  0  0  0  0  0
    4.3326   -4.7085   25.3842 C   0  0  0  0  0  0  0  0  0  0  0  0
    3.4748   -4.0314   24.5129 C   0  0  0  0  0  0  0  0  0  0  0  0
    2.3535   -4.7223   24.0531 C   0  0  0  0  0  0  0  0  0  0  0  0
    2.0935   -6.0191   24.5015 C   0  0  0  0  0  0  0  0  0  0  0  0
    2.8974   -6.6609   25.3526 N   0  0  0  0  0  0  0  0  0  0  0  0
    3.9972   -6.0280   25.7937 C   0  0  0  0  0  0  0  0  0  0  0  0
    5.1109   -6.9936   27.0131 Br  0  0  0  0  0  0  0  0  0  0  0  0
    1.2014   -6.5318   24.1519 H   0  0  0  0  0  0  0  0  0  0  0  0
    1.6619   -4.2759   23.3492 H   0  0  0  0  0  0  0  0  0  0  0  0
    3.6972   -3.0143   24.1817 H   0  0  0  0  0  0  0  0  0  0  0  0
    5.3746   -3.1524   26.4255 H   0  0  0  0  0  0  0  0  0  0  0  0
    6.1821   -4.7225   26.4676 H   0  0  0  0  0  0  0  0  0  0  0  0
    6.2695   -2.4908   23.9410 N   0  0  0  0  0  0  0  0  0  0  0  0
    7.1205   -2.0104   22.9950 C   0  0  0  0  0  0  0  0  0  0  0  0
    8.4988   -2.1890   23.0618 C   0  0  0  0  0  0  0  0  0  0  0  0
    9.3069   -1.6263   22.0797 C   0  0  0  0  0  0  0  0  0  0  0  0
    8.6557   -0.9262   21.0653 C   0  0  0  0  0  0  0  0  0  0  0  0
    7.2578   -0.7977   21.0666 C   0  0  0  0  0  0  0  0  0  0  0  0
    6.6035   -0.0678   19.9883 C   0  0  0  0  0  0  0  0  0  0  0  0
    5.3679    0.5712   20.1582 C   0  0  0  0  0  0  0  0  0  0  0  0
    4.8323    1.2472   19.0658 C   0  0  0  0  0  0  0  0  0  0  0  0
    5.5202    1.2673   17.8510 C   0  0  0  0  0  0  0  0  0  0  0  0
    6.7011    0.6454   17.6870 N   0  0  0  0  0  0  0  0  0  0  0  0
    7.2276    0.0005   18.7393 C   0  0  0  0  0  0  0  0  0  0  0  0
    8.1836   -0.4944   18.5930 H   0  0  0  0  0  0  0  0  0  0  0  0
    5.0822    1.8047   17.0149 H   0  0  0  0  0  0  0  0  0  0  0  0
    3.8886    1.7739   19.1444 H   0  0  0  0  0  0  0  0  0  0  0  0
    4.8465    0.5640   21.1153 H   0  0  0  0  0  0  0  0  0  0  0  0
    6.5108   -1.3351   22.0361 N   0  0  0  0  0  0  0  0  0  0  0  0
    9.2176   -0.4519   20.2727 H   0  0  0  0  0  0  0  0  0  0  0  0
   10.3932   -1.7196   22.1078 H   0  0  0  0  0  0  0  0  0  0  0  0
    8.9058   -2.7448   23.8948 H   0  0  0  0  0  0  0  0  0  0  0  0
    5.3208   -2.1484   23.8847 H   0  0  0  0  0  0  0  0  0  0  0  0
  1  2  2  0
  2  3  1  0
  3  4  1  0
  4  5  2  0
  5  6  1  0
  6  7  2  0
  7  8  1  0
  8  9  2  0
  9 10  1  0
  7 11  1  0
  6 12  1  0
  5 13  1  0
  3 14  1  0
  3 15  1  0
  2 16  1  0
 16 17  1  0
 17 18  2  0
 18 19  1  0
 19 20  2  0
 20 21  1  0
 21 22  1  0
 22 23  2  0
 23 24  1  0
 24 25  2  0
 25 26  1  0
 26 27  2  0
 27 28  1  0
 25 29  1  0
 24 30  1  0
 23 31  1  0
 21 32  2  0
 20 33  1  0
 19 34  1  0
 18 35  1  0
 16 36  1  0
  9  4  1  0
 32 17  1  0
 27 22  1  0
M  END
>  <cnnaffinity>  (1) 
-5.55588

>  <filename>  (1) 
O=C(Cc1cccnc1Br)Nc1cccc(-c2cccnc2)n1

$$$$
