
     RDKit          3D

 32 34  0  0  0  0  0  0  0  0999 V2000
    4.9509    1.7944   17.0022 H   0  0  0  0  0  0  0  0  0  0  0  0
    5.4142    1.2832   17.8436 C   0  0  0  0  0  0  0  0  0  0  0  0
    6.5735    0.6583   17.5833 N   0  0  0  0  0  0  0  0  0  0  0  0
    7.1727    0.0285   18.5990 C   0  0  0  0  0  0  0  0  0  0  0  0
    8.1172   -0.4563   18.3603 H   0  0  0  0  0  0  0  0  0  0  0  0
    6.6607   -0.0072   19.9078 C   0  0  0  0  0  0  0  0  0  0  0  0
    7.4096   -0.7073   20.9692 C   0  0  0  0  0  0  0  0  0  0  0  0
    8.1104   -1.7794   20.5872 N   0  0  0  0  0  0  0  0  0  0  0  0
    8.7397   -2.4776   21.5356 C   0  0  0  0  0  0  0  0  0  0  0  0
    9.2656   -3.3610   21.1890 H   0  0  0  0  0  0  0  0  0  0  0  0
    8.7591   -2.1211   22.8877 C   0  0  0  0  0  0  0  0  0  0  0  0
    9.3345   -2.7169   23.5859 H   0  0  0  0  0  0  0  0  0  0  0  0
    8.0673   -0.9638   23.3075 C   0  0  0  0  0  0  0  0  0  0  0  0
    8.1419   -0.5098   24.7848 C   0  0  0  0  0  0  0  0  0  0  0  0
    9.1306   -0.7372   25.4570 O   0  0  0  0  0  0  0  0  0  0  0  0
    6.9611    0.2099   25.3737 C   0  0  0  0  0  0  0  0  0  0  0  0
    5.6584   -0.1478   24.9964 C   0  0  0  0  0  0  0  0  0  0  0  0
    5.5612   -0.9828   24.3078 H   0  0  0  0  0  0  0  0  0  0  0  0
    4.5540    0.5209   25.5290 C   0  0  0  0  0  0  0  0  0  0  0  0
    3.5389    0.2893   25.2252 H   0  0  0  0  0  0  0  0  0  0  0  0
    4.7627    1.5116   26.4931 C   0  0  0  0  0  0  0  0  0  0  0  0
    3.3973    2.3132   27.2222 Cl  0  0  0  0  0  0  0  0  0  0  0  0
    6.0530    1.8488   26.9233 C   0  0  0  0  0  0  0  0  0  0  0  0
    6.1725    2.5921   27.7068 H   0  0  0  0  0  0  0  0  0  0  0  0
    7.1522    1.1955   26.3619 C   0  0  0  0  0  0  0  0  0  0  0  0
    8.1654    1.4203   26.6985 H   0  0  0  0  0  0  0  0  0  0  0  0
    7.3777   -0.2579   22.3033 C   0  0  0  0  0  0  0  0  0  0  0  0
    6.8255    0.6562   22.5075 H   0  0  0  0  0  0  0  0  0  0  0  0
    5.4426    0.6419   20.1589 C   0  0  0  0  0  0  0  0  0  0  0  0
    5.0047    0.6329   21.1599 H   0  0  0  0  0  0  0  0  0  0  0  0
    4.8076    1.2967   19.1045 C   0  0  0  0  0  0  0  0  0  0  0  0
    3.8776    1.8367   19.2492 H   0  0  0  0  0  0  0  0  0  0  0  0
  1  2  1  0
  2  3  2  0
  3  4  1  0
  4  5  1  0
  4  6  2  0
  6  7  1  0
  7  8  2  0
  8  9  1  0
  9 10  1  0
  9 11  2  0
 11 12  1  0
 11 13  1  0
 13 14  1  0
 14 15  2  0
 14 16  1  0
 16 17  2  0
 17 18  1  0
 17 19  1  0
 19 20  1  0
 19 21  2  0
 21 22  1  0
 21 23  1  0
 23 24  1  0
 23 25  2  0
 25 26  1  0
 13 27  2  0
 27 28  1  0
  6 29  1  0
 29 30  1  0
 29 31  2  0
 31 32  1  0
 31  2  1  0
 27  7  1  0
 25 16  1  0
M  END
>  <cnnaffinity>  (1) 
-5.32393

>  <filename>  (1) 
O=C(c1ccc(Cl)cc1)c1ccnc(-c2cccnc2)c1

$$$$
