
     RDKit          3D

 32 34  0  0  0  0  0  0  0  0999 V2000
    5.0230    1.8860   16.8750 H   0  0  0  0  0  0  0  0  0  0  0  0
    5.4451    1.3256   17.7069 C   0  0  0  0  0  0  0  0  0  0  0  0
    6.5750    0.6461   17.4548 N   0  0  0  0  0  0  0  0  0  0  0  0
    7.1263   -0.0306   18.4635 C   0  0  0  0  0  0  0  0  0  0  0  0
    8.0375   -0.5802   18.2319 H   0  0  0  0  0  0  0  0  0  0  0  0
    6.5987   -0.0579   19.7626 C   0  0  0  0  0  0  0  0  0  0  0  0
    7.4106   -0.7508   20.8025 C   0  0  0  0  0  0  0  0  0  0  0  0
    8.3288   -1.4894   20.5021 O   0  0  0  0  0  0  0  0  0  0  0  0
    7.0703   -0.4675   22.2444 C   0  0  0  0  0  0  0  0  0  0  0  0
    6.1719   -1.0133   22.5354 H   0  0  0  0  0  0  0  0  0  0  0  0
    7.0476    1.0209   22.6512 C   0  0  0  0  0  0  0  0  0  0  0  0
    7.3568    1.6910   21.8398 H   0  0  0  0  0  0  0  0  0  0  0  0
    6.0947    1.3964   23.0582 H   0  0  0  0  0  0  0  0  0  0  0  0
    8.1277    0.7837   23.6130 N   0  0  0  0  0  0  0  0  0  0  0  0
    7.8253    1.0407   25.0293 C   0  0  0  0  0  0  0  0  0  0  0  0
    7.7939    2.1289   25.1862 H   0  0  0  0  0  0  0  0  0  0  0  0
    6.8503    0.6225   25.3383 H   0  0  0  0  0  0  0  0  0  0  0  0
    8.8482    0.4411   25.9559 C   0  0  0  0  0  0  0  0  0  0  0  0
    8.5555   -0.5464   26.8772 N   0  0  0  0  0  0  0  0  0  0  0  0
    9.6925   -0.8454   27.4370 C   0  0  0  0  0  0  0  0  0  0  0  0
    9.8580   -1.6327   28.1575 H   0  0  0  0  0  0  0  0  0  0  0  0
   10.7126   -0.1053   26.9275 N   0  0  0  0  0  0  0  0  0  0  0  0
   11.6162   -0.0119   27.3496 H   0  0  0  0  0  0  0  0  0  0  0  0
   10.1780    0.7365   25.9835 C   0  0  0  0  0  0  0  0  0  0  0  0
   10.7498    1.4391   25.3915 H   0  0  0  0  0  0  0  0  0  0  0  0
    8.2095   -0.6558   23.2553 C   0  0  0  0  0  0  0  0  0  0  0  0
    7.9802   -1.3377   24.0894 H   0  0  0  0  0  0  0  0  0  0  0  0
    9.1776   -0.9449   22.8299 H   0  0  0  0  0  0  0  0  0  0  0  0
    5.3898    0.6222   20.0031 C   0  0  0  0  0  0  0  0  0  0  0  0
    4.9088    0.6168   20.9842 H   0  0  0  0  0  0  0  0  0  0  0  0
    4.8107    1.3298   18.9520 C   0  0  0  0  0  0  0  0  0  0  0  0
    3.8942    1.8934   19.0899 H   0  0  0  0  0  0  0  0  0  0  0  0
  1  2  1  0
  2  3  2  0
  3  4  1  0
  4  5  1  0
  4  6  2  0
  6  7  1  0
  7  8  2  0
  7  9  1  0
  9 10  1  0
  9 11  1  0
 11 12  1  0
 11 13  1  0
 11 14  1  0
 14 15  1  0
 15 16  1  0
 15 17  1  0
 15 18  1  0
 18 19  1  0
 19 20  2  0
 20 21  1  0
 20 22  1  0
 22 23  1  0
 22 24  1  0
 24 25  1  0
 14 26  1  0
 26 27  1  0
 26 28  1  0
  6 29  1  0
 29 30  1  0
 29 31  2  0
 31 32  1  0
 31  2  1  0
 26  9  1  0
 24 18  2  0
M  END
>  <cnnaffinity>  (1) 
-4.54368

>  <filename>  (1) 
O=C(c1cccnc1)C1CN(Cc2c[nH]cn2)C1

$$$$
