
     RDKit          3D

 33 35  0  0  0  0  0  0  0  0999 V2000
    5.8581   -0.7300   23.5123 H   0  0  0  0  0  0  0  0  0  0  0  0
    6.5273   -0.4161   22.8784 O   0  0  0  0  0  0  0  0  0  0  0  0
    6.5914   -1.3836   21.8232 C   0  0  1  0  0  0  0  0  0  0  0  0
    5.5830   -1.5073   21.3953 H   0  0  0  0  0  0  0  0  0  0  0  0
    7.4196   -0.8341   20.6147 C   0  0  0  0  0  0  0  0  0  0  0  0
    8.5751   -1.1512   20.4145 O   0  0  0  0  0  0  0  0  0  0  0  0
    6.6886    0.0395   19.6491 C   0  0  0  0  0  0  0  0  0  0  0  0
    7.2261    0.1353   18.3594 C   0  0  0  0  0  0  0  0  0  0  0  0
    8.1728   -0.3456   18.1266 H   0  0  0  0  0  0  0  0  0  0  0  0
    6.6279    0.7856   17.3612 N   0  0  0  0  0  0  0  0  0  0  0  0
    5.4715    1.4085   17.6317 C   0  0  0  0  0  0  0  0  0  0  0  0
    4.9959    1.9174   16.7960 H   0  0  0  0  0  0  0  0  0  0  0  0
    4.8687    1.4063   18.8944 C   0  0  0  0  0  0  0  0  0  0  0  0
    3.9377    1.9397   19.0468 H   0  0  0  0  0  0  0  0  0  0  0  0
    5.4901    0.7143   19.9331 C   0  0  0  0  0  0  0  0  0  0  0  0
    5.0644    0.7160   20.9409 H   0  0  0  0  0  0  0  0  0  0  0  0
    7.0522   -2.7700   22.2433 C   0  0  0  0  0  0  0  0  0  0  0  0
    6.3684   -3.8421   21.6973 C   0  0  0  0  0  0  0  0  0  0  0  0
    5.5650   -3.6448   20.9925 H   0  0  0  0  0  0  0  0  0  0  0  0
    6.6794   -5.1850   22.0296 C   0  0  0  0  0  0  0  0  0  0  0  0
    6.1076   -5.9870   21.5713 H   0  0  0  0  0  0  0  0  0  0  0  0
    7.7071   -5.4538   22.9014 C   0  0  0  0  0  0  0  0  0  0  0  0
    7.9824   -6.4782   23.1458 H   0  0  0  0  0  0  0  0  0  0  0  0
    8.4554   -4.3863   23.4867 C   0  0  0  0  0  0  0  0  0  0  0  0
    9.5242   -4.6542   24.4001 C   0  0  0  0  0  0  0  0  0  0  0  0
    9.7294   -5.6861   24.6799 H   0  0  0  0  0  0  0  0  0  0  0  0
   10.3005   -3.6380   24.8998 C   0  0  0  0  0  0  0  0  0  0  0  0
   11.1139   -3.8834   25.5793 H   0  0  0  0  0  0  0  0  0  0  0  0
   10.0330   -2.2919   24.5278 C   0  0  0  0  0  0  0  0  0  0  0  0
   10.6427   -1.4792   24.9235 H   0  0  0  0  0  0  0  0  0  0  0  0
    9.0032   -1.9899   23.6663 C   0  0  0  0  0  0  0  0  0  0  0  0
    8.8233   -0.9555   23.3812 H   0  0  0  0  0  0  0  0  0  0  0  0
    8.1584   -3.0229   23.1310 C   0  0  0  0  0  0  0  0  0  0  0  0
  1  2  1  0
  2  3  1  0
  3  4  1  6
  3  5  1  0
  5  6  2  0
  5  7  1  0
  7  8  2  0
  8  9  1  0
  8 10  1  0
 10 11  2  0
 11 12  1  0
 11 13  1  0
 13 14  1  0
 13 15  2  0
 15 16  1  0
  3 17  1  0
 17 18  2  0
 18 19  1  0
 18 20  1  0
 20 21  1  0
 20 22  2  0
 22 23  1  0
 22 24  1  0
 24 25  2  0
 25 26  1  0
 25 27  1  0
 27 28  1  0
 27 29  2  0
 29 30  1  0
 29 31  1  0
 31 32  1  0
 31 33  2  0
 15  7  1  0
 33 17  1  0
 33 24  1  0
M  END
>  <cnnaffinity>  (1) 
-4.44563

>  <filename>  (1) 
O=C(c1cccnc1)[C@H](O)c1cccc2ccccc12

$$$$
