
     RDKit          3D

 29 31  0  0  0  0  0  0  0  0999 V2000
    4.9721    1.7821   17.0087 H   0  0  0  0  0  0  0  0  0  0  0  0
    5.4216    1.2636   17.8543 C   0  0  0  0  0  0  0  0  0  0  0  0
    6.5647    0.6111   17.6131 N   0  0  0  0  0  0  0  0  0  0  0  0
    7.1505   -0.0174   18.6415 C   0  0  0  0  0  0  0  0  0  0  0  0
    8.1100   -0.4735   18.4180 H   0  0  0  0  0  0  0  0  0  0  0  0
    6.6264   -0.0566   19.9435 C   0  0  0  0  0  0  0  0  0  0  0  0
    7.3326   -0.8008   21.0006 C   0  0  0  0  0  0  0  0  0  0  0  0
    6.7563   -1.8833   21.6043 N   0  0  0  0  0  0  0  0  0  0  0  0
    7.5807   -2.2882   22.5299 C   0  0  0  0  0  0  0  0  0  0  0  0
    7.4500   -3.1467   23.1822 H   0  0  0  0  0  0  0  0  0  0  0  0
    8.6810   -1.5056   22.5939 N   0  0  0  0  0  0  0  0  0  0  0  0
    9.4972   -1.6869   23.1666 H   0  0  0  0  0  0  0  0  0  0  0  0
    8.5528   -0.5476   21.6037 C   0  0  0  0  0  0  0  0  0  0  0  0
    9.5203    0.4759   21.1876 C   0  0  0  0  0  0  0  0  0  0  0  0
    9.5105    0.8101   20.0208 O   0  0  0  0  0  0  0  0  0  0  0  0
   10.5334    1.0791   22.1639 C   0  0  0  0  0  0  0  0  0  0  0  0
   10.3039    1.1800   23.5511 C   0  0  0  0  0  0  0  0  0  0  0  0
    9.3504    0.9250   24.0088 H   0  0  0  0  0  0  0  0  0  0  0  0
   11.3274    1.6475   24.3840 C   0  0  0  0  0  0  0  0  0  0  0  0
   11.1548    1.7078   25.4534 H   0  0  0  0  0  0  0  0  0  0  0  0
   12.5330    2.0306   23.9528 N   0  0  0  0  0  0  0  0  0  0  0  0
   12.7347    1.9919   22.6283 C   0  0  0  0  0  0  0  0  0  0  0  0
   13.7183    2.3187   22.3046 H   0  0  0  0  0  0  0  0  0  0  0  0
   11.7796    1.5609   21.7004 C   0  0  0  0  0  0  0  0  0  0  0  0
   12.0151    1.6136   20.6421 H   0  0  0  0  0  0  0  0  0  0  0  0
    5.4149    0.6231   20.1716 C   0  0  0  0  0  0  0  0  0  0  0  0
    4.9635    0.6401   21.1657 H   0  0  0  0  0  0  0  0  0  0  0  0
    4.8096    1.2994   19.1118 C   0  0  0  0  0  0  0  0  0  0  0  0
    3.8819    1.8516   19.2427 H   0  0  0  0  0  0  0  0  0  0  0  0
  1  2  1  0
  2  3  2  0
  3  4  1  0
  4  5  1  0
  4  6  2  0
  6  7  1  0
  7  8  1  0
  8  9  2  0
  9 10  1  0
  9 11  1  0
 11 12  1  0
 11 13  1  0
 13 14  1  0
 14 15  2  0
 14 16  1  0
 16 17  2  0
 17 18  1  0
 17 19  1  0
 19 20  1  0
 19 21  2  0
 21 22  1  0
 22 23  1  0
 22 24  2  0
 24 25  1  0
  6 26  1  0
 26 27  1  0
 26 28  2  0
 28 29  1  0
 28  2  1  0
 13  7  2  0
 24 16  1  0
M  END
>  <cnnaffinity>  (1) 
-5.40446

>  <filename>  (1) 
O=C(c1ccncc1)c1[nH]cnc1-c1cccnc1

$$$$
