
     RDKit          3D

 32 33  0  0  0  0  0  0  0  0999 V2000
    6.2172   -2.6002   20.8212 O   0  0  0  0  0  0  0  0  0  0  0  0
    6.9968   -1.8436   21.3663 C   0  0  0  0  0  0  0  0  0  0  0  0
    7.7593   -2.2916   22.6296 C   0  0  0  0  0  0  0  0  0  0  0  0
    9.1083   -1.6833   22.9568 C   0  0  0  0  0  0  0  0  0  0  0  0
   10.1465   -1.8034   22.1200 C   0  0  0  0  0  0  0  0  0  0  0  0
   11.4582   -1.1278   22.1820 C   0  0  0  0  0  0  0  0  0  0  0  0
   12.4746   -1.5742   21.3229 C   0  0  0  0  0  0  0  0  0  0  0  0
   13.7548   -1.0539   21.4171 C   0  0  0  0  0  0  0  0  0  0  0  0
   14.7007   -1.5052   20.5739 F   0  0  0  0  0  0  0  0  0  0  0  0
   14.0493   -0.0155   22.2998 C   0  0  0  0  0  0  0  0  0  0  0  0
   13.0283    0.4724   23.1247 C   0  0  0  0  0  0  0  0  0  0  0  0
   11.7404   -0.0740   23.0660 C   0  0  0  0  0  0  0  0  0  0  0  0
   10.9455    0.3412   23.6761 H   0  0  0  0  0  0  0  0  0  0  0  0
   13.2446    1.2833   23.8161 H   0  0  0  0  0  0  0  0  0  0  0  0
   15.0385    0.4243   22.2984 H   0  0  0  0  0  0  0  0  0  0  0  0
   12.2832   -2.3041   20.5534 H   0  0  0  0  0  0  0  0  0  0  0  0
   10.0767   -2.5162   21.2996 H   0  0  0  0  0  0  0  0  0  0  0  0
    9.2297   -1.1730   23.9178 H   0  0  0  0  0  0  0  0  0  0  0  0
    7.0594   -2.1691   23.4656 H   0  0  0  0  0  0  0  0  0  0  0  0
    7.8613   -3.3732   22.4787 H   0  0  0  0  0  0  0  0  0  0  0  0
    7.2197   -0.5571   20.9527 N   0  0  0  0  0  0  0  0  0  0  0  0
    6.5699    0.0669   19.8361 C   0  0  0  0  0  0  0  0  0  0  0  0
    5.3733    0.7610   20.0338 C   0  0  0  0  0  0  0  0  0  0  0  0
    4.8063    1.4560   18.9552 C   0  0  0  0  0  0  0  0  0  0  0  0
    5.4497    1.4131   17.7127 C   0  0  0  0  0  0  0  0  0  0  0  0
    6.5631    0.6928   17.4898 N   0  0  0  0  0  0  0  0  0  0  0  0
    7.0930    0.0270   18.5268 C   0  0  0  0  0  0  0  0  0  0  0  0
    7.9765   -0.5777   18.3263 H   0  0  0  0  0  0  0  0  0  0  0  0
    5.0494    1.9574   16.8572 H   0  0  0  0  0  0  0  0  0  0  0  0
    3.8977    2.0387   19.0694 H   0  0  0  0  0  0  0  0  0  0  0  0
    4.9204    0.7473   21.0252 H   0  0  0  0  0  0  0  0  0  0  0  0
    7.8612   -0.0101   21.5038 H   0  0  0  0  0  0  0  0  0  0  0  0
  1  2  2  0
  2  3  1  0
  3  4  1  0
  4  5  2  3
  5  6  1  0
  6  7  2  0
  7  8  1  0
  8  9  1  0
  8 10  2  0
 10 11  1  0
 11 12  2  0
 12 13  1  0
 11 14  1  0
 10 15  1  0
  7 16  1  0
  5 17  1  0
  4 18  1  0
  3 19  1  0
  3 20  1  0
  2 21  1  0
 21 22  1  0
 22 23  2  0
 23 24  1  0
 24 25  2  0
 25 26  1  0
 26 27  2  0
 27 28  1  0
 25 29  1  0
 24 30  1  0
 23 31  1  0
 21 32  1  0
 12  6  1  0
 27 22  1  0
M  END
>  <cnnaffinity>  (1) 
-5.60254

>  <filename>  (1) 
O=C(CC=Cc1cccc(F)c1)Nc1cccnc1

$$$$
