
     RDKit          3D

 29 31  0  0  0  0  0  0  0  0999 V2000
    4.9200    1.7732   17.0039 H   0  0  0  0  0  0  0  0  0  0  0  0
    5.4068    1.2872   17.8469 C   0  0  0  0  0  0  0  0  0  0  0  0
    6.5716    0.6730   17.5873 N   0  0  0  0  0  0  0  0  0  0  0  0
    7.1822    0.0565   18.6017 C   0  0  0  0  0  0  0  0  0  0  0  0
    8.1279   -0.4313   18.3751 H   0  0  0  0  0  0  0  0  0  0  0  0
    6.6624    0.0083   19.8982 C   0  0  0  0  0  0  0  0  0  0  0  0
    7.4080   -0.7048   20.9279 C   0  0  0  0  0  0  0  0  0  0  0  0
    6.9429   -0.7786   22.1965 N   0  0  0  0  0  0  0  0  0  0  0  0
    7.8520   -1.4907   22.8424 C   0  0  0  0  0  0  0  0  0  0  0  0
    7.8768   -1.9525   24.2835 C   0  0  0  0  0  0  0  0  0  0  0  0
    8.6837   -2.8031   24.6234 O   0  0  0  0  0  0  0  0  0  0  0  0
    6.8797   -1.3568   25.2371 C   0  0  0  0  0  0  0  0  0  0  0  0
    6.4638   -0.0114   25.1497 C   0  0  0  0  0  0  0  0  0  0  0  0
    6.8476    0.6406   24.3633 H   0  0  0  0  0  0  0  0  0  0  0  0
    5.5513    0.4947   26.0777 C   0  0  0  0  0  0  0  0  0  0  0  0
    5.2327    1.5311   26.0063 H   0  0  0  0  0  0  0  0  0  0  0  0
    5.0476   -0.3265   27.0935 C   0  0  0  0  0  0  0  0  0  0  0  0
    4.3400    0.0714   27.8148 H   0  0  0  0  0  0  0  0  0  0  0  0
    5.4622   -1.6596   27.1846 C   0  0  0  0  0  0  0  0  0  0  0  0
    5.0862   -2.2989   27.9778 H   0  0  0  0  0  0  0  0  0  0  0  0
    6.3727   -2.1741   26.2634 C   0  0  0  0  0  0  0  0  0  0  0  0
    6.7078   -3.2066   26.3334 H   0  0  0  0  0  0  0  0  0  0  0  0
    8.8305   -1.8176   21.9707 N   0  0  0  0  0  0  0  0  0  0  0  0
    9.6620   -2.3549   22.1480 H   0  0  0  0  0  0  0  0  0  0  0  0
    8.5667   -1.3255   20.7482 N   0  0  0  0  0  0  0  0  0  0  0  0
    5.4398    0.6510   20.1662 C   0  0  0  0  0  0  0  0  0  0  0  0
    5.0082    0.6293   21.1725 H   0  0  0  0  0  0  0  0  0  0  0  0
    4.8085    1.3071   19.1136 C   0  0  0  0  0  0  0  0  0  0  0  0
    3.8760    1.8417   19.2625 H   0  0  0  0  0  0  0  0  0  0  0  0
  1  2  1  0
  2  3  2  0
  3  4  1  0
  4  5  1  0
  4  6  2  0
  6  7  1  0
  7  8  1  0
  8  9  2  0
  9 10  1  0
 10 11  2  0
 10 12  1  0
 12 13  2  0
 13 14  1  0
 13 15  1  0
 15 16  1  0
 15 17  2  0
 17 18  1  0
 17 19  1  0
 19 20  1  0
 19 21  2  0
 21 22  1  0
  9 23  1  0
 23 24  1  0
 23 25  1  0
  6 26  1  0
 26 27  1  0
 26 28  2  0
 28 29  1  0
 28  2  1  0
 25  7  2  0
 21 12  1  0
M  END
>  <cnnaffinity>  (1) 
-4.58368

>  <filename>  (1) 
O=C(c1ccccc1)c1nc(-c2cccnc2)n[nH]1

$$$$
