
     RDKit          3D

 37 39  0  0  0  0  0  0  0  0999 V2000
    4.9261    1.6256   16.8931 H   0  0  0  0  0  0  0  0  0  0  0  0
    5.4651    1.3269   17.7880 C   0  0  0  0  0  0  0  0  0  0  0  0
    6.6505    0.7338   17.5977 N   0  0  0  0  0  0  0  0  0  0  0  0
    7.3231    0.3409   18.6897 C   0  0  0  0  0  0  0  0  0  0  0  0
    8.2953   -0.1102   18.4784 H   0  0  0  0  0  0  0  0  0  0  0  0
    6.8600    0.4766   20.0188 C   0  0  0  0  0  0  0  0  0  0  0  0
    7.6559   -0.1351   21.1959 C   0  0  2  0  0  0  0  0  0  0  0  0
    7.9986   -1.6107   20.8054 C   0  0  0  0  0  0  0  0  0  0  0  0
    8.7553   -1.5728   20.0209 H   0  0  0  0  0  0  0  0  0  0  0  0
    7.1107   -2.0834   20.3796 H   0  0  0  0  0  0  0  0  0  0  0  0
    8.5865   -2.5207   21.8697 C   0  0  0  0  0  0  0  0  0  0  0  0
    9.7671   -2.4423   22.1565 O   0  0  0  0  0  0  0  0  0  0  0  0
    7.6916   -3.5680   22.5610 C   0  0  0  0  0  0  0  0  0  0  0  0
    6.3084   -3.6960   22.3312 C   0  0  0  0  0  0  0  0  0  0  0  0
    5.7883   -3.0890   21.6065 H   0  0  0  0  0  0  0  0  0  0  0  0
    5.5524   -4.6306   23.0458 C   0  0  0  0  0  0  0  0  0  0  0  0
    4.4801   -4.6986   22.8719 H   0  0  0  0  0  0  0  0  0  0  0  0
    6.0752   -5.4819   23.9349 N   0  0  0  0  0  0  0  0  0  0  0  0
    7.3945   -5.3863   24.1558 C   0  0  0  0  0  0  0  0  0  0  0  0
    7.8033   -6.0999   24.8690 H   0  0  0  0  0  0  0  0  0  0  0  0
    8.2225   -4.4545   23.5191 C   0  0  0  0  0  0  0  0  0  0  0  0
    9.2707   -4.4108   23.7784 H   0  0  0  0  0  0  0  0  0  0  0  0
    6.9088   -0.0401   22.5622 C   0  0  0  0  0  0  0  0  0  0  0  0
    7.2082   -0.8892   23.1951 H   0  0  0  0  0  0  0  0  0  0  0  0
    5.8240   -0.1336   22.4406 H   0  0  0  0  0  0  0  0  0  0  0  0
    7.2673    1.2546   23.1574 N   0  0  0  0  0  0  0  0  0  0  0  0
    7.4710    1.1568   24.1424 H   0  0  0  0  0  0  0  0  0  0  0  0
    8.4040    1.8276   22.4192 C   0  0  0  0  0  0  0  0  0  0  0  0
    9.1833    2.1988   23.0985 H   0  0  0  0  0  0  0  0  0  0  0  0
    8.0616    2.6779   21.8092 H   0  0  0  0  0  0  0  0  0  0  0  0
    8.9206    0.7031   21.5173 C   0  0  0  0  0  0  0  0  0  0  0  0
    9.4291    1.0668   20.6160 H   0  0  0  0  0  0  0  0  0  0  0  0
    9.6323    0.0804   22.0669 H   0  0  0  0  0  0  0  0  0  0  0  0
    5.6455    1.1673   20.1797 C   0  0  0  0  0  0  0  0  0  0  0  0
    5.2638    1.3926   21.1765 H   0  0  0  0  0  0  0  0  0  0  0  0
    4.9265    1.5717   19.0543 C   0  0  0  0  0  0  0  0  0  0  0  0
    3.9668    2.0686   19.1480 H   0  0  0  0  0  0  0  0  0  0  0  0
  1  2  1  0
  2  3  2  0
  3  4  1  0
  4  5  1  0
  4  6  2  0
  6  7  1  0
  7  8  1  6
  8  9  1  0
  8 10  1  0
  8 11  1  0
 11 12  2  0
 11 13  1  0
 13 14  2  0
 14 15  1  0
 14 16  1  0
 16 17  1  0
 16 18  2  0
 18 19  1  0
 19 20  1  0
 19 21  2  0
 21 22  1  0
  7 23  1  0
 23 24  1  0
 23 25  1  0
 23 26  1  0
 26 27  1  0
 26 28  1  0
 28 29  1  0
 28 30  1  0
 28 31  1  0
 31 32  1  0
 31 33  1  0
  6 34  1  0
 34 35  1  0
 34 36  2  0
 36 37  1  0
 36  2  1  0
 31  7  1  0
 21 13  1  0
M  END
>  <cnnaffinity>  (1) 
-5.14581

>  <filename>  (1) 
O=C(C[C@]1(c2cccnc2)CCNC1)c1ccncc1

$$$$
