
     RDKit          3D

 33 35  0  0  0  0  0  0  0  0999 V2000
    8.0615   -1.6745   20.5801 O   0  0  0  0  0  0  0  0  0  0  0  0
    7.3965   -0.6973   20.9201 C   0  0  0  0  0  0  0  0  0  0  0  0
    6.6735    0.0017   19.8675 C   0  0  0  0  0  0  0  0  0  0  0  0
    5.4740    0.6568   20.1369 C   0  0  0  0  0  0  0  0  0  0  0  0
    4.8362    1.2968   19.0840 C   0  0  0  0  0  0  0  0  0  0  0  0
    5.4127    1.2839   17.8128 C   0  0  0  0  0  0  0  0  0  0  0  0
    6.5641    0.6387   17.5529 N   0  0  0  0  0  0  0  0  0  0  0  0
    7.1814    0.0099   18.5652 C   0  0  0  0  0  0  0  0  0  0  0  0
    8.1256   -0.4857   18.3661 H   0  0  0  0  0  0  0  0  0  0  0  0
    4.9106    1.8280   17.0185 H   0  0  0  0  0  0  0  0  0  0  0  0
    3.9061    1.8297   19.2405 H   0  0  0  0  0  0  0  0  0  0  0  0
    5.0366    0.6775   21.1346 H   0  0  0  0  0  0  0  0  0  0  0  0
    7.2867   -0.2693   22.3484 C   0  0  0  0  0  0  0  0  0  0  0  0
    7.1516    0.9882   22.7404 N   0  0  0  0  0  0  0  0  0  0  0  0
    7.0690    0.9799   24.1237 C   0  0  0  0  0  0  0  0  0  0  0  0
    7.1293   -0.2997   24.5786 C   0  0  0  0  0  0  0  0  0  0  0  0
    7.2715   -1.1067   23.4668 N   0  0  0  0  0  0  0  0  0  0  0  0
    7.2062   -2.5734   23.4675 C   0  0  0  0  0  0  0  0  0  0  0  0
    8.0732   -3.1417   24.5523 C   0  0  0  0  0  0  0  0  0  0  0  0
    7.4672   -3.6431   25.7150 C   0  0  0  0  0  0  0  0  0  0  0  0
    8.2491   -4.2015   26.7247 C   0  0  0  0  0  0  0  0  0  0  0  0
    9.6267   -4.2944   26.5477 C   0  0  0  0  0  0  0  0  0  0  0  0
   10.6537   -5.1268   27.8939 Br  0  0  0  0  0  0  0  0  0  0  0  0
   10.2377   -3.7882   25.3978 C   0  0  0  0  0  0  0  0  0  0  0  0
    9.4681   -3.1865   24.4063 C   0  0  0  0  0  0  0  0  0  0  0  0
   10.2504   -2.5398   22.9853 Cl  0  0  0  0  0  0  0  0  0  0  0  0
   11.3126   -3.8565   25.2705 H   0  0  0  0  0  0  0  0  0  0  0  0
    7.8051   -4.5813   27.6428 H   0  0  0  0  0  0  0  0  0  0  0  0
    6.3863   -3.6149   25.8230 H   0  0  0  0  0  0  0  0  0  0  0  0
    7.5354   -2.9554   22.4969 H   0  0  0  0  0  0  0  0  0  0  0  0
    6.1722   -2.8946   23.6252 H   0  0  0  0  0  0  0  0  0  0  0  0
    7.0847   -0.6026   25.6183 H   0  0  0  0  0  0  0  0  0  0  0  0
    6.9720    1.8620   24.7514 H   0  0  0  0  0  0  0  0  0  0  0  0
  1  2  2  0
  2  3  1  0
  3  4  2  0
  4  5  1  0
  5  6  2  0
  6  7  1  0
  7  8  2  0
  8  9  1  0
  6 10  1  0
  5 11  1  0
  4 12  1  0
  2 13  1  0
 13 14  2  0
 14 15  1  0
 15 16  2  0
 16 17  1  0
 17 18  1  0
 18 19  1  0
 19 20  2  0
 20 21  1  0
 21 22  2  0
 22 23  1  0
 22 24  1  0
 24 25  2  0
 25 26  1  0
 24 27  1  0
 21 28  1  0
 20 29  1  0
 18 30  1  0
 18 31  1  0
 16 32  1  0
 15 33  1  0
  8  3  1  0
 17 13  1  0
 25 19  1  0
M  END
>  <cnnaffinity>  (1) 
-5.55838

>  <filename>  (1) 
O=C(c1cccnc1)c1nccn1Cc1ccc(Br)cc1Cl

$$$$
