
     RDKit          3D

 37 40  0  0  0  0  0  0  0  0999 V2000
    5.0617    1.5491   17.1780 H   0  0  0  0  0  0  0  0  0  0  0  0
    5.5269    1.1425   18.0729 C   0  0  0  0  0  0  0  0  0  0  0  0
    6.6548    0.4438   17.8818 N   0  0  0  0  0  0  0  0  0  0  0  0
    7.2566   -0.0566   18.9679 C   0  0  0  0  0  0  0  0  0  0  0  0
    8.2156   -0.5384   18.7785 H   0  0  0  0  0  0  0  0  0  0  0  0
    6.7703    0.0442   20.2919 C   0  0  0  0  0  0  0  0  0  0  0  0
    7.4610   -0.6256   21.5219 C   0  0  2  0  0  0  0  0  0  0  0  0
    7.9029    0.5434   22.4988 C   0  0  0  0  0  0  0  0  0  0  0  0
    7.1549    0.8956   23.4009 O   0  0  0  0  0  0  0  0  0  0  0  0
    9.1440    1.3287   22.3387 C   0  0  0  0  0  0  0  0  0  0  0  0
   10.3398    1.0918   21.1181 S   0  0  0  0  0  0  0  0  0  0  0  0
   11.2379    2.4426   21.6716 C   0  0  0  0  0  0  0  0  0  0  0  0
   12.1462    2.7217   21.1561 H   0  0  0  0  0  0  0  0  0  0  0  0
   10.6648    3.0404   22.7555 C   0  0  0  0  0  0  0  0  0  0  0  0
   11.0905    3.8961   23.2729 H   0  0  0  0  0  0  0  0  0  0  0  0
    9.4516    2.4103   23.1342 C   0  0  0  0  0  0  0  0  0  0  0  0
    8.8028    2.7460   23.9416 H   0  0  0  0  0  0  0  0  0  0  0  0
    8.5609   -1.7060   21.1444 C   0  0  0  0  0  0  0  0  0  0  0  0
    8.7576   -1.7971   20.0750 H   0  0  0  0  0  0  0  0  0  0  0  0
    9.5130   -1.4606   21.6260 H   0  0  0  0  0  0  0  0  0  0  0  0
    8.0426   -3.0428   21.7352 C   0  0  2  0  0  0  0  0  0  0  0  0
    8.8195   -3.8069   21.8017 H   0  0  0  0  0  0  0  0  0  0  0  0
    6.7447   -3.5484   21.0550 C   0  0  0  0  0  0  0  0  0  0  0  0
    6.7687   -3.6256   19.9668 H   0  0  0  0  0  0  0  0  0  0  0  0
    6.4963   -4.5509   21.4228 H   0  0  0  0  0  0  0  0  0  0  0  0
    5.6959   -2.4948   21.5064 C   0  0  0  0  0  0  0  0  0  0  0  0
    5.2990   -1.9615   20.6405 H   0  0  0  0  0  0  0  0  0  0  0  0
    4.8605   -2.9321   22.0652 H   0  0  0  0  0  0  0  0  0  0  0  0
    6.5238   -1.5545   22.3958 C   0  0  1  0  0  0  0  0  0  0  0  0
    6.0008   -0.9394   23.1139 H   0  0  0  0  0  0  0  0  0  0  0  0
    7.4909   -2.5392   23.0695 C   0  0  0  0  0  0  0  0  0  0  0  0
    6.9698   -3.3084   23.6580 H   0  0  0  0  0  0  0  0  0  0  0  0
    8.2452   -2.0665   23.7130 H   0  0  0  0  0  0  0  0  0  0  0  0
    5.5983    0.8144   20.4586 C   0  0  0  0  0  0  0  0  0  0  0  0
    5.1841    0.9895   21.4537 H   0  0  0  0  0  0  0  0  0  0  0  0
    4.9719    1.3640   19.3362 C   0  0  0  0  0  0  0  0  0  0  0  0
    4.0927    1.9954   19.4261 H   0  0  0  0  0  0  0  0  0  0  0  0
  1  2  1  0
  2  3  2  0
  3  4  1  0
  4  5  1  0
  4  6  2  0
  6  7  1  0
  7  8  1  1
  8  9  2  0
  8 10  1  0
 10 11  1  0
 11 12  1  0
 12 13  1  0
 12 14  2  0
 14 15  1  0
 14 16  1  0
 16 17  1  0
  7 18  1  0
 18 19  1  0
 18 20  1  0
 18 21  1  0
 21 22  1  1
 21 23  1  0
 23 24  1  0
 23 25  1  0
 23 26  1  0
 26 27  1  0
 26 28  1  0
 26 29  1  0
 29 30  1  1
 29 31  1  0
 31 32  1  0
 31 33  1  0
  6 34  1  0
 34 35  1  0
 34 36  2  0
 36 37  1  0
 36  2  1  0
 29  7  1  0
 16 10  2  0
 31 21  1  0
M  END
>  <cnnaffinity>  (1) 
-5.0563

>  <filename>  (1) 
O=C(c1cccs1)[C@@]1(c2cccnc2)C[C@@H]2CC[C@H]1C2

$$$$
