
     RDKit          3D

 33 35  0  0  0  0  0  0  0  0999 V2000
    4.9228    1.7856   16.9872 H   0  0  0  0  0  0  0  0  0  0  0  0
    5.3991    1.2922   17.8328 C   0  0  0  0  0  0  0  0  0  0  0  0
    6.5603    0.6765   17.5740 N   0  0  0  0  0  0  0  0  0  0  0  0
    7.1711    0.0771   18.6071 C   0  0  0  0  0  0  0  0  0  0  0  0
    8.1102   -0.4211   18.3678 H   0  0  0  0  0  0  0  0  0  0  0  0
    6.6665    0.0235   19.9187 C   0  0  0  0  0  0  0  0  0  0  0  0
    7.4207   -0.6882   21.0193 C   0  0  0  0  0  0  0  0  0  0  0  0
    8.5612    0.1015   21.6595 C   0  0  0  0  0  0  0  0  0  0  0  0
    8.8913   -0.3994   22.5738 H   0  0  0  0  0  0  0  0  0  0  0  0
    9.4152    0.1332   20.9779 H   0  0  0  0  0  0  0  0  0  0  0  0
    8.2203    1.5526   21.9516 C   0  0  0  0  0  0  0  0  0  0  0  0
    8.7647    2.4294   21.3083 O   0  0  0  0  0  0  0  0  0  0  0  0
    7.1585    1.8657   22.9881 C   0  0  0  0  0  0  0  0  0  0  0  0
    6.4403    3.0716   22.8799 C   0  0  0  0  0  0  0  0  0  0  0  0
    6.6771    3.7564   22.0671 H   0  0  0  0  0  0  0  0  0  0  0  0
    5.4474    3.4078   23.8001 C   0  0  0  0  0  0  0  0  0  0  0  0
    4.8996    4.3431   23.7166 H   0  0  0  0  0  0  0  0  0  0  0  0
    5.1659    2.5267   24.8470 C   0  0  0  0  0  0  0  0  0  0  0  0
    3.9275    2.9381   25.9965 Cl  0  0  0  0  0  0  0  0  0  0  0  0
    5.8620    1.3246   24.9860 C   0  0  0  0  0  0  0  0  0  0  0  0
    5.6243    0.6612   25.8132 H   0  0  0  0  0  0  0  0  0  0  0  0
    6.8562    0.9990   24.0584 C   0  0  0  0  0  0  0  0  0  0  0  0
    7.3944    0.0632   24.1988 H   0  0  0  0  0  0  0  0  0  0  0  0
    7.6497   -2.1563   20.8239 C   0  0  0  0  0  0  0  0  0  0  0  0
    8.6074   -2.6037   21.0975 H   0  0  0  0  0  0  0  0  0  0  0  0
    7.1457   -2.5612   19.9583 H   0  0  0  0  0  0  0  0  0  0  0  0
    6.6686   -1.6917   21.8549 C   0  0  0  0  0  0  0  0  0  0  0  0
    6.9104   -1.8276   22.9053 H   0  0  0  0  0  0  0  0  0  0  0  0
    5.6178   -1.8509   21.6168 H   0  0  0  0  0  0  0  0  0  0  0  0
    5.4458    0.6663   20.1597 C   0  0  0  0  0  0  0  0  0  0  0  0
    5.0239    0.6284   21.1669 H   0  0  0  0  0  0  0  0  0  0  0  0
    4.8058    1.3153   19.1018 C   0  0  0  0  0  0  0  0  0  0  0  0
    3.8708    1.8409   19.2463 H   0  0  0  0  0  0  0  0  0  0  0  0
  1  2  1  0
  2  3  2  0
  3  4  1  0
  4  5  1  0
  4  6  2  0
  6  7  1  0
  7  8  1  0
  8  9  1  0
  8 10  1  0
  8 11  1  0
 11 12  2  0
 11 13  1  0
 13 14  2  0
 14 15  1  0
 14 16  1  0
 16 17  1  0
 16 18  2  0
 18 19  1  0
 18 20  1  0
 20 21  1  0
 20 22  2  0
 22 23  1  0
  7 24  1  0
 24 25  1  0
 24 26  1  0
 24 27  1  0
 27 28  1  0
 27 29  1  0
  6 30  1  0
 30 31  1  0
 30 32  2  0
 32 33  1  0
 32  2  1  0
 27  7  1  0
 22 13  1  0
M  END
>  <cnnaffinity>  (1) 
-4.48763

>  <filename>  (1) 
O=C(CC1(c2cccnc2)CC1)c1ccc(Cl)cc1

$$$$
