
     RDKit          3D

 41 43  0  0  0  0  0  0  0  0999 V2000
    7.2471    0.7002   23.8930 O   0  0  0  0  0  0  0  0  0  0  0  0
    7.4660    1.6453   23.1525 C   0  0  0  0  0  0  0  0  0  0  0  0
    6.9782    3.0590   23.4547 C   0  0  0  0  0  0  0  0  0  0  0  0
    8.0383    4.0474   23.9249 C   0  0  0  0  0  0  0  0  0  0  0  0
    9.2948    3.6117   24.2897 C   0  0  0  0  0  0  0  0  0  0  0  0
   10.3307    4.5159   24.6444 C   0  0  0  0  0  0  0  0  0  0  0  0
   10.0745    5.8598   24.7279 C   0  0  0  0  0  0  0  0  0  0  0  0
    8.7743    6.3707   24.4178 C   0  0  0  0  0  0  0  0  0  0  0  0
    8.4949    7.7689   24.4795 C   0  0  0  0  0  0  0  0  0  0  0  0
    7.2432    8.2556   24.1835 C   0  0  0  0  0  0  0  0  0  0  0  0
    6.2045    7.3626   23.8157 C   0  0  0  0  0  0  0  0  0  0  0  0
    6.4422    6.0093   23.7391 C   0  0  0  0  0  0  0  0  0  0  0  0
    7.7369    5.4610   24.0200 C   0  0  0  0  0  0  0  0  0  0  0  0
    5.6370    5.3332   23.4615 H   0  0  0  0  0  0  0  0  0  0  0  0
    5.2155    7.7554   23.5864 H   0  0  0  0  0  0  0  0  0  0  0  0
    7.0440    9.3225   24.2331 H   0  0  0  0  0  0  0  0  0  0  0  0
    9.3017    8.4369   24.7671 H   0  0  0  0  0  0  0  0  0  0  0  0
   10.8502    6.5573   25.0300 H   0  0  0  0  0  0  0  0  0  0  0  0
   11.3358    4.1361   24.8083 H   0  0  0  0  0  0  0  0  0  0  0  0
    9.4998    2.5434   24.2951 H   0  0  0  0  0  0  0  0  0  0  0  0
    6.2241    2.9114   24.2328 H   0  0  0  0  0  0  0  0  0  0  0  0
    6.4572    3.4601   22.5711 H   0  0  0  0  0  0  0  0  0  0  0  0
    8.1836    1.5147   22.0043 N   0  0  0  0  0  0  0  0  0  0  0  0
    8.5798    0.2029   21.4929 C   0  0  0  0  0  0  0  0  0  0  0  0
    7.3896   -0.6674   21.0287 C   0  0  0  0  0  0  0  0  0  0  0  0
    7.9318   -1.9132   20.6319 O   0  0  0  0  0  0  0  0  0  0  0  0
    7.1806   -2.4768   20.4095 H   0  0  0  0  0  0  0  0  0  0  0  0
    6.6154   -0.0266   19.9055 C   0  0  0  0  0  0  0  0  0  0  0  0
    5.4134    0.6478   20.1471 C   0  0  0  0  0  0  0  0  0  0  0  0
    4.7889    1.3149   19.0937 C   0  0  0  0  0  0  0  0  0  0  0  0
    5.3975    1.2915   17.8343 C   0  0  0  0  0  0  0  0  0  0  0  0
    6.5555    0.6604   17.5827 N   0  0  0  0  0  0  0  0  0  0  0  0
    7.1475    0.0258   18.6058 C   0  0  0  0  0  0  0  0  0  0  0  0
    8.1061   -0.4454   18.3789 H   0  0  0  0  0  0  0  0  0  0  0  0
    4.9406    1.7974   16.9848 H   0  0  0  0  0  0  0  0  0  0  0  0
    3.8615    1.8576   19.2313 H   0  0  0  0  0  0  0  0  0  0  0  0
    5.0023    0.6542   21.1563 H   0  0  0  0  0  0  0  0  0  0  0  0
    6.7257   -0.7883   21.8989 H   0  0  0  0  0  0  0  0  0  0  0  0
    9.0837   -0.3656   22.2837 H   0  0  0  0  0  0  0  0  0  0  0  0
    9.2794    0.3252   20.6570 H   0  0  0  0  0  0  0  0  0  0  0  0
    8.2778    2.3516   21.4514 H   0  0  0  0  0  0  0  0  0  0  0  0
  1  2  2  0
  2  3  1  0
  3  4  1  0
  4  5  2  0
  5  6  1  0
  6  7  2  0
  7  8  1  0
  8  9  2  0
  9 10  1  0
 10 11  2  0
 11 12  1  0
 12 13  2  0
 12 14  1  0
 11 15  1  0
 10 16  1  0
  9 17  1  0
  7 18  1  0
  6 19  1  0
  5 20  1  0
  3 21  1  0
  3 22  1  0
  2 23  1  0
 23 24  1  0
 24 25  1  0
 25 26  1  0
 26 27  1  0
 25 28  1  0
 28 29  2  0
 29 30  1  0
 30 31  2  0
 31 32  1  0
 32 33  2  0
 33 34  1  0
 31 35  1  0
 30 36  1  0
 29 37  1  0
 25 38  1  0
 24 39  1  0
 24 40  1  0
 23 41  1  0
 13  4  1  0
 33 28  1  0
 13  8  1  0
M  END
>  <cnnaffinity>  (1) 
-4.64106

>  <filename>  (1) 
O=C(Cc1cccc2ccccc12)NCC(O)c1cccnc1

$$$$
