
     RDKit          3D

 34 36  0  0  0  0  0  0  0  0999 V2000
    9.4683    0.0975   20.4366 O   0  0  0  0  0  0  0  0  0  0  0  0
    8.7501   -0.5920   21.1361 C   0  0  0  0  0  0  0  0  0  0  0  0
    9.3020   -1.4306   22.2668 C   0  0  0  0  0  0  0  0  0  0  0  0
    9.1181   -0.7641   23.6330 C   0  0  0  0  0  0  0  0  0  0  0  0
    9.7245    0.5592   23.6457 N   0  0  0  0  0  0  0  0  0  0  0  0
    9.0476    1.7256   23.3094 C   0  0  0  0  0  0  0  0  0  0  0  0
    7.8508    1.7627   23.1411 O   0  0  0  0  0  0  0  0  0  0  0  0
   10.0304    2.8217   23.2183 C   0  0  0  0  0  0  0  0  0  0  0  0
    9.9063    4.1771   22.8993 C   0  0  0  0  0  0  0  0  0  0  0  0
   11.0961    4.9118   22.8660 C   0  0  0  0  0  0  0  0  0  0  0  0
   12.3174    4.2591   23.1516 C   0  0  0  0  0  0  0  0  0  0  0  0
   12.4183    2.9672   23.4705 N   0  0  0  0  0  0  0  0  0  0  0  0
   11.2735    2.2640   23.4870 C   0  0  0  0  0  0  0  0  0  0  0  0
   11.0894    0.7790   23.7677 C   0  0  0  0  0  0  0  0  0  0  0  0
   11.8632   -0.1049   24.0490 O   0  0  0  0  0  0  0  0  0  0  0  0
   13.2565    4.8063   23.1184 H   0  0  0  0  0  0  0  0  0  0  0  0
   11.1042    5.9631   22.6035 H   0  0  0  0  0  0  0  0  0  0  0  0
    8.9458    4.6424   22.6644 H   0  0  0  0  0  0  0  0  0  0  0  0
    9.5802   -1.3642   24.4281 H   0  0  0  0  0  0  0  0  0  0  0  0
    8.0568   -0.6508   23.8809 H   0  0  0  0  0  0  0  0  0  0  0  0
    8.8651   -2.4345   22.2719 H   0  0  0  0  0  0  0  0  0  0  0  0
   10.3706   -1.5342   22.0652 H   0  0  0  0  0  0  0  0  0  0  0  0
    7.3867   -0.6661   20.9453 N   0  0  0  0  0  0  0  0  0  0  0  0
    6.6794    0.0015   19.9078 C   0  0  0  0  0  0  0  0  0  0  0  0
    5.4560    0.6271   20.1686 C   0  0  0  0  0  0  0  0  0  0  0  0
    4.8175    1.2938   19.1152 C   0  0  0  0  0  0  0  0  0  0  0  0
    5.3954    1.2887   17.8433 C   0  0  0  0  0  0  0  0  0  0  0  0
    6.5548    0.6692   17.5701 N   0  0  0  0  0  0  0  0  0  0  0  0
    7.1806    0.0581   18.5825 C   0  0  0  0  0  0  0  0  0  0  0  0
    8.1312   -0.4207   18.3590 H   0  0  0  0  0  0  0  0  0  0  0  0
    4.9202    1.7925   17.0047 H   0  0  0  0  0  0  0  0  0  0  0  0
    3.8895    1.8269   19.2710 H   0  0  0  0  0  0  0  0  0  0  0  0
    5.0365    0.6188   21.1749 H   0  0  0  0  0  0  0  0  0  0  0  0
    6.8500   -1.0896   21.6856 H   0  0  0  0  0  0  0  0  0  0  0  0
  1  2  2  0
  2  3  1  0
  3  4  1  0
  4  5  1  0
  5  6  1  0
  6  7  2  0
  6  8  1  0
  8  9  2  0
  9 10  1  0
 10 11  2  0
 11 12  1  0
 12 13  2  0
 13 14  1  0
 14 15  2  0
 11 16  1  0
 10 17  1  0
  9 18  1  0
  4 19  1  0
  4 20  1  0
  3 21  1  0
  3 22  1  0
  2 23  1  0
 23 24  1  0
 24 25  2  0
 25 26  1  0
 26 27  2  0
 27 28  1  0
 28 29  2  0
 29 30  1  0
 27 31  1  0
 26 32  1  0
 25 33  1  0
 23 34  1  0
 14  5  1  0
 29 24  1  0
 13  8  1  0
M  END
>  <cnnaffinity>  (1) 
-5.15861

>  <filename>  (1) 
O=C(CCN1C(=O)c2cccnc2C1=O)Nc1cccnc1

$$$$
