
     RDKit          3D

 34 36  0  0  0  0  0  0  0  0999 V2000
    5.0047    1.8144   17.0209 H   0  0  0  0  0  0  0  0  0  0  0  0
    5.4348    1.2711   17.8620 C   0  0  0  0  0  0  0  0  0  0  0  0
    6.5908    0.6343   17.6220 N   0  0  0  0  0  0  0  0  0  0  0  0
    7.1456   -0.0268   18.6464 C   0  0  0  0  0  0  0  0  0  0  0  0
    8.0934   -0.5278   18.4474 H   0  0  0  0  0  0  0  0  0  0  0  0
    6.5910   -0.1196   19.9391 C   0  0  0  0  0  0  0  0  0  0  0  0
    7.3128   -0.8307   21.0607 C   0  0  0  0  0  0  0  0  0  0  0  0
    7.0039   -2.3084   21.3796 C   0  0  0  0  0  0  0  0  0  0  0  0
    7.7982   -3.2140   21.3347 O   0  0  0  0  0  0  0  0  0  0  0  0
    5.6796   -2.4937   21.7777 O   0  0  0  0  0  0  0  0  0  0  0  0
    5.4321   -3.7376   22.3992 N   0  0  0  0  0  0  0  0  0  0  0  0
    5.6269   -4.5163   21.7885 H   0  0  0  0  0  0  0  0  0  0  0  0
    4.4906   -3.9153   23.3879 C   0  0  0  0  0  0  0  0  0  0  0  0
    3.9883   -3.0652   24.0856 O   0  0  0  0  0  0  0  0  0  0  0  0
    4.1507   -5.4181   23.5357 C   0  0  0  0  0  0  0  0  0  0  0  0
    5.0744   -6.4838   23.4199 C   0  0  0  0  0  0  0  0  0  0  0  0
    6.1111   -6.3635   23.1025 H   0  0  0  0  0  0  0  0  0  0  0  0
    4.6648   -7.7833   23.7414 C   0  0  0  0  0  0  0  0  0  0  0  0
    5.3782   -8.6016   23.6914 H   0  0  0  0  0  0  0  0  0  0  0  0
    3.4192   -8.1082   24.1223 N   0  0  0  0  0  0  0  0  0  0  0  0
    2.5273   -7.1096   24.1813 C   0  0  0  0  0  0  0  0  0  0  0  0
    1.5150   -7.3688   24.4875 H   0  0  0  0  0  0  0  0  0  0  0  0
    2.8357   -5.7733   23.8982 C   0  0  0  0  0  0  0  0  0  0  0  0
    2.0604   -5.0160   23.9757 H   0  0  0  0  0  0  0  0  0  0  0  0
    7.7165    0.0128   22.2655 C   0  0  0  0  0  0  0  0  0  0  0  0
    7.4178    1.0604   22.2738 H   0  0  0  0  0  0  0  0  0  0  0  0
    7.6880   -0.4601   23.2402 H   0  0  0  0  0  0  0  0  0  0  0  0
    8.7576   -0.4109   21.2882 C   0  0  0  0  0  0  0  0  0  0  0  0
    9.4469   -1.1976   21.5725 H   0  0  0  0  0  0  0  0  0  0  0  0
    9.1895    0.3505   20.6401 H   0  0  0  0  0  0  0  0  0  0  0  0
    5.3843    0.5531   20.1600 C   0  0  0  0  0  0  0  0  0  0  0  0
    4.9321    0.5233   21.1529 H   0  0  0  0  0  0  0  0  0  0  0  0
    4.7965    1.2586   19.1056 C   0  0  0  0  0  0  0  0  0  0  0  0
    3.8736    1.8090   19.2373 H   0  0  0  0  0  0  0  0  0  0  0  0
  1  2  1  0
  2  3  2  0
  3  4  1  0
  4  5  1  0
  4  6  2  0
  6  7  1  0
  7  8  1  0
  8  9  2  0
  8 10  1  0
 10 11  1  0
 11 12  1  0
 11 13  1  0
 13 14  2  0
 13 15  1  0
 15 16  2  0
 16 17  1  0
 16 18  1  0
 18 19  1  0
 18 20  2  0
 20 21  1  0
 21 22  1  0
 21 23  2  0
 23 24  1  0
  7 25  1  0
 25 26  1  0
 25 27  1  0
 25 28  1  0
 28 29  1  0
 28 30  1  0
  6 31  1  0
 31 32  1  0
 31 33  2  0
 33 34  1  0
 33  2  1  0
 28  7  1  0
 23 15  1  0
M  END
>  <cnnaffinity>  (1) 
-4.8853

>  <filename>  (1) 
O=C(NOC(=O)C1(c2cccnc2)CC1)c1ccncc1

$$$$
