
     RDKit          3D

 31 33  0  0  0  0  0  0  0  0999 V2000
    4.9195    1.7987   16.9817 H   0  0  0  0  0  0  0  0  0  0  0  0
    5.3845    1.2996   17.8280 C   0  0  0  0  0  0  0  0  0  0  0  0
    6.5431    0.6726   17.5675 N   0  0  0  0  0  0  0  0  0  0  0  0
    7.1517    0.0525   18.5826 C   0  0  0  0  0  0  0  0  0  0  0  0
    8.1134   -0.4129   18.3823 H   0  0  0  0  0  0  0  0  0  0  0  0
    6.6288   -0.0063   19.8874 C   0  0  0  0  0  0  0  0  0  0  0  0
    7.3571   -0.6821   20.8974 N   0  0  0  0  0  0  0  0  0  0  0  0
    8.7593   -0.6432   21.1307 C   0  0  0  0  0  0  0  0  0  0  0  0
    9.5757   -0.0384   20.4567 O   0  0  0  0  0  0  0  0  0  0  0  0
    8.9175   -1.4599   22.3160 C   0  0  0  0  0  0  0  0  0  0  0  0
    9.8764   -1.6513   22.7596 H   0  0  0  0  0  0  0  0  0  0  0  0
    7.7051   -1.9113   22.7365 C   0  0  0  0  0  0  0  0  0  0  0  0
    7.4337   -2.7715   23.9611 C   0  0  0  0  0  0  0  0  0  0  0  0
    8.2559   -2.8368   24.8573 O   0  0  0  0  0  0  0  0  0  0  0  0
    6.1326   -3.5220   24.0474 C   0  0  0  0  0  0  0  0  0  0  0  0
    5.5137   -4.1114   22.9282 C   0  0  0  0  0  0  0  0  0  0  0  0
    5.9588   -4.0276   21.9370 H   0  0  0  0  0  0  0  0  0  0  0  0
    4.3308   -4.8403   23.0811 C   0  0  0  0  0  0  0  0  0  0  0  0
    3.8468   -5.3208   22.2366 H   0  0  0  0  0  0  0  0  0  0  0  0
    3.7643   -4.9656   24.3529 C   0  0  0  0  0  0  0  0  0  0  0  0
    2.2977   -5.8778   24.5497 Cl  0  0  0  0  0  0  0  0  0  0  0  0
    4.3589   -4.3804   25.4743 C   0  0  0  0  0  0  0  0  0  0  0  0
    3.9071   -4.5059   26.4544 H   0  0  0  0  0  0  0  0  0  0  0  0
    5.5432   -3.6647   25.3165 C   0  0  0  0  0  0  0  0  0  0  0  0
    6.0307   -3.2168   26.1808 H   0  0  0  0  0  0  0  0  0  0  0  0
    6.7511   -1.4405   21.8675 N   0  0  0  0  0  0  0  0  0  0  0  0
    5.7421   -1.5099   21.8960 H   0  0  0  0  0  0  0  0  0  0  0  0
    5.4193    0.6501   20.1520 C   0  0  0  0  0  0  0  0  0  0  0  0
    5.0164    0.6515   21.1668 H   0  0  0  0  0  0  0  0  0  0  0  0
    4.7931    1.3179   19.0973 C   0  0  0  0  0  0  0  0  0  0  0  0
    3.8650    1.8541   19.2475 H   0  0  0  0  0  0  0  0  0  0  0  0
  1  2  1  0
  2  3  2  0
  3  4  1  0
  4  5  1  0
  4  6  2  0
  6  7  1  0
  7  8  1  0
  8  9  2  0
  8 10  1  0
 10 11  1  0
 10 12  2  0
 12 13  1  0
 13 14  2  0
 13 15  1  0
 15 16  2  0
 16 17  1  0
 16 18  1  0
 18 19  1  0
 18 20  2  0
 20 21  1  0
 20 22  1  0
 22 23  1  0
 22 24  2  0
 24 25  1  0
 12 26  1  0
 26 27  1  0
  6 28  1  0
 28 29  1  0
 28 30  2  0
 30 31  1  0
 30  2  1  0
 26  7  1  0
 24 15  1  0
M  END
>  <cnnaffinity>  (1) 
-5.11931

>  <filename>  (1) 
O=C(c1ccc(Cl)cc1)c1cc(=O)n(-c2cccnc2)[nH]1

$$$$
