
     RDKit          3D

 28 30  0  0  0  0  0  0  0  0999 V2000
    7.0157    0.8608   22.5644 O   0  0  0  0  0  0  0  0  0  0  0  0
    7.4099   -0.2547   22.2551 C   0  0  0  0  0  0  0  0  0  0  0  0
    7.3454   -0.6675   20.9340 N   0  0  0  0  0  0  0  0  0  0  0  0
    6.6772    0.0157   19.8992 C   0  0  0  0  0  0  0  0  0  0  0  0
    5.4669    0.6572   20.1678 C   0  0  0  0  0  0  0  0  0  0  0  0
    4.8279    1.3082   19.1053 C   0  0  0  0  0  0  0  0  0  0  0  0
    5.4016    1.2981   17.8225 C   0  0  0  0  0  0  0  0  0  0  0  0
    6.5619    0.6743   17.5500 N   0  0  0  0  0  0  0  0  0  0  0  0
    7.1793    0.0493   18.5760 C   0  0  0  0  0  0  0  0  0  0  0  0
    8.1258   -0.4430   18.3891 H   0  0  0  0  0  0  0  0  0  0  0  0
    4.8822    1.8031   17.0132 H   0  0  0  0  0  0  0  0  0  0  0  0
    3.8905    1.8265   19.2606 H   0  0  0  0  0  0  0  0  0  0  0  0
    5.0389    0.6295   21.1737 H   0  0  0  0  0  0  0  0  0  0  0  0
    7.8959   -1.4888   20.7090 H   0  0  0  0  0  0  0  0  0  0  0  0
    7.9507   -1.1717   23.2612 C   0  0  0  0  0  0  0  0  0  0  0  0
    8.1017   -0.9109   24.6074 C   0  0  0  0  0  0  0  0  0  0  0  0
    7.7015    0.6848   25.5986 Br  0  0  0  0  0  0  0  0  0  0  0  0
    8.6387   -2.1097   25.1845 C   0  0  0  0  0  0  0  0  0  0  0  0
    9.0085   -2.4711   26.4834 C   0  0  0  0  0  0  0  0  0  0  0  0
    9.5171   -3.7640   26.7061 C   0  0  0  0  0  0  0  0  0  0  0  0
    9.6515   -4.6698   25.6384 C   0  0  0  0  0  0  0  0  0  0  0  0
    9.2700   -4.2844   24.3457 C   0  0  0  0  0  0  0  0  0  0  0  0
    8.7685   -3.0056   24.1358 C   0  0  0  0  0  0  0  0  0  0  0  0
    8.3539   -2.4587   22.9562 O   0  0  0  0  0  0  0  0  0  0  0  0
    9.3515   -4.9555   23.4999 H   0  0  0  0  0  0  0  0  0  0  0  0
   10.0486   -5.6688   25.8104 H   0  0  0  0  0  0  0  0  0  0  0  0
    9.8171   -4.0711   27.7045 H   0  0  0  0  0  0  0  0  0  0  0  0
    8.9081   -1.7573   27.2994 H   0  0  0  0  0  0  0  0  0  0  0  0
  1  2  2  0
  2  3  1  0
  3  4  1  0
  4  5  2  0
  5  6  1  0
  6  7  2  0
  7  8  1  0
  8  9  2  0
  9 10  1  0
  7 11  1  0
  6 12  1  0
  5 13  1  0
  3 14  1  0
  2 15  1  0
 15 16  2  0
 16 17  1  0
 16 18  1  0
 18 19  2  0
 19 20  1  0
 20 21  2  0
 21 22  1  0
 22 23  2  0
 23 24  1  0
 22 25  1  0
 21 26  1  0
 20 27  1  0
 19 28  1  0
  9  4  1  0
 24 15  1  0
 23 18  1  0
M  END
>  <cnnaffinity>  (1) 
-4.95596

>  <filename>  (1) 
O=C(Nc1cccnc1)c1oc2ccccc2c1Br

$$$$
