
     RDKit          3D

 35 37  0  0  0  0  0  0  0  0999 V2000
    4.9404    1.8007   16.9812 H   0  0  0  0  0  0  0  0  0  0  0  0
    5.4107    1.3004   17.8256 C   0  0  0  0  0  0  0  0  0  0  0  0
    6.5717    0.6766   17.5731 N   0  0  0  0  0  0  0  0  0  0  0  0
    7.1790    0.0555   18.5919 C   0  0  0  0  0  0  0  0  0  0  0  0
    8.1138   -0.4338   18.3249 H   0  0  0  0  0  0  0  0  0  0  0  0
    6.6700   -0.0009   19.9058 C   0  0  0  0  0  0  0  0  0  0  0  0
    7.3350   -0.7335   21.0006 C   0  0  0  0  0  0  0  0  0  0  0  0
    6.8140   -1.2943   22.1142 C   0  0  0  0  0  0  0  0  0  0  0  0
    5.8210   -1.3760   22.5005 H   0  0  0  0  0  0  0  0  0  0  0  0
    7.8259   -1.8551   22.8649 N   0  0  0  0  0  0  0  0  0  0  0  0
    7.5426   -2.5931   24.0432 N   0  0  0  0  0  0  0  0  0  0  0  0
    8.2777   -3.2053   24.3567 H   0  0  0  0  0  0  0  0  0  0  0  0
    6.5370   -2.2529   24.9546 C   0  0  0  0  0  0  0  0  0  0  0  0
    5.8152   -1.2856   24.8435 O   0  0  0  0  0  0  0  0  0  0  0  0
    6.3971   -3.1866   25.9543 N   0  0  0  0  0  0  0  0  0  0  0  0
    7.1745   -3.7933   26.1164 H   0  0  0  0  0  0  0  0  0  0  0  0
    5.2931   -3.2669   26.8367 C   0  0  0  0  0  0  0  0  0  0  0  0
    4.0104   -2.8935   26.4026 C   0  0  0  0  0  0  0  0  0  0  0  0
    3.8883   -2.5678   25.3787 H   0  0  0  0  0  0  0  0  0  0  0  0
    2.9233   -2.9399   27.2760 C   0  0  0  0  0  0  0  0  0  0  0  0
    1.9227   -2.6792   26.9407 H   0  0  0  0  0  0  0  0  0  0  0  0
    3.1261   -3.3264   28.6029 C   0  0  0  0  0  0  0  0  0  0  0  0
    1.7698   -3.3573   29.6957 Cl  0  0  0  0  0  0  0  0  0  0  0  0
    4.3930   -3.7118   29.0503 C   0  0  0  0  0  0  0  0  0  0  0  0
    4.5240   -3.9869   30.0939 H   0  0  0  0  0  0  0  0  0  0  0  0
    5.4652   -3.7300   28.1474 C   0  0  0  0  0  0  0  0  0  0  0  0
    6.4263   -4.1238   28.4615 H   0  0  0  0  0  0  0  0  0  0  0  0
    9.0330   -1.6851   22.2037 C   0  0  0  0  0  0  0  0  0  0  0  0
   10.5523   -2.2034   22.6165 S   0  0  0  0  0  0  0  0  0  0  0  0
    8.7012   -0.9995   21.0744 N   0  0  0  0  0  0  0  0  0  0  0  0
    9.4567   -0.7309   20.4661 H   0  0  0  0  0  0  0  0  0  0  0  0
    5.4475    0.6596   20.1393 C   0  0  0  0  0  0  0  0  0  0  0  0
    5.0131    0.6668   21.1394 H   0  0  0  0  0  0  0  0  0  0  0  0
    4.8105    1.3171   19.0873 C   0  0  0  0  0  0  0  0  0  0  0  0
    3.8737    1.8470   19.2257 H   0  0  0  0  0  0  0  0  0  0  0  0
  1  2  1  0
  2  3  2  0
  3  4  1  0
  4  5  1  0
  4  6  2  0
  6  7  1  0
  7  8  2  0
  8  9  1  0
  8 10  1  0
 10 11  1  0
 11 12  1  0
 11 13  1  0
 13 14  2  0
 13 15  1  0
 15 16  1  0
 15 17  1  0
 17 18  2  0
 18 19  1  0
 18 20  1  0
 20 21  1  0
 20 22  2  0
 22 23  1  0
 22 24  1  0
 24 25  1  0
 24 26  2  0
 26 27  1  0
 10 28  1  0
 28 29  2  0
 28 30  1  0
 30 31  1  0
  6 32  1  0
 32 33  1  0
 32 34  2  0
 34 35  1  0
 34  2  1  0
 30  7  1  0
 26 17  1  0
M  END
>  <cnnaffinity>  (1) 
-5.14031

>  <filename>  (1) 
O=C(Nc1ccc(Cl)cc1)Nn1cc(-c2cccnc2)[nH]c1=S

$$$$
