
     RDKit          3D

 29 30  0  0  0  0  0  0  0  0999 V2000
    8.9343    0.2978   21.3254 H   0  0  0  0  0  0  0  0  0  0  0  0
    8.7034   -0.6113   21.0716 O   0  0  0  0  0  0  0  0  0  0  0  0
    7.2979   -0.6166   21.1421 N   0  0  0  0  0  0  0  0  0  0  0  0
    6.6409   -1.7039   21.8266 C   0  0  0  0  0  0  0  0  0  0  0  0
    5.6201   -2.1964   21.4160 O   0  0  0  0  0  0  0  0  0  0  0  0
    7.2718   -2.0571   22.9786 N   0  0  0  0  0  0  0  0  0  0  0  0
    8.1953   -1.7652   23.2196 H   0  0  0  0  0  0  0  0  0  0  0  0
    6.7685   -2.8653   23.9261 C   0  0  0  0  0  0  0  0  0  0  0  0
    7.6445   -3.0745   24.9021 N   0  0  0  0  0  0  0  0  0  0  0  0
    7.2070   -3.8769   25.8661 C   0  0  0  0  0  0  0  0  0  0  0  0
    7.9213   -4.0508   26.6621 H   0  0  0  0  0  0  0  0  0  0  0  0
    5.9371   -4.4654   25.8802 C   0  0  0  0  0  0  0  0  0  0  0  0
    5.6347   -5.1165   26.6857 H   0  0  0  0  0  0  0  0  0  0  0  0
    5.1177   -4.1573   24.7938 C   0  0  0  0  0  0  0  0  0  0  0  0
    3.6820   -4.7523   24.6569 C   0  0  0  0  0  0  0  0  0  0  0  0
    3.0677   -4.3969   23.5272 F   0  0  0  0  0  0  0  0  0  0  0  0
    3.7193   -6.1010   24.6896 F   0  0  0  0  0  0  0  0  0  0  0  0
    2.9037   -4.3695   25.6900 F   0  0  0  0  0  0  0  0  0  0  0  0
    5.5483   -3.3489   23.8228 N   0  0  0  0  0  0  0  0  0  0  0  0
    6.6717   -0.0024   20.0211 C   0  0  0  0  0  0  0  0  0  0  0  0
    7.2485    0.0198   18.7359 C   0  0  0  0  0  0  0  0  0  0  0  0
    8.2001   -0.4808   18.5502 H   0  0  0  0  0  0  0  0  0  0  0  0
    6.6629    0.6203   17.6927 N   0  0  0  0  0  0  0  0  0  0  0  0
    5.4885    1.2422   17.8994 C   0  0  0  0  0  0  0  0  0  0  0  0
    5.0468    1.7401   17.0367 H   0  0  0  0  0  0  0  0  0  0  0  0
    4.8398    1.2701   19.1391 C   0  0  0  0  0  0  0  0  0  0  0  0
    3.9033    1.8064   19.2532 H   0  0  0  0  0  0  0  0  0  0  0  0
    5.4279    0.6129   20.2197 C   0  0  0  0  0  0  0  0  0  0  0  0
    4.9624    0.5722   21.2052 H   0  0  0  0  0  0  0  0  0  0  0  0
  1  2  1  0
  2  3  1  0
  3  4  1  0
  4  5  2  0
  4  6  1  0
  6  7  1  0
  6  8  1  0
  8  9  2  0
  9 10  1  0
 10 11  1  0
 10 12  2  0
 12 13  1  0
 12 14  1  0
 14 15  1  0
 15 16  1  0
 15 17  1  0
 15 18  1  0
 14 19  2  0
  3 20  1  0
 20 21  2  0
 21 22  1  0
 21 23  1  0
 23 24  2  0
 24 25  1  0
 24 26  1  0
 26 27  1  0
 26 28  2  0
 28 29  1  0
 19  8  1  0
 28 20  1  0
M  END
>  <cnnaffinity>  (1) 
-5.1133

>  <filename>  (1) 
O=C(Nc1nccc(C(F)(F)F)n1)N(O)c1cccnc1

$$$$
