
     RDKit          3D

 40 42  0  0  0  0  0  0  0  0999 V2000
    5.6293   -1.9373   21.4275 O   0  0  0  0  0  0  0  0  0  0  0  0
    6.7560   -1.5611   21.7405 C   0  0  0  0  0  0  0  0  0  0  0  0
    7.4079   -0.7024   20.8443 N   0  0  0  0  0  0  0  0  0  0  0  0
    6.7595   -0.0030   19.7913 C   0  0  0  0  0  0  0  0  0  0  0  0
    5.5229    0.5882   20.0569 C   0  0  0  0  0  0  0  0  0  0  0  0
    4.8588    1.2582   19.0235 C   0  0  0  0  0  0  0  0  0  0  0  0
    5.4392    1.3341   17.7519 C   0  0  0  0  0  0  0  0  0  0  0  0
    6.6406    0.7931   17.4781 N   0  0  0  0  0  0  0  0  0  0  0  0
    7.2848    0.1494   18.4779 C   0  0  0  0  0  0  0  0  0  0  0  0
    8.2463   -0.2916   18.2359 H   0  0  0  0  0  0  0  0  0  0  0  0
    4.9001    1.8432   16.9588 H   0  0  0  0  0  0  0  0  0  0  0  0
    3.8962    1.7263   19.1936 H   0  0  0  0  0  0  0  0  0  0  0  0
    5.1059    0.5368   21.0611 H   0  0  0  0  0  0  0  0  0  0  0  0
    8.3950   -0.5273   21.0053 H   0  0  0  0  0  0  0  0  0  0  0  0
    7.4960   -2.0928   23.0403 C   0  0  0  0  0  0  0  0  0  0  0  0
    8.6526   -3.0235   22.6197 C   0  0  0  0  0  0  0  0  0  0  0  0
    9.6107   -3.3172   23.7868 C   0  0  0  0  0  0  0  0  0  0  0  0
    8.8429   -3.9005   24.9771 C   0  0  0  0  0  0  0  0  0  0  0  0
    7.7060   -2.9501   25.3714 C   0  0  0  0  0  0  0  0  0  0  0  0
    6.8191   -2.7851   24.1998 N   0  0  0  0  0  0  0  0  0  0  0  0
    5.8368   -4.2211   23.9155 S   0  0  0  0  0  0  0  0  0  0  0  0
    5.8415   -4.5776   22.4850 O   0  0  0  0  0  0  0  0  0  0  0  0
    6.2603   -5.3441   24.7623 O   0  0  0  0  0  0  0  0  0  0  0  0
    4.1791   -3.7060   24.3832 C   0  0  0  0  0  0  0  0  0  0  0  0
    3.7437   -2.5699   25.0233 C   0  0  0  0  0  0  0  0  0  0  0  0
    2.2988   -2.4983   25.0042 C   0  0  0  0  0  0  0  0  0  0  0  0
    1.7195   -3.5937   24.3983 C   0  0  0  0  0  0  0  0  0  0  0  0
   -0.1638   -3.8008   24.0810 Br  0  0  0  0  0  0  0  0  0  0  0  0
    2.9117   -4.7668   23.8480 S   0  0  0  0  0  0  0  0  0  0  0  0
    1.7580   -1.6460   25.4010 H   0  0  0  0  0  0  0  0  0  0  0  0
    4.3759   -1.7804   25.4319 H   0  0  0  0  0  0  0  0  0  0  0  0
    8.1314   -1.9788   25.6551 H   0  0  0  0  0  0  0  0  0  0  0  0
    7.1744   -3.3344   26.2490 H   0  0  0  0  0  0  0  0  0  0  0  0
    8.4377   -4.8788   24.7002 H   0  0  0  0  0  0  0  0  0  0  0  0
    9.5218   -4.0514   25.8227 H   0  0  0  0  0  0  0  0  0  0  0  0
   10.1100   -2.3928   24.0938 H   0  0  0  0  0  0  0  0  0  0  0  0
   10.3835   -4.0211   23.4666 H   0  0  0  0  0  0  0  0  0  0  0  0
    8.2452   -3.9704   22.2516 H   0  0  0  0  0  0  0  0  0  0  0  0
    9.2176   -2.5579   21.8083 H   0  0  0  0  0  0  0  0  0  0  0  0
    7.9274   -1.1819   23.4701 H   0  0  0  0  0  0  0  0  0  0  0  0
  1  2  2  0
  2  3  1  0
  3  4  1  0
  4  5  2  0
  5  6  1  0
  6  7  2  0
  7  8  1  0
  8  9  2  0
  9 10  1  0
  7 11  1  0
  6 12  1  0
  5 13  1  0
  3 14  1  0
  2 15  1  0
 15 16  1  0
 16 17  1  0
 17 18  1  0
 18 19  1  0
 19 20  1  0
 20 21  1  0
 21 22  2  0
 21 23  2  0
 21 24  1  0
 24 25  2  0
 25 26  1  0
 26 27  2  0
 27 28  1  0
 27 29  1  0
 26 30  1  0
 25 31  1  0
 19 32  1  0
 19 33  1  0
 18 34  1  0
 18 35  1  0
 17 36  1  0
 17 37  1  0
 16 38  1  0
 16 39  1  0
 15 40  1  0
  9  4  1  0
 20 15  1  0
 29 24  1  0
M  END
>  <cnnaffinity>  (1) 
-5.78165

>  <filename>  (1) 
O=C(Nc1cccnc1)C1CCCCN1S(=O)(=O)c1ccc(Br)s1

$$$$
