
     RDKit          3D

 31 33  0  0  0  0  0  0  0  0999 V2000
    4.4653    4.1701   25.1020 H   0  0  0  0  0  0  0  0  0  0  0  0
    5.1690    4.3706   24.2936 C   0  0  0  0  0  0  0  0  0  0  0  0
    5.8309    3.3070   23.8264 N   0  0  0  0  0  0  0  0  0  0  0  0
    6.7357    3.4782   22.8305 C   0  0  0  0  0  0  0  0  0  0  0  0
    7.4710    2.2336   22.2650 C   0  0  0  0  0  0  0  0  0  0  0  0
    8.2681    2.2693   21.3452 O   0  0  0  0  0  0  0  0  0  0  0  0
    7.1009    1.0698   22.9089 N   0  0  0  0  0  0  0  0  0  0  0  0
    6.3281    1.1416   23.5573 H   0  0  0  0  0  0  0  0  0  0  0  0
    7.4193   -0.1954   22.4589 N   0  0  0  0  0  0  0  0  0  0  0  0
    7.2373   -0.6639   21.1410 C   0  0  0  0  0  0  0  0  0  0  0  0
    6.5570    0.0570   20.0489 C   0  0  0  0  0  0  0  0  0  0  0  0
    7.1574    0.0829   18.7802 C   0  0  0  0  0  0  0  0  0  0  0  0
    8.1218   -0.4050   18.6447 H   0  0  0  0  0  0  0  0  0  0  0  0
    6.6326    0.6744   17.7000 N   0  0  0  0  0  0  0  0  0  0  0  0
    5.4488    1.2866   17.8574 C   0  0  0  0  0  0  0  0  0  0  0  0
    5.0323    1.7511   16.9654 H   0  0  0  0  0  0  0  0  0  0  0  0
    4.7574    1.3331   19.0742 C   0  0  0  0  0  0  0  0  0  0  0  0
    3.8079    1.8540   19.1339 H   0  0  0  0  0  0  0  0  0  0  0  0
    5.3186    0.7089   20.1890 C   0  0  0  0  0  0  0  0  0  0  0  0
    4.8236    0.7154   21.1613 H   0  0  0  0  0  0  0  0  0  0  0  0
    7.8320   -1.8617   21.1271 C   0  0  0  0  0  0  0  0  0  0  0  0
    7.9243   -2.5969   20.3559 H   0  0  0  0  0  0  0  0  0  0  0  0
    8.3597   -2.1781   22.3499 O   0  0  0  0  0  0  0  0  0  0  0  0
    8.1299   -1.1432   23.2143 C   0  0  0  0  0  0  0  0  0  0  0  0
    8.4677   -1.1163   24.3650 O   0  0  0  0  0  0  0  0  0  0  0  0
    6.9840    4.7419   22.2739 C   0  0  0  0  0  0  0  0  0  0  0  0
    7.7039    4.8395   21.4687 H   0  0  0  0  0  0  0  0  0  0  0  0
    6.2794    5.8475   22.7609 C   0  0  0  0  0  0  0  0  0  0  0  0
    6.4398    6.8362   22.3319 H   0  0  0  0  0  0  0  0  0  0  0  0
    5.3545    5.6614   23.7914 C   0  0  0  0  0  0  0  0  0  0  0  0
    4.7851    6.4855   24.2081 H   0  0  0  0  0  0  0  0  0  0  0  0
  1  2  1  0
  2  3  2  0
  3  4  1  0
  4  5  1  0
  5  6  2  0
  5  7  1  0
  7  8  1  0
  7  9  1  0
  9 10  1  0
 10 11  1  0
 11 12  2  0
 12 13  1  0
 12 14  1  0
 14 15  2  0
 15 16  1  0
 15 17  1  0
 17 18  1  0
 17 19  2  0
 19 20  1  0
 10 21  2  0
 21 22  1  0
 21 23  1  0
 23 24  1  0
 24 25  2  0
  4 26  2  0
 26 27  1  0
 26 28  1  0
 28 29  1  0
 28 30  2  0
 30 31  1  0
 30  2  1  0
 24  9  1  0
 19 11  1  0
M  END
>  <cnnaffinity>  (1) 
-4.8979

>  <filename>  (1) 
O=C(Nn1c(-c2cccnc2)coc1=O)c1ccccn1

$$$$
