
     RDKit          3D

 30 31  0  0  0  0  0  0  0  0999 V2000
    9.4992    1.3231   27.5336 H   0  0  0  0  0  0  0  0  0  0  0  0
    8.7275    1.3142   26.9453 O   0  0  0  0  0  0  0  0  0  0  0  0
    8.9868    0.5021   25.8468 C   0  0  0  0  0  0  0  0  0  0  0  0
   10.1029    0.6916   25.0341 C   0  0  0  0  0  0  0  0  0  0  0  0
   10.8115    1.4743   25.2956 H   0  0  0  0  0  0  0  0  0  0  0  0
   10.2485   -0.0578   23.8590 C   0  0  0  0  0  0  0  0  0  0  0  0
   11.1448    0.0609   23.2582 H   0  0  0  0  0  0  0  0  0  0  0  0
    9.2661   -0.9768   23.4722 C   0  0  0  0  0  0  0  0  0  0  0  0
    9.3235   -1.6391   22.1125 C   0  0  0  0  0  0  0  0  0  0  0  0
   10.3534   -1.8899   21.8451 H   0  0  0  0  0  0  0  0  0  0  0  0
    8.7312   -2.5645   22.0977 H   0  0  0  0  0  0  0  0  0  0  0  0
    8.8218   -0.6875   21.0279 C   0  0  0  0  0  0  0  0  0  0  0  0
    9.5663    0.0028   20.3591 O   0  0  0  0  0  0  0  0  0  0  0  0
    7.4532   -0.6720   20.8691 N   0  0  0  0  0  0  0  0  0  0  0  0
    6.9191   -0.9904   21.6600 H   0  0  0  0  0  0  0  0  0  0  0  0
    6.7367   -0.0031   19.8497 C   0  0  0  0  0  0  0  0  0  0  0  0
    7.2024    0.0594   18.5141 C   0  0  0  0  0  0  0  0  0  0  0  0
    8.1388   -0.4312   18.2594 H   0  0  0  0  0  0  0  0  0  0  0  0
    6.5513    0.6860   17.5266 N   0  0  0  0  0  0  0  0  0  0  0  0
    5.3944    1.2952   17.8361 C   0  0  0  0  0  0  0  0  0  0  0  0
    4.8976    1.8112   17.0189 H   0  0  0  0  0  0  0  0  0  0  0  0
    4.8340    1.2751   19.1192 C   0  0  0  0  0  0  0  0  0  0  0  0
    3.8944    1.7889   19.3010 H   0  0  0  0  0  0  0  0  0  0  0  0
    5.5084    0.6026   20.1449 C   0  0  0  0  0  0  0  0  0  0  0  0
    5.1033    0.5639   21.1576 H   0  0  0  0  0  0  0  0  0  0  0  0
    8.1723   -1.2009   24.3185 C   0  0  0  0  0  0  0  0  0  0  0  0
    7.4365   -1.9717   24.1027 H   0  0  0  0  0  0  0  0  0  0  0  0
    8.0182   -0.4717   25.4977 C   0  0  0  0  0  0  0  0  0  0  0  0
    6.9263   -0.7140   26.2790 O   0  0  0  0  0  0  0  0  0  0  0  0
    6.9465   -0.0349   26.9721 H   0  0  0  0  0  0  0  0  0  0  0  0
  1  2  1  0
  2  3  1  0
  3  4  2  0
  4  5  1  0
  4  6  1  0
  6  7  1  0
  6  8  2  0
  8  9  1  0
  9 10  1  0
  9 11  1  0
  9 12  1  0
 12 13  2  0
 12 14  1  0
 14 15  1  0
 14 16  1  0
 16 17  2  0
 17 18  1  0
 17 19  1  0
 19 20  2  0
 20 21  1  0
 20 22  1  0
 22 23  1  0
 22 24  2  0
 24 25  1  0
  8 26  1  0
 26 27  1  0
 26 28  2  0
 28 29  1  0
 29 30  1  0
 28  3  1  0
 24 16  1  0
M  END
>  <cnnaffinity>  (1) 
-5.00138

>  <filename>  (1) 
O=C(Cc1ccc(O)c(O)c1)Nc1cccnc1

$$$$
