
     RDKit          3D

 31 32  0  0  0  0  0  0  0  0999 V2000
    4.8988    1.8936   16.8221 H   0  0  0  0  0  0  0  0  0  0  0  0
    5.3947    1.4210   17.6686 C   0  0  0  0  0  0  0  0  0  0  0  0
    6.5739    0.8371   17.4095 N   0  0  0  0  0  0  0  0  0  0  0  0
    7.2052    0.2468   18.4279 C   0  0  0  0  0  0  0  0  0  0  0  0
    8.1618   -0.2142   18.1926 H   0  0  0  0  0  0  0  0  0  0  0  0
    6.6889    0.1946   19.7293 C   0  0  0  0  0  0  0  0  0  0  0  0
    7.3776   -0.6103   20.7978 C   0  0  0  0  0  0  0  0  0  0  0  0
    8.6954   -0.7865   20.4791 F   0  0  0  0  0  0  0  0  0  0  0  0
    7.3789    0.1045   21.9792 F   0  0  0  0  0  0  0  0  0  0  0  0
    6.7346   -2.0283   21.0587 C   0  0  0  0  0  0  0  0  0  0  0  0
    6.0758   -2.6089   20.2158 O   0  0  0  0  0  0  0  0  0  0  0  0
    7.0491   -2.5494   22.2802 N   0  0  0  0  0  0  0  0  0  0  0  0
    7.2898   -1.9293   23.0450 H   0  0  0  0  0  0  0  0  0  0  0  0
    6.6923   -3.8472   22.6504 N   0  0  0  0  0  0  0  0  0  0  0  0
    6.0180   -4.3071   22.0512 H   0  0  0  0  0  0  0  0  0  0  0  0
    6.5847   -4.2153   23.9763 C   0  0  0  0  0  0  0  0  0  0  0  0
    7.0078   -3.5400   24.8907 O   0  0  0  0  0  0  0  0  0  0  0  0
    5.8972   -5.5850   24.1208 C   0  0  0  0  0  0  0  0  0  0  0  0
    5.0749   -5.9130   25.2163 C   0  0  0  0  0  0  0  0  0  0  0  0
    4.9231   -5.2110   26.0308 H   0  0  0  0  0  0  0  0  0  0  0  0
    4.4687   -7.1799   25.2632 C   0  0  0  0  0  0  0  0  0  0  0  0
    3.8292   -7.4640   26.0974 H   0  0  0  0  0  0  0  0  0  0  0  0
    4.6514   -8.1252   24.3326 N   0  0  0  0  0  0  0  0  0  0  0  0
    5.4723   -7.8358   23.3172 C   0  0  0  0  0  0  0  0  0  0  0  0
    5.7359   -8.6526   22.6519 H   0  0  0  0  0  0  0  0  0  0  0  0
    6.0909   -6.5957   23.1540 C   0  0  0  0  0  0  0  0  0  0  0  0
    6.7932   -6.4801   22.3349 H   0  0  0  0  0  0  0  0  0  0  0  0
    5.4601    0.8097   19.9942 C   0  0  0  0  0  0  0  0  0  0  0  0
    5.0371    0.8067   20.9999 H   0  0  0  0  0  0  0  0  0  0  0  0
    4.7999    1.4308   18.9343 C   0  0  0  0  0  0  0  0  0  0  0  0
    3.8473    1.9274   19.0732 H   0  0  0  0  0  0  0  0  0  0  0  0
  1  2  1  0
  2  3  2  0
  3  4  1  0
  4  5  1  0
  4  6  2  0
  6  7  1  0
  7  8  1  0
  7  9  1  0
  7 10  1  0
 10 11  2  0
 10 12  1  0
 12 13  1  0
 12 14  1  0
 14 15  1  0
 14 16  1  0
 16 17  2  0
 16 18  1  0
 18 19  2  0
 19 20  1  0
 19 21  1  0
 21 22  1  0
 21 23  2  0
 23 24  1  0
 24 25  1  0
 24 26  2  0
 26 27  1  0
  6 28  1  0
 28 29  1  0
 28 30  2  0
 30 31  1  0
 30  2  1  0
 26 18  1  0
M  END
>  <cnnaffinity>  (1) 
-4.79116

>  <filename>  (1) 
O=C(NNC(=O)C(F)(F)c1cccnc1)c1ccncc1

$$$$
