
     RDKit          3D

 43 45  0  0  0  0  0  0  0  0999 V2000
   10.0749    1.1267   25.8328 O   0  0  0  0  0  0  0  0  0  0  0  0
    9.4190    1.3341   24.8320 C   0  0  0  0  0  0  0  0  0  0  0  0
    9.8505    0.7562   23.4961 C   0  0  0  0  0  0  0  0  0  0  0  0
    9.4639   -0.7389   23.3810 C   0  0  0  0  0  0  0  0  0  0  0  0
    7.9480   -0.9955   23.3654 C   0  0  0  0  0  0  0  0  0  0  0  0
    7.2629   -0.3508   22.2578 N   0  0  0  0  0  0  0  0  0  0  0  0
    7.4251   -0.7432   20.9717 C   0  0  0  0  0  0  0  0  0  0  0  0
    8.1555   -1.6707   20.6492 O   0  0  0  0  0  0  0  0  0  0  0  0
    6.6528    0.0470   19.9741 C   0  0  0  0  0  0  0  0  0  0  0  0
    5.4243    0.6932   20.1997 C   0  0  0  0  0  0  0  0  0  0  0  0
    4.7996    1.3190   19.1223 C   0  0  0  0  0  0  0  0  0  0  0  0
    5.4154    1.2799   17.8656 C   0  0  0  0  0  0  0  0  0  0  0  0
    6.5787    0.6537   17.6387 N   0  0  0  0  0  0  0  0  0  0  0  0
    7.1724    0.0561   18.6764 C   0  0  0  0  0  0  0  0  0  0  0  0
    8.1062   -0.4558   18.4518 H   0  0  0  0  0  0  0  0  0  0  0  0
    4.9679    1.7672   17.0003 H   0  0  0  0  0  0  0  0  0  0  0  0
    3.8575    1.8467   19.2327 H   0  0  0  0  0  0  0  0  0  0  0  0
    4.9249    0.6764   21.1728 H   0  0  0  0  0  0  0  0  0  0  0  0
    6.7629    0.5080   22.3952 H   0  0  0  0  0  0  0  0  0  0  0  0
    7.4879   -0.6384   24.2955 H   0  0  0  0  0  0  0  0  0  0  0  0
    7.7816   -2.0780   23.2992 H   0  0  0  0  0  0  0  0  0  0  0  0
    9.8870   -1.1699   22.4636 H   0  0  0  0  0  0  0  0  0  0  0  0
    9.9020   -1.2917   24.2256 H   0  0  0  0  0  0  0  0  0  0  0  0
   10.9403    0.8525   23.4740 H   0  0  0  0  0  0  0  0  0  0  0  0
    9.4500    1.3243   22.6485 H   0  0  0  0  0  0  0  0  0  0  0  0
    8.2215    2.0310   24.8371 N   0  0  0  0  0  0  0  0  0  0  0  0
    7.5356    2.4535   26.0100 C   0  0  0  0  0  0  0  0  0  0  0  0
    6.8659    3.7470   26.1064 C   0  0  0  0  0  0  0  0  0  0  0  0
    6.9213    4.6304   25.0604 N   0  0  0  0  0  0  0  0  0  0  0  0
    6.3256    5.7963   25.1962 C   0  0  0  0  0  0  0  0  0  0  0  0
    5.6020    6.1940   26.3559 C   0  0  0  0  0  0  0  0  0  0  0  0
    5.5143    5.3222   27.4137 C   0  0  0  0  0  0  0  0  0  0  0  0
    6.1562    4.0537   27.3207 C   0  0  0  0  0  0  0  0  0  0  0  0
    6.1028    3.0944   28.3708 C   0  0  0  0  0  0  0  0  0  0  0  0
    6.7332    1.8856   28.2189 C   0  0  0  0  0  0  0  0  0  0  0  0
    6.6588    0.7139   29.4972 Cl  0  0  0  0  0  0  0  0  0  0  0  0
    7.4595    1.5585   27.0532 C   0  0  0  0  0  0  0  0  0  0  0  0
    7.9600    0.6009   26.9721 H   0  0  0  0  0  0  0  0  0  0  0  0
    5.5663    3.3125   29.2874 H   0  0  0  0  0  0  0  0  0  0  0  0
    4.9633    5.5602   28.3257 H   0  0  0  0  0  0  0  0  0  0  0  0
    5.1310    7.1697   26.3758 H   0  0  0  0  0  0  0  0  0  0  0  0
    6.4107    6.4807   24.3540 H   0  0  0  0  0  0  0  0  0  0  0  0
    7.9940    2.5437   23.9983 H   0  0  0  0  0  0  0  0  0  0  0  0
  1  2  2  0
  2  3  1  0
  3  4  1  0
  4  5  1  0
  5  6  1  0
  6  7  1  0
  7  8  2  0
  7  9  1  0
  9 10  2  0
 10 11  1  0
 11 12  2  0
 12 13  1  0
 13 14  2  0
 14 15  1  0
 12 16  1  0
 11 17  1  0
 10 18  1  0
  6 19  1  0
  5 20  1  0
  5 21  1  0
  4 22  1  0
  4 23  1  0
  3 24  1  0
  3 25  1  0
  2 26  1  0
 26 27  1  0
 27 28  1  0
 28 29  2  0
 29 30  1  0
 30 31  2  0
 31 32  1  0
 32 33  2  0
 33 34  1  0
 34 35  2  0
 35 36  1  0
 35 37  1  0
 37 38  1  0
 34 39  1  0
 32 40  1  0
 31 41  1  0
 30 42  1  0
 26 43  1  0
 14  9  1  0
 37 27  2  0
 33 28  1  0
M  END
>  <cnnaffinity>  (1) 
-5.81655

>  <filename>  (1) 
O=C(CCCNC(=O)c1cccnc1)Nc1cc(Cl)cc2cccnc12

$$$$
