
     RDKit          3D

 31 33  0  0  0  0  0  0  0  0999 V2000
    7.6871    1.1178   22.6324 O   0  0  0  0  0  0  0  0  0  0  0  0
    8.3029    0.5801   21.7155 C   0  0  0  0  0  0  0  0  0  0  0  0
    9.5844    1.0695   21.4033 N   0  0  0  0  0  0  0  0  0  0  0  0
   10.1072    2.2551   21.9270 C   0  0  0  0  0  0  0  0  0  0  0  0
    9.2601    3.1954   22.5176 C   0  0  0  0  0  0  0  0  0  0  0  0
    9.7849    4.3822   23.0042 C   0  0  0  0  0  0  0  0  0  0  0  0
   11.1298    4.6474   22.9563 C   0  0  0  0  0  0  0  0  0  0  0  0
   11.2569    5.9742   23.5340 C   0  0  0  0  0  0  0  0  0  0  0  0
   10.0842    6.4666   23.8813 N   0  0  0  0  0  0  0  0  0  0  0  0
    9.1835    5.4863   23.5669 N   0  0  0  0  0  0  0  0  0  0  0  0
    8.1717    5.5705   23.6681 H   0  0  0  0  0  0  0  0  0  0  0  0
   12.1973    6.5086   23.6355 H   0  0  0  0  0  0  0  0  0  0  0  0
   12.0070    3.7113   22.4011 C   0  0  0  0  0  0  0  0  0  0  0  0
   13.8810    4.0591   22.3971 Br  0  0  0  0  0  0  0  0  0  0  0  0
   11.4825    2.5224   21.8620 C   0  0  0  0  0  0  0  0  0  0  0  0
   12.1401    1.7961   21.4019 H   0  0  0  0  0  0  0  0  0  0  0  0
    8.1946    3.0181   22.5877 H   0  0  0  0  0  0  0  0  0  0  0  0
   10.1874    0.5132   20.8044 H   0  0  0  0  0  0  0  0  0  0  0  0
    7.5898   -0.5615   20.9046 C   0  0  0  0  0  0  0  0  0  0  0  0
    6.7808   -1.3349   21.6932 F   0  0  0  0  0  0  0  0  0  0  0  0
    8.5054   -1.4091   20.3550 F   0  0  0  0  0  0  0  0  0  0  0  0
    6.7386    0.0212   19.7883 C   0  0  0  0  0  0  0  0  0  0  0  0
    5.5413    0.6985   20.0595 C   0  0  0  0  0  0  0  0  0  0  0  0
    4.8818    1.3127   18.9957 C   0  0  0  0  0  0  0  0  0  0  0  0
    5.4179    1.2263   17.7068 C   0  0  0  0  0  0  0  0  0  0  0  0
    6.5332    0.5254   17.4323 N   0  0  0  0  0  0  0  0  0  0  0  0
    7.1668   -0.0718   18.4531 C   0  0  0  0  0  0  0  0  0  0  0  0
    8.0702   -0.6349   18.2389 H   0  0  0  0  0  0  0  0  0  0  0  0
    4.9228    1.7610   16.9027 H   0  0  0  0  0  0  0  0  0  0  0  0
    3.9682    1.8807   19.1528 H   0  0  0  0  0  0  0  0  0  0  0  0
    5.1313    0.7661   21.0686 H   0  0  0  0  0  0  0  0  0  0  0  0
  1  2  2  0
  2  3  1  0
  3  4  1  0
  4  5  2  0
  5  6  1  0
  6  7  2  0
  7  8  1  0
  8  9  2  0
  9 10  1  0
 10 11  1  0
  8 12  1  0
  7 13  1  0
 13 14  1  0
 13 15  2  0
 15 16  1  0
  5 17  1  0
  3 18  1  0
  2 19  1  0
 19 20  1  0
 19 21  1  0
 19 22  1  0
 22 23  2  0
 23 24  1  0
 24 25  2  0
 25 26  1  0
 26 27  2  0
 27 28  1  0
 25 29  1  0
 24 30  1  0
 23 31  1  0
 15  4  1  0
 27 22  1  0
 10  6  1  0
M  END
>  <cnnaffinity>  (1) 
-5.07173

>  <filename>  (1) 
O=C(Nc1cc(Br)c2cn[nH]c2c1)C(F)(F)c1cccnc1

$$$$
