
     RDKit          3D

 26 28  0  0  0  0  0  0  0  0999 V2000
    4.9589    1.7962   16.9819 H   0  0  0  0  0  0  0  0  0  0  0  0
    5.4051    1.2848   17.8345 C   0  0  0  0  0  0  0  0  0  0  0  0
    6.5620    0.6497   17.5915 N   0  0  0  0  0  0  0  0  0  0  0  0
    7.1604    0.0380   18.6152 C   0  0  0  0  0  0  0  0  0  0  0  0
    8.1039   -0.4519   18.3818 H   0  0  0  0  0  0  0  0  0  0  0  0
    6.6541    0.0248   19.9237 C   0  0  0  0  0  0  0  0  0  0  0  0
    7.4054   -0.6661   20.9533 C   0  0  0  0  0  0  0  0  0  0  0  0
    8.0339   -1.8644   20.7352 N   0  0  0  0  0  0  0  0  0  0  0  0
    8.4511   -2.2223   21.9163 C   0  0  0  0  0  0  0  0  0  0  0  0
    9.2971   -3.5749   22.6063 S   0  0  0  0  0  0  0  0  0  0  0  0
    9.4553   -2.7406   24.1329 C   0  0  0  0  0  0  0  0  0  0  0  0
   10.0554   -3.2158   24.8991 H   0  0  0  0  0  0  0  0  0  0  0  0
    8.7885   -1.5694   24.1312 C   0  0  0  0  0  0  0  0  0  0  0  0
    8.6439   -0.8449   24.9217 H   0  0  0  0  0  0  0  0  0  0  0  0
    8.1997   -1.3051   22.9009 N   0  0  0  0  0  0  0  0  0  0  0  0
    7.5264   -0.2738   22.2819 C   0  0  0  0  0  0  0  0  0  0  0  0
    7.1165    1.0005   22.8541 C   0  0  0  0  0  0  0  0  0  0  0  0
    7.1390    2.0081   22.1789 O   0  0  0  0  0  0  0  0  0  0  0  0
    6.6742    1.0597   24.3725 C   0  0  0  0  0  0  0  0  0  0  0  0
    5.7456    1.9853   24.6104 F   0  0  0  0  0  0  0  0  0  0  0  0
    6.1833   -0.1167   24.7943 F   0  0  0  0  0  0  0  0  0  0  0  0
    7.7523    1.3358   25.1333 F   0  0  0  0  0  0  0  0  0  0  0  0
    5.4228    0.6661   20.1573 C   0  0  0  0  0  0  0  0  0  0  0  0
    4.9570    0.6775   21.1448 H   0  0  0  0  0  0  0  0  0  0  0  0
    4.7966    1.3071   19.0926 C   0  0  0  0  0  0  0  0  0  0  0  0
    3.8665    1.8466   19.2291 H   0  0  0  0  0  0  0  0  0  0  0  0
  1  2  1  0
  2  3  2  0
  3  4  1  0
  4  5  1  0
  4  6  2  0
  6  7  1  0
  7  8  1  0
  8  9  2  0
  9 10  1  0
 10 11  1  0
 11 12  1  0
 11 13  2  0
 13 14  1  0
 13 15  1  0
 15 16  1  0
 16 17  1  0
 17 18  2  0
 17 19  1  0
 19 20  1  0
 19 21  1  0
 19 22  1  0
  6 23  1  0
 23 24  1  0
 23 25  2  0
 25 26  1  0
 25  2  1  0
 16  7  2  0
 15  9  1  0
M  END
>  <cnnaffinity>  (1) 
-5.23512

>  <filename>  (1) 
O=C(c1c(-c2cccnc2)nc2sccn12)C(F)(F)F

$$$$
