
     RDKit          3D

 32 34  0  0  0  0  0  0  0  0999 V2000
    4.9207    1.8017   16.9150 H   0  0  0  0  0  0  0  0  0  0  0  0
    5.3923    1.3458   17.7894 C   0  0  0  0  0  0  0  0  0  0  0  0
    6.5669    0.7262   17.5886 N   0  0  0  0  0  0  0  0  0  0  0  0
    7.1446    0.1298   18.6420 C   0  0  0  0  0  0  0  0  0  0  0  0
    8.0979   -0.3550   18.4345 H   0  0  0  0  0  0  0  0  0  0  0  0
    6.6125    0.1166   19.9464 C   0  0  0  0  0  0  0  0  0  0  0  0
    7.2856   -0.5942   21.0663 C   0  0  0  0  0  0  0  0  0  0  0  0
    7.6455   -0.0678   22.2924 C   0  0  0  0  0  0  0  0  0  0  0  0
    7.3585    1.2263   22.9429 C   0  0  0  0  0  0  0  0  0  0  0  0
    7.1527    1.3216   24.1424 O   0  0  0  0  0  0  0  0  0  0  0  0
    7.3864    2.2888   22.0878 N   0  0  0  0  0  0  0  0  0  0  0  0
    7.4614    2.0657   21.1099 H   0  0  0  0  0  0  0  0  0  0  0  0
    6.9445    3.5827   22.3909 C   0  0  0  0  0  0  0  0  0  0  0  0
    6.2388    4.2837   21.4135 C   0  0  0  0  0  0  0  0  0  0  0  0
    6.0056    3.7617   20.4894 H   0  0  0  0  0  0  0  0  0  0  0  0
    5.8123    5.5956   21.6541 C   0  0  0  0  0  0  0  0  0  0  0  0
    5.2969    6.1719   20.8884 H   0  0  0  0  0  0  0  0  0  0  0  0
    6.0630    6.1700   22.9019 C   0  0  0  0  0  0  0  0  0  0  0  0
    5.4952    7.7838   23.2340 Cl  0  0  0  0  0  0  0  0  0  0  0  0
    6.7487    5.4583   23.8940 C   0  0  0  0  0  0  0  0  0  0  0  0
    6.9150    5.9111   24.8653 H   0  0  0  0  0  0  0  0  0  0  0  0
    7.1944    4.1603   23.6358 C   0  0  0  0  0  0  0  0  0  0  0  0
    7.7175    3.5840   24.3884 H   0  0  0  0  0  0  0  0  0  0  0  0
    8.4973   -1.2031   23.2657 S   0  0  0  0  0  0  0  0  0  0  0  0
    8.3259   -2.4156   22.0790 C   0  0  0  0  0  0  0  0  0  0  0  0
    8.6997   -3.4146   22.2569 H   0  0  0  0  0  0  0  0  0  0  0  0
    7.6454   -1.9674   20.9924 C   0  0  0  0  0  0  0  0  0  0  0  0
    7.3153   -2.5826   20.1708 H   0  0  0  0  0  0  0  0  0  0  0  0
    5.3974    0.7868   20.1350 C   0  0  0  0  0  0  0  0  0  0  0  0
    4.9415    0.8008   21.1232 H   0  0  0  0  0  0  0  0  0  0  0  0
    4.7763    1.3959   19.0413 C   0  0  0  0  0  0  0  0  0  0  0  0
    3.8207    1.8974   19.1403 H   0  0  0  0  0  0  0  0  0  0  0  0
  1  2  1  0
  2  3  2  0
  3  4  1  0
  4  5  1  0
  4  6  2  0
  6  7  1  0
  7  8  2  0
  8  9  1  0
  9 10  2  0
  9 11  1  0
 11 12  1  0
 11 13  1  0
 13 14  2  0
 14 15  1  0
 14 16  1  0
 16 17  1  0
 16 18  2  0
 18 19  1  0
 18 20  1  0
 20 21  1  0
 20 22  2  0
 22 23  1  0
  8 24  1  0
 24 25  1  0
 25 26  1  0
 25 27  2  0
 27 28  1  0
  6 29  1  0
 29 30  1  0
 29 31  2  0
 31 32  1  0
 31  2  1  0
 27  7  1  0
 22 13  1  0
M  END
>  <cnnaffinity>  (1) 
-4.95028

>  <filename>  (1) 
O=C(Nc1ccc(Cl)cc1)c1sccc1-c1cccnc1

$$$$
