
     RDKit          3D

 32 34  0  0  0  0  0  0  0  0999 V2000
    9.4776    1.0445   20.6808 O   0  0  0  0  0  0  0  0  0  0  0  0
    8.8541    1.1193   21.7228 C   0  0  0  0  0  0  0  0  0  0  0  0
    7.8650    0.2708   22.0254 O   0  0  0  0  0  0  0  0  0  0  0  0
    7.4314   -0.6544   21.0106 C   0  0  0  0  0  0  0  0  0  0  0  0
    6.6720    0.0273   19.9012 C   0  0  0  0  0  0  0  0  0  0  0  0
    5.4452    0.6574   20.1518 C   0  0  0  0  0  0  0  0  0  0  0  0
    4.8046    1.3090   19.0987 C   0  0  0  0  0  0  0  0  0  0  0  0
    5.3978    1.2916   17.8321 C   0  0  0  0  0  0  0  0  0  0  0  0
    6.5584    0.6756   17.5689 N   0  0  0  0  0  0  0  0  0  0  0  0
    7.1733    0.0724   18.5974 C   0  0  0  0  0  0  0  0  0  0  0  0
    8.1282   -0.4062   18.3719 H   0  0  0  0  0  0  0  0  0  0  0  0
    4.9208    1.7891   16.9883 H   0  0  0  0  0  0  0  0  0  0  0  0
    3.8740    1.8413   19.2492 H   0  0  0  0  0  0  0  0  0  0  0  0
    5.0222    0.6416   21.1593 H   0  0  0  0  0  0  0  0  0  0  0  0
    8.2840   -1.2267   20.6264 H   0  0  0  0  0  0  0  0  0  0  0  0
    6.7763   -1.3295   21.5688 H   0  0  0  0  0  0  0  0  0  0  0  0
    9.1788    2.1450   22.7803 C   0  0  0  0  0  0  0  0  0  0  0  0
    8.2920    2.4438   23.8664 C   0  0  0  0  0  0  0  0  0  0  0  0
    7.0969    1.8013   23.9778 N   0  0  0  0  0  0  0  0  0  0  0  0
    6.3123    2.0911   24.9829 C   0  0  0  0  0  0  0  0  0  0  0  0
    6.6088    3.0531   25.9890 C   0  0  0  0  0  0  0  0  0  0  0  0
    7.7992    3.7356   25.9114 C   0  0  0  0  0  0  0  0  0  0  0  0
    8.6834    3.4515   24.8322 C   0  0  0  0  0  0  0  0  0  0  0  0
    9.9136    4.1375   24.6909 C   0  0  0  0  0  0  0  0  0  0  0  0
   10.7339    3.8300   23.6340 C   0  0  0  0  0  0  0  0  0  0  0  0
   12.2480    4.6701   23.4677 Cl  0  0  0  0  0  0  0  0  0  0  0  0
   10.3759    2.8496   22.6784 C   0  0  0  0  0  0  0  0  0  0  0  0
   11.0621    2.6696   21.8547 H   0  0  0  0  0  0  0  0  0  0  0  0
   10.2043    4.8958   25.4133 H   0  0  0  0  0  0  0  0  0  0  0  0
    8.0827    4.4882   26.6484 H   0  0  0  0  0  0  0  0  0  0  0  0
    5.8971    3.2278   26.7846 H   0  0  0  0  0  0  0  0  0  0  0  0
    5.3722    1.5433   25.0354 H   0  0  0  0  0  0  0  0  0  0  0  0
  1  2  2  0
  2  3  1  0
  3  4  1  0
  4  5  1  0
  5  6  2  0
  6  7  1  0
  7  8  2  0
  8  9  1  0
  9 10  2  0
 10 11  1  0
  8 12  1  0
  7 13  1  0
  6 14  1  0
  4 15  1  0
  4 16  1  0
  2 17  1  0
 17 18  1  0
 18 19  2  0
 19 20  1  0
 20 21  2  0
 21 22  1  0
 22 23  2  0
 23 24  1  0
 24 25  2  0
 25 26  1  0
 25 27  1  0
 27 28  1  0
 24 29  1  0
 22 30  1  0
 21 31  1  0
 20 32  1  0
 10  5  1  0
 27 17  2  0
 23 18  1  0
M  END
>  <cnnaffinity>  (1) 
-5.1621

>  <filename>  (1) 
O=C(OCc1cccnc1)c1cc(Cl)cc2cccnc12

$$$$
