
     RDKit          3D

 30 32  0  0  0  0  0  0  0  0999 V2000
    4.9767    1.7610   17.0466 H   0  0  0  0  0  0  0  0  0  0  0  0
    5.4490    1.2489   17.8827 C   0  0  0  0  0  0  0  0  0  0  0  0
    6.6085    0.6231   17.6210 N   0  0  0  0  0  0  0  0  0  0  0  0
    7.2011   -0.0326   18.6248 C   0  0  0  0  0  0  0  0  0  0  0  0
    8.1666   -0.4841   18.4066 H   0  0  0  0  0  0  0  0  0  0  0  0
    6.6664   -0.1217   19.9278 C   0  0  0  0  0  0  0  0  0  0  0  0
    7.4194   -0.7536   20.9910 N   0  0  0  0  0  0  0  0  0  0  0  0
    7.0773   -1.8118   21.8320 C   0  0  0  0  0  0  0  0  0  0  0  0
    5.9169   -2.7655   21.6458 C   0  0  0  0  0  0  0  0  0  0  0  0
    5.5494   -3.0813   20.5262 O   0  0  0  0  0  0  0  0  0  0  0  0
    5.2304   -3.3474   22.8662 C   0  0  0  0  0  0  0  0  0  0  0  0
    5.4299   -2.8679   24.1787 C   0  0  0  0  0  0  0  0  0  0  0  0
    6.1988   -2.1273   24.3822 H   0  0  0  0  0  0  0  0  0  0  0  0
    4.6563   -3.3451   25.2428 C   0  0  0  0  0  0  0  0  0  0  0  0
    4.7805   -2.9433   26.2440 H   0  0  0  0  0  0  0  0  0  0  0  0
    3.6978   -4.3335   25.0146 C   0  0  0  0  0  0  0  0  0  0  0  0
    2.7607   -4.9501   26.3479 Cl  0  0  0  0  0  0  0  0  0  0  0  0
    3.5136   -4.8650   23.7347 C   0  0  0  0  0  0  0  0  0  0  0  0
    2.7710   -5.6437   23.5836 H   0  0  0  0  0  0  0  0  0  0  0  0
    4.2928   -4.3889   22.6771 C   0  0  0  0  0  0  0  0  0  0  0  0
    4.1817   -4.8462   21.6994 H   0  0  0  0  0  0  0  0  0  0  0  0
    7.9806   -1.9784   22.7678 N   0  0  0  0  0  0  0  0  0  0  0  0
    8.9049   -1.0342   22.5023 N   0  0  0  0  0  0  0  0  0  0  0  0
    9.7916   -0.9609   22.9795 H   0  0  0  0  0  0  0  0  0  0  0  0
    8.6432   -0.2653   21.4325 C   0  0  0  0  0  0  0  0  0  0  0  0
    9.6097    0.9315   20.8201 S   0  0  0  0  0  0  0  0  0  0  0  0
    5.4757    0.5568   20.1949 C   0  0  0  0  0  0  0  0  0  0  0  0
    5.0753    0.5820   21.2094 H   0  0  0  0  0  0  0  0  0  0  0  0
    4.8533    1.2497   19.1475 C   0  0  0  0  0  0  0  0  0  0  0  0
    3.9290    1.7947   19.3039 H   0  0  0  0  0  0  0  0  0  0  0  0
  1  2  1  0
  2  3  2  0
  3  4  1  0
  4  5  1  0
  4  6  2  0
  6  7  1  0
  7  8  1  0
  8  9  1  0
  9 10  2  0
  9 11  1  0
 11 12  2  0
 12 13  1  0
 12 14  1  0
 14 15  1  0
 14 16  2  0
 16 17  1  0
 16 18  1  0
 18 19  1  0
 18 20  2  0
 20 21  1  0
  8 22  2  0
 22 23  1  0
 23 24  1  0
 23 25  1  0
 25 26  2  0
  6 27  1  0
 27 28  1  0
 27 29  2  0
 29 30  1  0
 29  2  1  0
 25  7  1  0
 20 11  1  0
M  END
>  <cnnaffinity>  (1) 
-5.24561

>  <filename>  (1) 
O=C(c1ccc(Cl)cc1)c1n[nH]c(=S)n1-c1cccnc1

$$$$
