
     RDKit          3D

 29 31  0  0  0  0  0  0  0  0999 V2000
    4.9538    1.4936   16.9784 H   0  0  0  0  0  0  0  0  0  0  0  0
    5.3761    0.9775   17.8372 C   0  0  0  0  0  0  0  0  0  0  0  0
    6.6108    0.4878   17.6689 N   0  0  0  0  0  0  0  0  0  0  0  0
    7.1690   -0.1392   18.7022 C   0  0  0  0  0  0  0  0  0  0  0  0
    8.1610   -0.5534   18.5381 H   0  0  0  0  0  0  0  0  0  0  0  0
    6.5565   -0.2570   19.9637 C   0  0  0  0  0  0  0  0  0  0  0  0
    7.3870   -0.8754   21.0458 C   0  0  0  0  0  0  0  0  0  0  0  0
    8.3561   -1.5548   20.7646 O   0  0  0  0  0  0  0  0  0  0  0  0
    7.0132   -0.6747   22.5274 C   0  0  0  0  0  0  0  0  0  0  0  0
    6.8647   -1.9919   23.4746 S   0  0  0  0  0  0  0  0  0  0  0  0
    6.7878    0.7069   23.0442 C   0  0  0  0  0  0  0  0  0  0  0  0
    5.7935    0.9870   23.9837 C   0  0  0  0  0  0  0  0  0  0  0  0
    5.1591    0.2870   24.5176 H   0  0  0  0  0  0  0  0  0  0  0  0
    5.7304    2.3371   24.1704 N   0  0  0  0  0  0  0  0  0  0  0  0
    5.1398    2.8080   24.8397 H   0  0  0  0  0  0  0  0  0  0  0  0
    6.6970    2.9400   23.3979 C   0  0  0  0  0  0  0  0  0  0  0  0
    7.1805    4.2978   23.2156 C   0  0  0  0  0  0  0  0  0  0  0  0
    6.7095    5.1446   23.6954 H   0  0  0  0  0  0  0  0  0  0  0  0
    8.3025    4.3757   22.3849 C   0  0  0  0  0  0  0  0  0  0  0  0
    9.0829    5.1282   22.5656 H   0  0  0  0  0  0  0  0  0  0  0  0
    8.7917    2.8934   22.0646 C   0  0  0  0  0  0  0  0  0  0  0  0
    8.6019    2.6550   20.6105 H   0  0  0  0  0  0  0  0  0  0  0  0
    8.8494    2.8158   21.7312 C   0  0  0  0  0  0  0  0  0  0  0  0
    9.9418    2.3584   22.0894 H   0  0  0  0  0  0  0  0  0  0  0  0
    7.3929    1.9308   22.7042 C   0  0  0  0  0  0  0  0  0  0  0  0
    5.2276    0.1826   20.1044 C   0  0  0  0  0  0  0  0  0  0  0  0
    4.6652    0.0309   21.0280 H   0  0  0  0  0  0  0  0  0  0  0  0
    4.6467    0.8429   19.0231 C   0  0  0  0  0  0  0  0  0  0  0  0
    3.6512    1.2640   19.0753 H   0  0  0  0  0  0  0  0  0  0  0  0
  1  2  1  0
  2  3  2  0
  3  4  1  0
  4  5  1  0
  4  6  2  0
  6  7  1  0
  7  8  2  0
  7  9  1  0
  9 10  2  0
  9 11  1  0
 11 12  2  0
 12 13  1  0
 12 14  1  0
 14 15  1  0
 14 16  1  0
 16 17  2  0
 17 18  1  0
 17 19  1  0
 19 20  1  0
 19 21  2  0
 21 22  1  0
 21 23  1  0
 23 24  1  0
 23 25  2  0
  6 26  1  0
 26 27  1  0
 26 28  2  0
 28 29  1  0
 28  2  1  0
 25 11  1  0
 25 16  1  0
M  END
>  <cnnaffinity>  (1) 
-4.38398

>  <filename>  (1) 
O=C(C(=S)c1c[nH]c2ccccc12)c1cccnc1

$$$$
