
     RDKit          3D

 33 35  0  0  0  0  0  0  0  0999 V2000
    4.8182    1.8853   16.9650 H   0  0  0  0  0  0  0  0  0  0  0  0
    5.3340    1.3520   17.7578 C   0  0  0  0  0  0  0  0  0  0  0  0
    6.4889    0.7594   17.4138 N   0  0  0  0  0  0  0  0  0  0  0  0
    7.1651    0.1100   18.3715 C   0  0  0  0  0  0  0  0  0  0  0  0
    8.0989   -0.3653   18.0848 H   0  0  0  0  0  0  0  0  0  0  0  0
    6.7219    0.0118   19.7140 C   0  0  0  0  0  0  0  0  0  0  0  0
    7.4066   -0.6860   20.7331 N   0  0  0  0  0  0  0  0  0  0  0  0
    6.9023   -0.8093   21.5942 H   0  0  0  0  0  0  0  0  0  0  0  0
    8.7436   -0.9858   20.8239 C   0  0  0  0  0  0  0  0  0  0  0  0
    9.5677   -0.5891   20.0253 O   0  0  0  0  0  0  0  0  0  0  0  0
    9.0782   -1.9124   22.0168 C   0  0  0  0  0  0  0  0  0  0  0  0
   10.1038   -2.2424   21.8445 H   0  0  0  0  0  0  0  0  0  0  0  0
    8.4669   -2.8221   21.9492 H   0  0  0  0  0  0  0  0  0  0  0  0
    8.9359   -1.2901   23.3990 C   0  0  0  0  0  0  0  0  0  0  0  0
    8.0052   -1.7293   24.3133 C   0  0  0  0  0  0  0  0  0  0  0  0
    7.3866   -2.6011   24.0888 H   0  0  0  0  0  0  0  0  0  0  0  0
    7.7463   -1.1367   25.5125 N   0  0  0  0  0  0  0  0  0  0  0  0
    8.4549   -0.0706   25.8286 C   0  0  0  0  0  0  0  0  0  0  0  0
    8.2468    0.3967   26.7938 H   0  0  0  0  0  0  0  0  0  0  0  0
    9.4745    0.4938   24.9993 C   0  0  0  0  0  0  0  0  0  0  0  0
   10.2376    1.6548   25.3443 C   0  0  0  0  0  0  0  0  0  0  0  0
    9.9855    2.1995   26.2482 H   0  0  0  0  0  0  0  0  0  0  0  0
   11.2838    2.0715   24.5492 C   0  0  0  0  0  0  0  0  0  0  0  0
   11.8606    2.9550   24.8136 H   0  0  0  0  0  0  0  0  0  0  0  0
   11.6183    1.3540   23.3706 C   0  0  0  0  0  0  0  0  0  0  0  0
   12.4685    1.6779   22.7734 H   0  0  0  0  0  0  0  0  0  0  0  0
   10.8700    0.2621   22.9854 C   0  0  0  0  0  0  0  0  0  0  0  0
   11.0985   -0.2834   22.0733 H   0  0  0  0  0  0  0  0  0  0  0  0
    9.7597   -0.1739   23.7716 C   0  0  0  0  0  0  0  0  0  0  0  0
    5.5001    0.6089   20.0462 C   0  0  0  0  0  0  0  0  0  0  0  0
    5.1148    0.5411   21.0646 H   0  0  0  0  0  0  0  0  0  0  0  0
    4.8026    1.2973   19.0514 C   0  0  0  0  0  0  0  0  0  0  0  0
    3.8648    1.7929   19.2683 H   0  0  0  0  0  0  0  0  0  0  0  0
  1  2  1  0
  2  3  2  0
  3  4  1  0
  4  5  1  0
  4  6  2  0
  6  7  1  0
  7  8  1  0
  7  9  1  0
  9 10  2  0
  9 11  1  0
 11 12  1  0
 11 13  1  0
 11 14  1  0
 14 15  2  0
 15 16  1  0
 15 17  1  0
 17 18  2  0
 18 19  1  0
 18 20  1  0
 20 21  2  0
 21 22  1  0
 21 23  1  0
 23 24  1  0
 23 25  2  0
 25 26  1  0
 25 27  1  0
 27 28  1  0
 27 29  2  0
  6 30  1  0
 30 31  1  0
 30 32  2  0
 32 33  1  0
 32  2  1  0
 29 14  1  0
 29 20  1  0
M  END
>  <cnnaffinity>  (1) 
-5.47237

>  <filename>  (1) 
O=C(Cc1cncc2ccccc12)Nc1cccnc1

$$$$
