
     RDKit          3D

 32 34  0  0  0  0  0  0  0  0999 V2000
    4.9923    1.7525   17.0250 H   0  0  0  0  0  0  0  0  0  0  0  0
    5.4700    1.2609   17.8694 C   0  0  0  0  0  0  0  0  0  0  0  0
    6.6441    0.6492   17.6342 N   0  0  0  0  0  0  0  0  0  0  0  0
    7.2524    0.0341   18.6589 C   0  0  0  0  0  0  0  0  0  0  0  0
    8.1985   -0.4667   18.4328 H   0  0  0  0  0  0  0  0  0  0  0  0
    6.6992   -0.0205   19.9574 C   0  0  0  0  0  0  0  0  0  0  0  0
    7.3016   -0.6868   21.0527 N   0  0  0  0  0  0  0  0  0  0  0  0
    8.2859   -0.6767   21.2383 H   0  0  0  0  0  0  0  0  0  0  0  0
    6.6787   -1.6353   21.8139 C   0  0  0  0  0  0  0  0  0  0  0  0
    5.6276   -2.1802   21.6025 O   0  0  0  0  0  0  0  0  0  0  0  0
    7.5316   -1.8835   22.8641 O   0  0  0  0  0  0  0  0  0  0  0  0
    7.0771   -2.7230   23.8758 C   0  0  0  0  0  0  0  0  0  0  0  0
    7.0489   -2.2325   25.1600 C   0  0  0  0  0  0  0  0  0  0  0  0
    7.3860   -1.2190   25.3405 H   0  0  0  0  0  0  0  0  0  0  0  0
    6.5601   -3.0379   26.2270 C   0  0  0  0  0  0  0  0  0  0  0  0
    6.5313   -2.6285   27.2353 H   0  0  0  0  0  0  0  0  0  0  0  0
    6.1124   -4.3140   25.9782 C   0  0  0  0  0  0  0  0  0  0  0  0
    5.7331   -4.9439   26.7819 H   0  0  0  0  0  0  0  0  0  0  0  0
    6.1661   -4.8557   24.6571 C   0  0  0  0  0  0  0  0  0  0  0  0
    5.7076   -6.1817   24.3891 C   0  0  0  0  0  0  0  0  0  0  0  0
    5.2977   -6.7608   25.2157 H   0  0  0  0  0  0  0  0  0  0  0  0
    5.8070   -6.7220   23.1267 C   0  0  0  0  0  0  0  0  0  0  0  0
    5.4688   -7.7369   22.9332 H   0  0  0  0  0  0  0  0  0  0  0  0
    6.3860   -5.9717   22.0695 C   0  0  0  0  0  0  0  0  0  0  0  0
    6.4727   -6.4030   21.0752 H   0  0  0  0  0  0  0  0  0  0  0  0
    6.8324   -4.6889   22.2877 C   0  0  0  0  0  0  0  0  0  0  0  0
    7.2701   -4.1309   21.4671 H   0  0  0  0  0  0  0  0  0  0  0  0
    6.6910   -4.0744   23.5778 C   0  0  0  0  0  0  0  0  0  0  0  0
    5.4838    0.6265   20.1853 C   0  0  0  0  0  0  0  0  0  0  0  0
    5.0587    0.5791   21.1875 H   0  0  0  0  0  0  0  0  0  0  0  0
    4.8598    1.2865   19.1271 C   0  0  0  0  0  0  0  0  0  0  0  0
    3.9153    1.7973   19.2722 H   0  0  0  0  0  0  0  0  0  0  0  0
  1  2  1  0
  2  3  2  0
  3  4  1  0
  4  5  1  0
  4  6  2  0
  6  7  1  0
  7  8  1  0
  7  9  1  0
  9 10  2  0
  9 11  1  0
 11 12  1  0
 12 13  2  0
 13 14  1  0
 13 15  1  0
 15 16  1  0
 15 17  2  0
 17 18  1  0
 17 19  1  0
 19 20  2  0
 20 21  1  0
 20 22  1  0
 22 23  1  0
 22 24  2  0
 24 25  1  0
 24 26  1  0
 26 27  1  0
 26 28  2  0
  6 29  1  0
 29 30  1  0
 29 31  2  0
 31 32  1  0
 31  2  1  0
 28 12  1  0
 28 19  1  0
M  END
>  <cnnaffinity>  (1) 
-5.41674

>  <filename>  (1) 
O=C(Nc1cccnc1)Oc1cccc2ccccc12

$$$$
