
     RDKit          3D

 31 33  0  0  0  0  0  0  0  0999 V2000
    9.6699    0.2550   21.2686 O   0  0  0  0  0  0  0  0  0  0  0  0
    8.4890    0.3204   21.6026 C   0  0  0  0  0  0  0  0  0  0  0  0
    8.1133    1.3575   22.4450 N   0  0  0  0  0  0  0  0  0  0  0  0
    8.9805    2.2768   22.9896 C   0  0  0  0  0  0  0  0  0  0  0  0
   10.2756    2.1463   22.7122 N   0  0  0  0  0  0  0  0  0  0  0  0
   11.0773    3.0582   23.2669 C   0  0  0  0  0  0  0  0  0  0  0  0
   10.6641    4.0942   24.0942 C   0  0  0  0  0  0  0  0  0  0  0  0
   11.8389    4.8730   24.4848 C   0  0  0  0  0  0  0  0  0  0  0  0
   12.9257    4.2958   23.8734 C   0  0  0  0  0  0  0  0  0  0  0  0
   12.4438    3.1927   23.1588 N   0  0  0  0  0  0  0  0  0  0  0  0
   13.0042    2.5522   22.6105 H   0  0  0  0  0  0  0  0  0  0  0  0
   13.9694    4.6083   23.9724 H   0  0  0  0  0  0  0  0  0  0  0  0
   11.8507    5.7395   25.1463 H   0  0  0  0  0  0  0  0  0  0  0  0
    9.3181    4.2233   24.3910 C   0  0  0  0  0  0  0  0  0  0  0  0
    8.6771    5.6273   25.5261 Br  0  0  0  0  0  0  0  0  0  0  0  0
    8.4613    3.2845   23.8166 C   0  0  0  0  0  0  0  0  0  0  0  0
    7.3993    3.3453   24.0149 H   0  0  0  0  0  0  0  0  0  0  0  0
    7.1392    1.4646   22.6854 H   0  0  0  0  0  0  0  0  0  0  0  0
    7.4274   -0.6700   20.9997 C   0  0  0  0  0  0  0  0  0  0  0  0
    6.5618   -1.0841   21.9729 F   0  0  0  0  0  0  0  0  0  0  0  0
    7.9951   -1.8035   20.4994 F   0  0  0  0  0  0  0  0  0  0  0  0
    6.6497    0.0042   19.8909 C   0  0  0  0  0  0  0  0  0  0  0  0
    5.4381    0.6468   20.1570 C   0  0  0  0  0  0  0  0  0  0  0  0
    4.8174    1.3044   19.1013 C   0  0  0  0  0  0  0  0  0  0  0  0
    5.4009    1.2930   17.8298 C   0  0  0  0  0  0  0  0  0  0  0  0
    6.5634    0.6683   17.5763 N   0  0  0  0  0  0  0  0  0  0  0  0
    7.1725    0.0378   18.5887 C   0  0  0  0  0  0  0  0  0  0  0  0
    8.1288   -0.4390   18.3956 H   0  0  0  0  0  0  0  0  0  0  0  0
    4.8902    1.7964   17.0148 H   0  0  0  0  0  0  0  0  0  0  0  0
    3.8846    1.8325   19.2584 H   0  0  0  0  0  0  0  0  0  0  0  0
    5.0003    0.6445   21.1587 H   0  0  0  0  0  0  0  0  0  0  0  0
  1  2  2  0
  2  3  1  0
  3  4  1  0
  4  5  2  0
  5  6  1  0
  6  7  2  0
  7  8  1  0
  8  9  2  0
  9 10  1  0
 10 11  1  0
  9 12  1  0
  8 13  1  0
  7 14  1  0
 14 15  1  0
 14 16  2  0
 16 17  1  0
  3 18  1  0
  2 19  1  0
 19 20  1  0
 19 21  1  0
 19 22  1  0
 22 23  2  0
 23 24  1  0
 24 25  2  0
 25 26  1  0
 26 27  2  0
 27 28  1  0
 25 29  1  0
 24 30  1  0
 23 31  1  0
 16  4  1  0
 27 22  1  0
 10  6  1  0
M  END
>  <cnnaffinity>  (1) 
-5.53633

>  <filename>  (1) 
O=C(Nc1cc(Br)c2cc[nH]c2n1)C(F)(F)c1cccnc1

$$$$
