
     RDKit          3D

 34 36  0  0  0  0  0  0  0  0999 V2000
    5.9267   -2.3366   21.3829 O   0  0  0  0  0  0  0  0  0  0  0  0
    6.8442   -1.6335   21.7336 C   0  0  0  0  0  0  0  0  0  0  0  0
    7.5516   -1.8080   23.1166 C   0  0  0  0  0  0  0  0  0  0  0  0
    7.2114   -0.8750   24.2039 N   0  0  0  0  0  0  0  0  0  0  0  0
    7.6726    0.4024   24.2707 C   0  0  0  0  0  0  0  0  0  0  0  0
    8.3966    0.8485   23.3754 O   0  0  0  0  0  0  0  0  0  0  0  0
    7.2265    1.2775   25.4915 C   0  0  0  0  0  0  0  0  0  0  0  0
    7.6579    2.6323   25.5368 C   0  0  0  0  0  0  0  0  0  0  0  0
    7.2636    3.4770   26.5848 C   0  0  0  0  0  0  0  0  0  0  0  0
    6.4458    2.9300   27.5763 C   0  0  0  0  0  0  0  0  0  0  0  0
    5.8737    3.4639   28.7274 N   0  0  0  0  0  0  0  0  0  0  0  0
    5.2084    2.4677   29.2426 C   0  0  0  0  0  0  0  0  0  0  0  0
    5.2974    1.3069   28.5148 N   0  0  0  0  0  0  0  0  0  0  0  0
    6.0899    1.5706   27.4329 C   0  0  0  0  0  0  0  0  0  0  0  0
    6.4336    0.7373   26.4554 N   0  0  0  0  0  0  0  0  0  0  0  0
    4.8938    0.4096   28.6925 H   0  0  0  0  0  0  0  0  0  0  0  0
    4.6235    2.5245   30.1603 H   0  0  0  0  0  0  0  0  0  0  0  0
    7.5614    4.5241   26.6503 H   0  0  0  0  0  0  0  0  0  0  0  0
    8.2933    3.0131   24.7462 H   0  0  0  0  0  0  0  0  0  0  0  0
    6.6254   -1.1790   24.9711 H   0  0  0  0  0  0  0  0  0  0  0  0
    8.6312   -1.7512   22.9445 H   0  0  0  0  0  0  0  0  0  0  0  0
    7.3069   -2.8145   23.4603 H   0  0  0  0  0  0  0  0  0  0  0  0
    7.4181   -0.6569   20.9329 N   0  0  0  0  0  0  0  0  0  0  0  0
    6.7121   -0.0427   19.8434 C   0  0  0  0  0  0  0  0  0  0  0  0
    5.4891    0.5851   20.0920 C   0  0  0  0  0  0  0  0  0  0  0  0
    4.8604    1.2741   19.0486 C   0  0  0  0  0  0  0  0  0  0  0  0
    5.4684    1.2916   17.7885 C   0  0  0  0  0  0  0  0  0  0  0  0
    6.6350    0.6736   17.5299 N   0  0  0  0  0  0  0  0  0  0  0  0
    7.2405    0.0295   18.5382 C   0  0  0  0  0  0  0  0  0  0  0  0
    8.1936   -0.4481   18.3169 H   0  0  0  0  0  0  0  0  0  0  0  0
    5.0112    1.8321   16.9592 H   0  0  0  0  0  0  0  0  0  0  0  0
    3.9288    1.8084   19.2062 H   0  0  0  0  0  0  0  0  0  0  0  0
    5.0602    0.5390   21.0929 H   0  0  0  0  0  0  0  0  0  0  0  0
    7.9245    0.0113   21.5089 H   0  0  0  0  0  0  0  0  0  0  0  0
  1  2  2  0
  2  3  1  0
  3  4  1  0
  4  5  1  0
  5  6  2  0
  5  7  1  0
  7  8  2  0
  8  9  1  0
  9 10  2  0
 10 11  1  0
 11 12  2  0
 12 13  1  0
 13 14  1  0
 14 15  2  0
 13 16  1  0
 12 17  1  0
  9 18  1  0
  8 19  1  0
  4 20  1  0
  3 21  1  0
  3 22  1  0
  2 23  1  0
 23 24  1  0
 24 25  2  0
 25 26  1  0
 26 27  2  0
 27 28  1  0
 28 29  2  0
 29 30  1  0
 27 31  1  0
 26 32  1  0
 25 33  1  0
 23 34  1  0
 15  7  1  0
 29 24  1  0
 14 10  1  0
M  END
>  <cnnaffinity>  (1) 
-5.1186

>  <filename>  (1) 
O=C(CNC(=O)c1ccc2nc[nH]c2n1)Nc1cccnc1

$$$$
