
     RDKit          3D

 30 32  0  0  0  0  0  0  0  0999 V2000
    3.9433   -3.7317   26.0296 H   0  0  0  0  0  0  0  0  0  0  0  0
    4.7506   -3.4108   25.5812 O   0  0  0  0  0  0  0  0  0  0  0  0
    4.6051   -2.0374   25.4115 N   0  0  0  0  0  0  0  0  0  0  0  0
    4.8007   -1.7430   24.4596 H   0  0  0  0  0  0  0  0  0  0  0  0
    4.9484   -1.1105   26.3785 C   0  0  0  0  0  0  0  0  0  0  0  0
    5.1334   -1.3457   27.5519 O   0  0  0  0  0  0  0  0  0  0  0  0
    4.9897    0.3017   25.8128 C   0  0  0  0  0  0  0  0  0  0  0  0
    4.5617    0.9191   26.6051 H   0  0  0  0  0  0  0  0  0  0  0  0
    4.3355    0.3958   24.9374 H   0  0  0  0  0  0  0  0  0  0  0  0
    6.4240    0.8119   25.4891 C   0  0  0  0  0  0  0  0  0  0  0  0
    7.0615    0.7034   26.3734 H   0  0  0  0  0  0  0  0  0  0  0  0
    6.3821    1.8802   25.2397 H   0  0  0  0  0  0  0  0  0  0  0  0
    7.0471    0.0939   24.3300 C   0  0  0  0  0  0  0  0  0  0  0  0
    6.6678    0.3345   23.1142 N   0  0  0  0  0  0  0  0  0  0  0  0
    7.3204   -0.5179   22.2732 N   0  0  0  0  0  0  0  0  0  0  0  0
    7.4267   -0.7042   20.9118 C   0  0  0  0  0  0  0  0  0  0  0  0
    6.6526    0.0147   19.8969 C   0  0  0  0  0  0  0  0  0  0  0  0
    7.1651    0.0446   18.5909 C   0  0  0  0  0  0  0  0  0  0  0  0
    8.1069   -0.4462   18.3555 H   0  0  0  0  0  0  0  0  0  0  0  0
    6.5571    0.6637   17.5769 N   0  0  0  0  0  0  0  0  0  0  0  0
    5.4006    1.2899   17.8301 C   0  0  0  0  0  0  0  0  0  0  0  0
    4.9407    1.8030   16.9851 H   0  0  0  0  0  0  0  0  0  0  0  0
    4.7962    1.3100   19.0910 C   0  0  0  0  0  0  0  0  0  0  0  0
    3.8635    1.8472   19.2266 H   0  0  0  0  0  0  0  0  0  0  0  0
    5.4347    0.6625   20.1519 C   0  0  0  0  0  0  0  0  0  0  0  0
    5.0041    0.6678   21.1523 H   0  0  0  0  0  0  0  0  0  0  0  0
    8.3277   -1.6326   20.6853 N   0  0  0  0  0  0  0  0  0  0  0  0
    8.8245   -2.0866   21.8872 N   0  0  0  0  0  0  0  0  0  0  0  0
    8.2110   -1.3946   22.8070 C   0  0  0  0  0  0  0  0  0  0  0  0
    8.2475   -1.2001   24.5330 S   0  0  0  0  0  0  0  0  0  0  0  0
  1  2  1  0
  2  3  1  0
  3  4  1  0
  3  5  1  0
  5  6  2  0
  5  7  1  0
  7  8  1  0
  7  9  1  0
  7 10  1  0
 10 11  1  0
 10 12  1  0
 10 13  1  0
 13 14  2  0
 14 15  1  0
 15 16  1  0
 16 17  1  0
 17 18  2  0
 18 19  1  0
 18 20  1  0
 20 21  2  0
 21 22  1  0
 21 23  1  0
 23 24  1  0
 23 25  2  0
 25 26  1  0
 16 27  2  0
 27 28  1  0
 28 29  2  0
 29 30  1  0
 30 13  1  0
 29 15  1  0
 25 17  1  0
M  END
>  <cnnaffinity>  (1) 
-5.05029

>  <filename>  (1) 
O=C(CCc1nn2c(-c3cccnc3)nnc2s1)NO

$$$$
