
     RDKit          3D

 39 42  0  0  0  0  0  0  0  0999 V2000
    4.9953    1.8298   16.8252 H   0  0  0  0  0  0  0  0  0  0  0  0
    5.3889    1.3623   17.7247 C   0  0  0  0  0  0  0  0  0  0  0  0
    6.5422    0.6912   17.5755 N   0  0  0  0  0  0  0  0  0  0  0  0
    7.0520    0.1108   18.6659 C   0  0  0  0  0  0  0  0  0  0  0  0
    7.9847   -0.4346   18.5179 H   0  0  0  0  0  0  0  0  0  0  0  0
    6.4875    0.1745   19.9627 C   0  0  0  0  0  0  0  0  0  0  0  0
    7.1551   -0.5082   21.0956 C   0  0  0  0  0  0  0  0  0  0  0  0
    7.3474   -0.0844   22.3660 C   0  0  0  0  0  0  0  0  0  0  0  0
    7.2185    1.2397   22.8053 N   0  0  0  0  0  0  0  0  0  0  0  0
    7.3110    1.9467   22.0924 H   0  0  0  0  0  0  0  0  0  0  0  0
    7.3198    1.6809   24.1034 C   0  0  0  0  0  0  0  0  0  0  0  0
    7.1753    0.9502   25.0668 O   0  0  0  0  0  0  0  0  0  0  0  0
    7.6018    3.1760   24.2717 C   0  0  0  0  0  0  0  0  0  0  0  0
    8.3012    3.9857   23.3505 C   0  0  0  0  0  0  0  0  0  0  0  0
    8.6972    3.6232   22.4058 H   0  0  0  0  0  0  0  0  0  0  0  0
    8.5507    5.3274   23.6590 C   0  0  0  0  0  0  0  0  0  0  0  0
    9.0866    5.9583   22.9520 H   0  0  0  0  0  0  0  0  0  0  0  0
    8.1600    5.9166   24.7968 N   0  0  0  0  0  0  0  0  0  0  0  0
    7.4947    5.1572   25.6749 C   0  0  0  0  0  0  0  0  0  0  0  0
    7.1776    5.6488   26.5940 H   0  0  0  0  0  0  0  0  0  0  0  0
    7.2020    3.8070   25.4666 C   0  0  0  0  0  0  0  0  0  0  0  0
    6.6763    3.2543   26.2365 H   0  0  0  0  0  0  0  0  0  0  0  0
    7.8925   -1.1511   23.2805 C   0  0  0  0  0  0  0  0  0  0  0  0
    7.1291   -1.4496   24.0123 H   0  0  0  0  0  0  0  0  0  0  0  0
    8.7168   -0.7467   23.8829 H   0  0  0  0  0  0  0  0  0  0  0  0
    8.3524   -2.2472   22.2995 C   0  0  0  0  0  0  0  0  0  0  0  0
    7.8195   -1.8535   20.9147 C   0  0  0  0  0  0  0  0  0  0  0  0
    8.6629   -1.7818   20.2082 H   0  0  0  0  0  0  0  0  0  0  0  0
    7.1149   -2.5957   20.5097 H   0  0  0  0  0  0  0  0  0  0  0  0
    8.5411   -3.7003   22.6190 C   0  0  0  0  0  0  0  0  0  0  0  0
    8.2847   -4.4440   21.8670 H   0  0  0  0  0  0  0  0  0  0  0  0
    8.3214   -4.0131   23.6313 H   0  0  0  0  0  0  0  0  0  0  0  0
    9.7426   -2.8228   22.4144 C   0  0  0  0  0  0  0  0  0  0  0  0
   10.3185   -2.8707   21.4971 H   0  0  0  0  0  0  0  0  0  0  0  0
   10.3546   -2.5794   23.2804 H   0  0  0  0  0  0  0  0  0  0  0  0
    5.2727    0.8810   20.0841 C   0  0  0  0  0  0  0  0  0  0  0  0
    4.7732    0.9488   21.0520 H   0  0  0  0  0  0  0  0  0  0  0  0
    4.7186    1.4726   18.9464 C   0  0  0  0  0  0  0  0  0  0  0  0
    3.7812    2.0145   18.9870 H   0  0  0  0  0  0  0  0  0  0  0  0
  1  2  1  0
  2  3  2  0
  3  4  1  0
  4  5  1  0
  4  6  2  0
  6  7  1  0
  7  8  2  0
  8  9  1  0
  9 10  1  0
  9 11  1  0
 11 12  2  0
 11 13  1  0
 13 14  2  0
 14 15  1  0
 14 16  1  0
 16 17  1  0
 16 18  2  0
 18 19  1  0
 19 20  1  0
 19 21  2  0
 21 22  1  0
  8 23  1  0
 23 24  1  0
 23 25  1  0
 23 26  1  0
 26 27  1  0
 27 28  1  0
 27 29  1  0
 26 30  1  0
 30 31  1  0
 30 32  1  0
 30 33  1  0
 33 34  1  0
 33 35  1  0
  6 36  1  0
 36 37  1  0
 36 38  2  0
 38 39  1  0
 38  2  1  0
 27  7  1  0
 21 13  1  0
 33 26  1  0
M  END
>  <cnnaffinity>  (1) 
-5.16924

>  <filename>  (1) 
O=C(NC1=C(c2cccnc2)CC2(CC2)C1)c1ccncc1

$$$$
