
     RDKit          3D

 33 35  0  0  0  0  0  0  0  0999 V2000
    4.9401    1.7936   17.0018 H   0  0  0  0  0  0  0  0  0  0  0  0
    5.4019    1.2844   17.8440 C   0  0  0  0  0  0  0  0  0  0  0  0
    6.5562    0.6523   17.5840 N   0  0  0  0  0  0  0  0  0  0  0  0
    7.1720    0.0313   18.5964 C   0  0  0  0  0  0  0  0  0  0  0  0
    8.1286   -0.4337   18.3638 H   0  0  0  0  0  0  0  0  0  0  0  0
    6.6493   -0.0199   19.9076 C   0  0  0  0  0  0  0  0  0  0  0  0
    7.3229   -0.7012   20.9680 N   0  0  0  0  0  0  0  0  0  0  0  0
    6.7048   -1.6081   21.8405 C   0  0  0  0  0  0  0  0  0  0  0  0
    5.6635   -1.8663   21.7833 H   0  0  0  0  0  0  0  0  0  0  0  0
    7.6563   -2.0361   22.6924 C   0  0  0  0  0  0  0  0  0  0  0  0
    7.5866   -2.9012   23.7707 N   0  0  0  0  0  0  0  0  0  0  0  0
    6.6885   -3.0305   24.1936 H   0  0  0  0  0  0  0  0  0  0  0  0
    8.6242   -3.5807   24.3571 C   0  0  0  0  0  0  0  0  0  0  0  0
    9.7775   -3.4796   23.9648 O   0  0  0  0  0  0  0  0  0  0  0  0
    8.2364   -4.4435   25.5601 C   0  0  0  0  0  0  0  0  0  0  0  0
    6.9715   -5.0489   25.7592 C   0  0  0  0  0  0  0  0  0  0  0  0
    6.1628   -4.9525   25.0354 H   0  0  0  0  0  0  0  0  0  0  0  0
    6.7263   -5.8521   26.8839 C   0  0  0  0  0  0  0  0  0  0  0  0
    5.7514   -6.3183   27.0208 H   0  0  0  0  0  0  0  0  0  0  0  0
    7.7252   -6.0612   27.8402 C   0  0  0  0  0  0  0  0  0  0  0  0
    7.5438   -6.6969   28.7063 H   0  0  0  0  0  0  0  0  0  0  0  0
    8.9743   -5.4604   27.6616 C   0  0  0  0  0  0  0  0  0  0  0  0
    9.7697   -5.6147   28.3842 H   0  0  0  0  0  0  0  0  0  0  0  0
    9.2295   -4.6807   26.5314 C   0  0  0  0  0  0  0  0  0  0  0  0
   10.2253   -4.2710   26.3755 H   0  0  0  0  0  0  0  0  0  0  0  0
    8.8243   -1.4172   22.3657 N   0  0  0  0  0  0  0  0  0  0  0  0
    9.7149   -1.5542   22.8175 H   0  0  0  0  0  0  0  0  0  0  0  0
    8.6456   -0.5370   21.3452 C   0  0  0  0  0  0  0  0  0  0  0  0
    9.8127    0.5047   20.8071 S   0  0  0  0  0  0  0  0  0  0  0  0
    5.4430    0.6357   20.1656 C   0  0  0  0  0  0  0  0  0  0  0  0
    5.0361    0.6344   21.1778 H   0  0  0  0  0  0  0  0  0  0  0  0
    4.8143    1.3028   19.1123 C   0  0  0  0  0  0  0  0  0  0  0  0
    3.8865    1.8362   19.2641 H   0  0  0  0  0  0  0  0  0  0  0  0
  1  2  1  0
  2  3  2  0
  3  4  1  0
  4  5  1  0
  4  6  2  0
  6  7  1  0
  7  8  1  0
  8  9  1  0
  8 10  2  0
 10 11  1  0
 11 12  1  0
 11 13  1  0
 13 14  2  0
 13 15  1  0
 15 16  2  0
 16 17  1  0
 16 18  1  0
 18 19  1  0
 18 20  2  0
 20 21  1  0
 20 22  1  0
 22 23  1  0
 22 24  2  0
 24 25  1  0
 10 26  1  0
 26 27  1  0
 26 28  1  0
 28 29  2  0
  6 30  1  0
 30 31  1  0
 30 32  2  0
 32 33  1  0
 32  2  1  0
 28  7  1  0
 24 15  1  0
M  END
>  <cnnaffinity>  (1) 
-5.00364

>  <filename>  (1) 
O=C(Nc1cn(-c2cccnc2)c(=S)[nH]1)c1ccccc1

$$$$
