
     RDKit          3D

 31 33  0  0  0  0  0  0  0  0999 V2000
    5.2313    1.7997   17.0154 H   0  0  0  0  0  0  0  0  0  0  0  0
    5.5404    1.2482   17.9013 C   0  0  0  0  0  0  0  0  0  0  0  0
    6.6496    0.5100   17.7774 N   0  0  0  0  0  0  0  0  0  0  0  0
    7.0630   -0.1614   18.8501 C   0  0  0  0  0  0  0  0  0  0  0  0
    7.9693   -0.7443   18.7003 H   0  0  0  0  0  0  0  0  0  0  0  0
    6.4287   -0.1262   20.1019 C   0  0  0  0  0  0  0  0  0  0  0  0
    7.0015   -0.8334   21.2815 C   0  0  0  0  0  0  0  0  0  0  0  0
    6.3963   -0.9011   22.3325 O   0  0  0  0  0  0  0  0  0  0  0  0
    8.3677   -1.4628   21.1670 C   0  0  0  0  0  0  0  0  0  0  0  0
    8.2966   -2.4180   20.6507 H   0  0  0  0  0  0  0  0  0  0  0  0
    9.1912   -1.5723   22.4698 C   0  0  0  0  0  0  0  0  0  0  0  0
    8.7607   -1.0328   23.3270 H   0  0  0  0  0  0  0  0  0  0  0  0
    9.4693   -2.5802   22.7955 H   0  0  0  0  0  0  0  0  0  0  0  0
   10.2735   -0.8511   21.7829 N   0  0  0  0  0  0  0  0  0  0  0  0
   10.9906    0.1646   22.3604 C   0  0  0  0  0  0  0  0  0  0  0  0
   11.3380    1.1549   21.5286 N   0  0  0  0  0  0  0  0  0  0  0  0
   11.9332    2.2266   22.0400 C   0  0  0  0  0  0  0  0  0  0  0  0
   12.1764    3.0456   21.3655 H   0  0  0  0  0  0  0  0  0  0  0  0
   12.1998    2.3658   23.3998 C   0  0  0  0  0  0  0  0  0  0  0  0
   12.7246    3.5235   23.8250 F   0  0  0  0  0  0  0  0  0  0  0  0
   11.8987    1.3181   24.2739 C   0  0  0  0  0  0  0  0  0  0  0  0
   12.1151    1.4087   25.3348 H   0  0  0  0  0  0  0  0  0  0  0  0
   11.2945    0.1801   23.7384 C   0  0  0  0  0  0  0  0  0  0  0  0
   11.0400   -0.6944   24.3278 H   0  0  0  0  0  0  0  0  0  0  0  0
    9.4662   -0.5611   20.6030 C   0  0  0  0  0  0  0  0  0  0  0  0
    9.1858    0.5002   20.5455 H   0  0  0  0  0  0  0  0  0  0  0  0
    9.9248   -0.8074   19.6446 H   0  0  0  0  0  0  0  0  0  0  0  0
    5.2403    0.6192   20.2075 C   0  0  0  0  0  0  0  0  0  0  0  0
    4.6963    0.6584   21.1557 H   0  0  0  0  0  0  0  0  0  0  0  0
    4.7967    1.3164   19.0877 C   0  0  0  0  0  0  0  0  0  0  0  0
    3.9075    1.9361   19.1184 H   0  0  0  0  0  0  0  0  0  0  0  0
  1  2  1  0
  2  3  2  0
  3  4  1  0
  4  5  1  0
  4  6  2  0
  6  7  1  0
  7  8  2  0
  7  9  1  0
  9 10  1  0
  9 11  1  0
 11 12  1  0
 11 13  1  0
 11 14  1  0
 14 15  1  0
 15 16  2  0
 16 17  1  0
 17 18  1  0
 17 19  2  0
 19 20  1  0
 19 21  1  0
 21 22  1  0
 21 23  2  0
 23 24  1  0
 14 25  1  0
 25 26  1  0
 25 27  1  0
  6 28  1  0
 28 29  1  0
 28 30  2  0
 30 31  1  0
 30  2  1  0
 25  9  1  0
 23 15  1  0
M  END
>  <cnnaffinity>  (1) 
-4.78963

>  <filename>  (1) 
O=C(c1cccnc1)C1CN(c2ccc(F)cn2)C1

$$$$
