
     RDKit          3D

 35 36  0  0  0  0  0  0  0  0999 V2000
    8.5625   -0.8639   20.5356 H   0  0  0  0  0  0  0  0  0  0  0  0
    7.4989   -0.6668   20.7005 C   0  0  0  0  0  0  0  0  0  0  0  0
    6.8749   -1.2161   21.7417 C   0  0  0  0  0  0  0  0  0  0  0  0
    5.8004   -1.1091   21.8981 H   0  0  0  0  0  0  0  0  0  0  0  0
    7.5198   -2.0276   22.6687 N   0  0  0  0  0  0  0  0  0  0  0  0
    8.5223   -2.0289   22.6555 H   0  0  0  0  0  0  0  0  0  0  0  0
    6.8971   -3.0108   23.4154 C   0  0  0  0  0  0  0  0  0  0  0  0
    5.7254   -3.2988   23.2644 O   0  0  0  0  0  0  0  0  0  0  0  0
    7.8024   -3.6081   24.4913 C   0  0  0  0  0  0  0  0  0  0  0  0
    8.8350   -3.5771   24.1061 H   0  0  0  0  0  0  0  0  0  0  0  0
    7.4817   -5.0852   24.8176 C   0  0  0  0  0  0  0  0  0  0  0  0
    7.6300   -5.7192   23.9323 H   0  0  0  0  0  0  0  0  0  0  0  0
    6.4162   -5.1916   25.0746 H   0  0  0  0  0  0  0  0  0  0  0  0
    8.3915   -5.5791   25.9580 C   0  0  0  0  0  0  0  0  0  0  0  0
    9.4347   -5.5708   25.5957 H   0  0  0  0  0  0  0  0  0  0  0  0
    8.1740   -6.6268   26.2076 H   0  0  0  0  0  0  0  0  0  0  0  0
    8.2680   -4.6911   27.2140 C   0  0  0  0  0  0  0  0  0  0  0  0
    8.9230   -5.0727   28.0092 H   0  0  0  0  0  0  0  0  0  0  0  0
    7.2370   -4.7508   27.5980 H   0  0  0  0  0  0  0  0  0  0  0  0
    8.5754   -3.2160   26.9086 C   0  0  0  0  0  0  0  0  0  0  0  0
    9.6436   -3.0915   26.6844 H   0  0  0  0  0  0  0  0  0  0  0  0
    8.3647   -2.5870   27.7793 H   0  0  0  0  0  0  0  0  0  0  0  0
    7.7315   -2.6927   25.7449 C   0  0  0  0  0  0  0  0  0  0  0  0
    6.6831   -2.6104   26.0700 H   0  0  0  0  0  0  0  0  0  0  0  0
    8.0693   -1.6813   25.4847 H   0  0  0  0  0  0  0  0  0  0  0  0
    6.7770    0.1020   19.6614 C   0  0  0  0  0  0  0  0  0  0  0  0
    7.2684    0.1876   18.3409 C   0  0  0  0  0  0  0  0  0  0  0  0
    8.2173   -0.2825   18.0872 H   0  0  0  0  0  0  0  0  0  0  0  0
    6.6322    0.7962   17.3311 N   0  0  0  0  0  0  0  0  0  0  0  0
    5.4555    1.3775   17.6167 C   0  0  0  0  0  0  0  0  0  0  0  0
    4.9556    1.8676   16.7866 H   0  0  0  0  0  0  0  0  0  0  0  0
    4.8705    1.3667   18.8872 C   0  0  0  0  0  0  0  0  0  0  0  0
    3.9129    1.8478   19.0538 H   0  0  0  0  0  0  0  0  0  0  0  0
    5.5426    0.7254   19.9259 C   0  0  0  0  0  0  0  0  0  0  0  0
    5.1268    0.7210   20.9329 H   0  0  0  0  0  0  0  0  0  0  0  0
  1  2  1  0
  2  3  2  3
  3  4  1  0
  3  5  1  0
  5  6  1  0
  5  7  1  0
  7  8  2  0
  7  9  1  0
  9 10  1  0
  9 11  1  0
 11 12  1  0
 11 13  1  0
 11 14  1  0
 14 15  1  0
 14 16  1  0
 14 17  1  0
 17 18  1  0
 17 19  1  0
 17 20  1  0
 20 21  1  0
 20 22  1  0
 20 23  1  0
 23 24  1  0
 23 25  1  0
  2 26  1  0
 26 27  2  0
 27 28  1  0
 27 29  1  0
 29 30  2  0
 30 31  1  0
 30 32  1  0
 32 33  1  0
 32 34  2  0
 34 35  1  0
 23  9  1  0
 34 26  1  0
M  END
>  <cnnaffinity>  (1) 
-4.55151

>  <filename>  (1) 
O=C(NC=Cc1cccnc1)C1CCCCC1

$$$$
