
     RDKit          3D

 43 46  0  0  0  0  0  0  0  0999 V2000
    8.3763    0.1574   25.6188 O   0  0  0  0  0  0  0  0  0  0  0  0
    7.3574   -0.2757   25.1205 C   0  0  0  0  0  0  0  0  0  0  0  0
    7.3272   -1.6336   24.4847 C   0  0  0  0  0  0  0  0  0  0  0  0
    7.7452   -1.4309   23.0713 C   0  0  0  0  0  0  0  0  0  0  0  0
    8.8947   -1.8598   22.5003 C   0  0  0  0  0  0  0  0  0  0  0  0
    8.9298   -1.4229   20.8386 S   0  0  0  0  0  0  0  0  0  0  0  0
    7.3643   -0.6625   21.0346 C   0  0  0  0  0  0  0  0  0  0  0  0
    6.6465    0.0085   19.9443 C   0  0  0  0  0  0  0  0  0  0  0  0
    5.4199    0.6590   20.1718 C   0  0  0  0  0  0  0  0  0  0  0  0
    4.7956    1.3069   19.1085 C   0  0  0  0  0  0  0  0  0  0  0  0
    5.4209    1.2768   17.8555 C   0  0  0  0  0  0  0  0  0  0  0  0
    6.5796    0.6460   17.6143 N   0  0  0  0  0  0  0  0  0  0  0  0
    7.1767    0.0336   18.6418 C   0  0  0  0  0  0  0  0  0  0  0  0
    8.1252   -0.4551   18.4204 H   0  0  0  0  0  0  0  0  0  0  0  0
    4.9710    1.7848   17.0071 H   0  0  0  0  0  0  0  0  0  0  0  0
    3.8604    1.8440   19.2384 H   0  0  0  0  0  0  0  0  0  0  0  0
    4.9750    0.6562   21.1694 H   0  0  0  0  0  0  0  0  0  0  0  0
    6.8990   -0.7332   22.2528 N   0  0  0  0  0  0  0  0  0  0  0  0
    9.6996   -2.3954   22.9777 H   0  0  0  0  0  0  0  0  0  0  0  0
    8.0234   -2.2638   25.0392 H   0  0  0  0  0  0  0  0  0  0  0  0
    6.3172   -2.0416   24.5176 H   0  0  0  0  0  0  0  0  0  0  0  0
    6.1863    0.4272   25.0699 N   0  0  0  0  0  0  0  0  0  0  0  0
    6.2206    1.8724   25.2722 C   0  0  0  0  0  0  0  0  0  0  0  0
    6.6717    2.5815   23.9740 C   0  0  0  0  0  0  0  0  0  0  0  0
    6.4938    4.0997   24.0897 C   0  0  0  0  0  0  0  0  0  0  0  0
    5.1009    4.3795   24.3818 N   0  0  0  0  0  0  0  0  0  0  0  0
    4.3970    3.6417   25.3116 C   0  0  0  0  0  0  0  0  0  0  0  0
    3.1665    4.1460   25.7687 C   0  0  0  0  0  0  0  0  0  0  0  0
    2.4119    3.4315   26.6955 C   0  0  0  0  0  0  0  0  0  0  0  0
    2.8881    2.2015   27.1770 C   0  0  0  0  0  0  0  0  0  0  0  0
    4.1114    1.6992   26.7222 C   0  0  0  0  0  0  0  0  0  0  0  0
    4.8791    2.3932   25.7716 C   0  0  0  0  0  0  0  0  0  0  0  0
    4.4849    0.7459   27.0961 H   0  0  0  0  0  0  0  0  0  0  0  0
    2.3081    1.6398   27.9034 H   0  0  0  0  0  0  0  0  0  0  0  0
    1.4615    3.8371   27.0422 H   0  0  0  0  0  0  0  0  0  0  0  0
    2.8410    5.1089   25.3810 H   0  0  0  0  0  0  0  0  0  0  0  0
    4.7063    5.2772   24.1620 H   0  0  0  0  0  0  0  0  0  0  0  0
    6.7461    4.6049   23.1496 H   0  0  0  0  0  0  0  0  0  0  0  0
    7.1686    4.4941   24.8720 H   0  0  0  0  0  0  0  0  0  0  0  0
    6.0505    2.2177   23.1451 H   0  0  0  0  0  0  0  0  0  0  0  0
    7.7085    2.3023   23.7574 H   0  0  0  0  0  0  0  0  0  0  0  0
    6.9706    2.0578   26.0555 H   0  0  0  0  0  0  0  0  0  0  0  0
    5.5510    0.1060   24.3577 H   0  0  0  0  0  0  0  0  0  0  0  0
  1  2  2  0
  2  3  1  0
  3  4  1  0
  4  5  2  0
  5  6  1  0
  6  7  1  0
  7  8  1  0
  8  9  2  0
  9 10  1  0
 10 11  2  0
 11 12  1  0
 12 13  2  0
 13 14  1  0
 11 15  1  0
 10 16  1  0
  9 17  1  0
  7 18  2  0
  5 19  1  0
  3 20  1  0
  3 21  1  0
  2 22  1  0
 22 23  1  0
 23 24  1  0
 24 25  1  0
 25 26  1  0
 26 27  1  0
 27 28  2  0
 28 29  1  0
 29 30  2  0
 30 31  1  0
 31 32  2  0
 31 33  1  0
 30 34  1  0
 29 35  1  0
 28 36  1  0
 26 37  1  0
 25 38  1  0
 25 39  1  0
 24 40  1  0
 24 41  1  0
 23 42  1  0
 22 43  1  0
 18  4  1  0
 32 23  1  0
 13  8  1  0
 32 27  1  0
M  END
>  <cnnaffinity>  (1) 
-5.64299

>  <filename>  (1) 
O=C(Cc1csc(-c2cccnc2)n1)NC1CCNc2ccccc21

$$$$
