
     RDKit          3D

 44 47  0  0  0  0  0  0  0  0999 V2000
   11.7694   -0.7502   20.9107 O   0  0  0  0  0  0  0  0  0  0  0  0
   11.1549   -1.0760   21.9006 C   0  0  0  0  0  0  0  0  0  0  0  0
   10.2652   -2.2942   21.9942 C   0  0  0  0  0  0  0  0  0  0  0  0
    8.8849   -1.7654   22.0759 C   0  0  0  0  0  0  0  0  0  0  0  0
    8.1281   -1.5307   23.1797 C   0  0  0  0  0  0  0  0  0  0  0  0
    6.7317   -0.6211   22.7297 S   0  0  0  0  0  0  0  0  0  0  0  0
    7.2530   -0.6833   21.0740 C   0  0  0  0  0  0  0  0  0  0  0  0
    6.5596   -0.0379   19.9634 C   0  0  0  0  0  0  0  0  0  0  0  0
    5.3712    0.6917   20.1076 C   0  0  0  0  0  0  0  0  0  0  0  0
    4.8600    1.3282   18.9783 C   0  0  0  0  0  0  0  0  0  0  0  0
    5.5502    1.2272   17.7666 C   0  0  0  0  0  0  0  0  0  0  0  0
    6.6956    0.5396   17.6282 N   0  0  0  0  0  0  0  0  0  0  0  0
    7.1821   -0.0758   18.7067 C   0  0  0  0  0  0  0  0  0  0  0  0
    8.1328   -0.5963   18.5791 H   0  0  0  0  0  0  0  0  0  0  0  0
    5.1751    1.7132   16.8679 H   0  0  0  0  0  0  0  0  0  0  0  0
    3.9534    1.9194   19.0261 H   0  0  0  0  0  0  0  0  0  0  0  0
    4.8903    0.7796   21.0835 H   0  0  0  0  0  0  0  0  0  0  0  0
    8.3858   -1.2979   20.9005 N   0  0  0  0  0  0  0  0  0  0  0  0
    8.2883   -1.8896   24.1821 H   0  0  0  0  0  0  0  0  0  0  0  0
   10.3383   -2.7977   21.0448 H   0  0  0  0  0  0  0  0  0  0  0  0
   10.5341   -2.9402   22.8318 H   0  0  0  0  0  0  0  0  0  0  0  0
   11.1657   -0.3596   23.0585 N   0  0  0  0  0  0  0  0  0  0  0  0
   11.3462    1.0949   23.0878 C   0  0  2  0  0  0  0  0  0  0  0  0
   11.7450    1.4456   24.5237 C   0  0  0  0  0  0  0  0  0  0  0  0
   10.5143    1.5140   25.4329 C   0  0  0  0  0  0  0  0  0  0  0  0
    9.5679    2.6242   24.9759 C   0  0  0  0  0  0  0  0  0  0  0  0
    9.2183    2.5048   23.5076 C   0  0  0  0  0  0  0  0  0  0  0  0
    8.0347    3.0879   23.0248 C   0  0  0  0  0  0  0  0  0  0  0  0
    7.6645    2.9576   21.6888 C   0  0  0  0  0  0  0  0  0  0  0  0
    8.5191    2.2848   20.8070 C   0  0  0  0  0  0  0  0  0  0  0  0
    9.7140    1.7388   21.2641 C   0  0  0  0  0  0  0  0  0  0  0  0
   10.0723    1.8232   22.6185 C   0  0  0  0  0  0  0  0  0  0  0  0
   10.3805    1.2069   20.5896 H   0  0  0  0  0  0  0  0  0  0  0  0
    8.2177    2.1466   19.7735 H   0  0  0  0  0  0  0  0  0  0  0  0
    6.7180    3.3695   21.3284 H   0  0  0  0  0  0  0  0  0  0  0  0
    7.3971    3.6411   23.7107 H   0  0  0  0  0  0  0  0  0  0  0  0
   10.0155    3.6187   25.1162 H   0  0  0  0  0  0  0  0  0  0  0  0
    8.6419    2.6146   25.5609 H   0  0  0  0  0  0  0  0  0  0  0  0
   10.8056    1.6596   26.4661 H   0  0  0  0  0  0  0  0  0  0  0  0
    9.9804    0.5516   25.4167 H   0  0  0  0  0  0  0  0  0  0  0  0
   12.2566    2.4128   24.5379 H   0  0  0  0  0  0  0  0  0  0  0  0
   12.4528    0.6917   24.8861 H   0  0  0  0  0  0  0  0  0  0  0  0
   12.1572    1.3345   22.3893 H   0  0  0  0  0  0  0  0  0  0  0  0
   10.4442   -0.6756   23.6864 H   0  0  0  0  0  0  0  0  0  0  0  0
  1  2  2  0
  2  3  1  0
  3  4  1  0
  4  5  2  0
  5  6  1  0
  6  7  1  0
  7  8  1  0
  8  9  2  0
  9 10  1  0
 10 11  2  0
 11 12  1  0
 12 13  2  0
 13 14  1  0
 11 15  1  0
 10 16  1  0
  9 17  1  0
  7 18  2  0
  5 19  1  0
  3 20  1  0
  3 21  1  0
  2 22  1  0
 22 23  1  0
 23 24  1  0
 24 25  1  0
 25 26  1  0
 26 27  1  0
 27 28  2  0
 28 29  1  0
 29 30  2  0
 30 31  1  0
 31 32  2  0
 31 33  1  0
 30 34  1  0
 29 35  1  0
 28 36  1  0
 26 37  1  0
 26 38  1  0
 25 39  1  0
 25 40  1  0
 24 41  1  0
 24 42  1  0
 23 43  1  6
 22 44  1  0
 18  4  1  0
 32 23  1  0
 13  8  1  0
 32 27  1  0
M  END
>  <cnnaffinity>  (1) 
-5.85372

>  <filename>  (1) 
O=C(Cc1csc(-c2cccnc2)n1)N[C@@H]1CCCc2ccccc21

$$$$
