
     RDKit          3D

 39 41  0  0  0  0  0  0  0  0999 V2000
    5.0423    1.8026   16.9594 H   0  0  0  0  0  0  0  0  0  0  0  0
    5.4928    1.2811   17.7972 C   0  0  0  0  0  0  0  0  0  0  0  0
    6.6365    0.6274   17.5277 N   0  0  0  0  0  0  0  0  0  0  0  0
    7.2202   -0.0096   18.5469 C   0  0  0  0  0  0  0  0  0  0  0  0
    8.1318   -0.5533   18.3032 H   0  0  0  0  0  0  0  0  0  0  0  0
    6.7128   -0.0323   19.8588 C   0  0  0  0  0  0  0  0  0  0  0  0
    7.4102   -0.7154   20.9395 C   0  0  0  0  0  0  0  0  0  0  0  0
    6.9273   -1.3529   22.0307 C   0  0  0  0  0  0  0  0  0  0  0  0
    5.9385   -1.6428   22.3392 H   0  0  0  0  0  0  0  0  0  0  0  0
    8.0142   -1.7496   22.7836 N   0  0  0  0  0  0  0  0  0  0  0  0
    7.8446   -2.3815   23.9939 N   0  0  0  0  0  0  0  0  0  0  0  0
    7.8581   -1.7947   24.8156 H   0  0  0  0  0  0  0  0  0  0  0  0
    8.1126   -3.7310   24.1791 C   0  0  0  0  0  0  0  0  0  0  0  0
    8.3383   -4.5094   23.2780 O   0  0  0  0  0  0  0  0  0  0  0  0
    8.0917   -4.1191   25.6513 C   0  0  0  0  0  0  0  0  0  0  0  0
    7.8558   -3.2323   26.2561 H   0  0  0  0  0  0  0  0  0  0  0  0
    9.4948   -4.6166   26.0887 C   0  0  0  0  0  0  0  0  0  0  0  0
    9.8271   -5.4286   25.4224 H   0  0  0  0  0  0  0  0  0  0  0  0
   10.2240   -3.7984   25.9887 H   0  0  0  0  0  0  0  0  0  0  0  0
    9.4693   -5.1213   27.5363 C   0  0  0  0  0  0  0  0  0  0  0  0
    9.2448   -4.2854   28.2059 H   0  0  0  0  0  0  0  0  0  0  0  0
   10.4587   -5.4926   27.8308 H   0  0  0  0  0  0  0  0  0  0  0  0
    8.3749   -6.1813   27.7229 C   0  0  0  0  0  0  0  0  0  0  0  0
    8.3910   -6.6109   28.7312 H   0  0  0  0  0  0  0  0  0  0  0  0
    8.5841   -7.0090   27.0313 H   0  0  0  0  0  0  0  0  0  0  0  0
    6.9975   -5.5936   27.3902 C   0  0  0  0  0  0  0  0  0  0  0  0
    6.8087   -4.7338   28.0563 H   0  0  0  0  0  0  0  0  0  0  0  0
    6.1989   -6.3195   27.5854 H   0  0  0  0  0  0  0  0  0  0  0  0
    6.9615   -5.1387   25.9255 C   0  0  0  0  0  0  0  0  0  0  0  0
    7.0913   -6.0089   25.2631 H   0  0  0  0  0  0  0  0  0  0  0  0
    5.9829   -4.6927   25.6899 H   0  0  0  0  0  0  0  0  0  0  0  0
    9.2051   -1.4212   22.1616 C   0  0  0  0  0  0  0  0  0  0  0  0
   10.7759   -1.7063   22.6117 S   0  0  0  0  0  0  0  0  0  0  0  0
    8.7935   -0.7906   21.0302 N   0  0  0  0  0  0  0  0  0  0  0  0
    9.4838   -0.4716   20.3753 H   0  0  0  0  0  0  0  0  0  0  0  0
    5.4973    0.6275   20.1081 C   0  0  0  0  0  0  0  0  0  0  0  0
    5.0769    0.6215   21.1163 H   0  0  0  0  0  0  0  0  0  0  0  0
    4.8811    1.3029   19.0570 C   0  0  0  0  0  0  0  0  0  0  0  0
    3.9482    1.8419   19.1979 H   0  0  0  0  0  0  0  0  0  0  0  0
  1  2  1  0
  2  3  2  0
  3  4  1  0
  4  5  1  0
  4  6  2  0
  6  7  1  0
  7  8  2  0
  8  9  1  0
  8 10  1  0
 10 11  1  0
 11 12  1  0
 11 13  1  0
 13 14  2  0
 13 15  1  0
 15 16  1  0
 15 17  1  0
 17 18  1  0
 17 19  1  0
 17 20  1  0
 20 21  1  0
 20 22  1  0
 20 23  1  0
 23 24  1  0
 23 25  1  0
 23 26  1  0
 26 27  1  0
 26 28  1  0
 26 29  1  0
 29 30  1  0
 29 31  1  0
 10 32  1  0
 32 33  2  0
 32 34  1  0
 34 35  1  0
  6 36  1  0
 36 37  1  0
 36 38  2  0
 38 39  1  0
 38  2  1  0
 34  7  1  0
 29 15  1  0
M  END
>  <cnnaffinity>  (1) 
-5.75701

>  <filename>  (1) 
O=C(Nn1cc(-c2cccnc2)[nH]c1=S)C1CCCCC1

$$$$
