
     RDKit          3D

 38 41  0  0  0  0  0  0  0  0999 V2000
    5.1091    1.7956   16.7983 H   0  0  0  0  0  0  0  0  0  0  0  0
    5.5565    1.3376   17.6761 C   0  0  0  0  0  0  0  0  0  0  0  0
    6.7286    0.7153   17.4851 N   0  0  0  0  0  0  0  0  0  0  0  0
    7.2986    0.1407   18.5497 C   0  0  0  0  0  0  0  0  0  0  0  0
    8.2549   -0.3461   18.3770 H   0  0  0  0  0  0  0  0  0  0  0  0
    6.7198    0.1243   19.8342 C   0  0  0  0  0  0  0  0  0  0  0  0
    7.3374   -0.6663   20.9160 C   0  0  0  0  0  0  0  0  0  0  0  0
    8.5160   -1.2787   20.7170 N   0  0  0  0  0  0  0  0  0  0  0  0
    8.6788   -1.9781   21.8502 N   0  0  0  0  0  0  0  0  0  0  0  0
    9.6964   -2.7641   22.3582 C   0  0  0  0  0  0  0  0  0  0  0  0
   10.6222   -2.8203   21.8135 H   0  0  0  0  0  0  0  0  0  0  0  0
    9.2408   -3.2441   23.5433 C   0  0  0  0  0  0  0  0  0  0  0  0
    9.6786   -3.8766   24.2982 H   0  0  0  0  0  0  0  0  0  0  0  0
    7.9594   -2.7235   23.7669 N   0  0  0  0  0  0  0  0  0  0  0  0
    7.0676   -3.0520   24.7961 N   0  0  0  0  0  0  0  0  0  0  0  0
    6.1390   -3.2195   24.4303 H   0  0  0  0  0  0  0  0  0  0  0  0
    7.3881   -4.0278   25.7521 C   0  0  0  0  0  0  0  0  0  0  0  0
    8.5156   -4.3868   26.0177 O   0  0  0  0  0  0  0  0  0  0  0  0
    6.2507   -4.5075   26.3636 N   0  0  0  0  0  0  0  0  0  0  0  0
    5.4276   -3.9417   26.2475 H   0  0  0  0  0  0  0  0  0  0  0  0
    6.2618   -5.3004   27.5400 C   0  0  0  0  0  0  0  0  0  0  0  0
    5.2385   -5.1404   28.4863 C   0  0  0  0  0  0  0  0  0  0  0  0
    4.4396   -4.4247   28.3104 H   0  0  0  0  0  0  0  0  0  0  0  0
    5.2345   -5.8945   29.6669 C   0  0  0  0  0  0  0  0  0  0  0  0
    4.4602   -5.7598   30.4183 H   0  0  0  0  0  0  0  0  0  0  0  0
    6.2493   -6.8311   29.8834 C   0  0  0  0  0  0  0  0  0  0  0  0
    6.2837   -7.7579   31.3554 Cl  0  0  0  0  0  0  0  0  0  0  0  0
    7.2596   -7.0195   28.9380 C   0  0  0  0  0  0  0  0  0  0  0  0
    8.0366   -7.7640   29.1046 H   0  0  0  0  0  0  0  0  0  0  0  0
    7.2759   -6.2432   27.7790 C   0  0  0  0  0  0  0  0  0  0  0  0
    8.0845   -6.3481   27.0698 H   0  0  0  0  0  0  0  0  0  0  0  0
    7.6528   -1.8796   22.7277 C   0  0  0  0  0  0  0  0  0  0  0  0
    6.7739   -0.9507   22.1827 C   0  0  0  0  0  0  0  0  0  0  0  0
    5.9452   -0.4508   22.6450 H   0  0  0  0  0  0  0  0  0  0  0  0
    5.5077    0.8078   20.0157 C   0  0  0  0  0  0  0  0  0  0  0  0
    5.0328    0.8631   20.9960 H   0  0  0  0  0  0  0  0  0  0  0  0
    4.9150    1.4223   18.9160 C   0  0  0  0  0  0  0  0  0  0  0  0
    3.9760    1.9580   19.0079 H   0  0  0  0  0  0  0  0  0  0  0  0
  1  2  1  0
  2  3  2  0
  3  4  1  0
  4  5  1  0
  4  6  2  0
  6  7  1  0
  7  8  2  0
  8  9  1  0
  9 10  1  0
 10 11  1  0
 10 12  2  0
 12 13  1  0
 12 14  1  0
 14 15  1  0
 15 16  1  0
 15 17  1  0
 17 18  2  0
 17 19  1  0
 19 20  1  0
 19 21  1  0
 21 22  2  0
 22 23  1  0
 22 24  1  0
 24 25  1  0
 24 26  2  0
 26 27  1  0
 26 28  1  0
 28 29  1  0
 28 30  2  0
 30 31  1  0
 14 32  1  0
 32 33  2  0
 33 34  1  0
  6 35  1  0
 35 36  1  0
 35 37  2  0
 37 38  1  0
 37  2  1  0
 33  7  1  0
 32  9  1  0
 30 21  1  0
M  END
>  <cnnaffinity>  (1) 
-5.86287

>  <filename>  (1) 
O=C(Nc1ccc(Cl)cc1)Nn1ccn2nc(-c3cccnc3)cc12

$$$$
