
     RDKit          3D

 34 35  0  0  0  0  0  0  0  0999 V2000
    4.9551    1.8375   16.9474 H   0  0  0  0  0  0  0  0  0  0  0  0
    5.4057    1.2956   17.7765 C   0  0  0  0  0  0  0  0  0  0  0  0
    6.5229    0.6109   17.4894 N   0  0  0  0  0  0  0  0  0  0  0  0
    7.1247   -0.0310   18.4962 C   0  0  0  0  0  0  0  0  0  0  0  0
    8.0059   -0.6159   18.2414 H   0  0  0  0  0  0  0  0  0  0  0  0
    6.6735    0.0060   19.8295 C   0  0  0  0  0  0  0  0  0  0  0  0
    7.4774   -0.6000   20.9638 C   0  0  1  0  0  0  0  0  0  0  0  0
    6.8233   -1.1181   21.6744 H   0  0  0  0  0  0  0  0  0  0  0  0
    8.3739   -1.5425   20.4350 F   0  0  0  0  0  0  0  0  0  0  0  0
    8.2655    0.4255   21.8414 C   0  0  0  0  0  0  0  0  0  0  0  0
    7.8174    0.8124   22.9024 O   0  0  0  0  0  0  0  0  0  0  0  0
    9.4506    0.8489   21.3053 N   0  0  0  0  0  0  0  0  0  0  0  0
    9.8939    0.1702   20.7064 H   0  0  0  0  0  0  0  0  0  0  0  0
   10.3679    1.7184   22.0349 C   0  0  0  0  0  0  0  0  0  0  0  0
    9.7789    2.5230   22.4919 H   0  0  0  0  0  0  0  0  0  0  0  0
   11.1137    0.9658   23.1492 C   0  0  0  0  0  0  0  0  0  0  0  0
   11.6535    0.1260   22.6905 H   0  0  0  0  0  0  0  0  0  0  0  0
   10.3744    0.5486   23.8392 H   0  0  0  0  0  0  0  0  0  0  0  0
   12.1553    1.8363   23.8729 C   0  0  0  0  0  0  0  0  0  0  0  0
   12.7190    1.2244   24.5898 H   0  0  0  0  0  0  0  0  0  0  0  0
   11.6428    2.6313   24.4325 H   0  0  0  0  0  0  0  0  0  0  0  0
   13.1215    2.4617   22.8590 C   0  0  0  0  0  0  0  0  0  0  0  0
   13.8970    3.0695   23.3364 H   0  0  0  0  0  0  0  0  0  0  0  0
   13.6466    1.6409   22.3495 H   0  0  0  0  0  0  0  0  0  0  0  0
   12.3578    3.2668   21.8011 C   0  0  0  0  0  0  0  0  0  0  0  0
   13.0411    3.7060   21.0719 H   0  0  0  0  0  0  0  0  0  0  0  0
   11.8226    4.1075   22.2728 H   0  0  0  0  0  0  0  0  0  0  0  0
   11.3672    2.3518   21.0683 C   0  0  0  0  0  0  0  0  0  0  0  0
   10.8218    2.8936   20.3016 H   0  0  0  0  0  0  0  0  0  0  0  0
   11.9301    1.5594   20.5525 H   0  0  0  0  0  0  0  0  0  0  0  0
    5.4710    0.6730   20.0980 C   0  0  0  0  0  0  0  0  0  0  0  0
    5.0479    0.6723   21.1049 H   0  0  0  0  0  0  0  0  0  0  0  0
    4.8258    1.3304   19.0490 C   0  0  0  0  0  0  0  0  0  0  0  0
    3.9027    1.8779   19.2015 H   0  0  0  0  0  0  0  0  0  0  0  0
  1  2  1  0
  2  3  2  0
  3  4  1  0
  4  5  1  0
  4  6  2  0
  6  7  1  0
  7  8  1  1
  7  9  1  0
  7 10  1  0
 10 11  2  0
 10 12  1  0
 12 13  1  0
 12 14  1  0
 14 15  1  0
 14 16  1  0
 16 17  1  0
 16 18  1  0
 16 19  1  0
 19 20  1  0
 19 21  1  0
 19 22  1  0
 22 23  1  0
 22 24  1  0
 22 25  1  0
 25 26  1  0
 25 27  1  0
 25 28  1  0
 28 29  1  0
 28 30  1  0
  6 31  1  0
 31 32  1  0
 31 33  2  0
 33 34  1  0
 33  2  1  0
 28 14  1  0
M  END
>  <cnnaffinity>  (1) 
-4.25107

>  <filename>  (1) 
O=C(NC1CCCCC1)[C@H](F)c1cccnc1

$$$$
