
     RDKit          3D

 35 38  0  0  0  0  0  0  0  0999 V2000
    4.9404    1.7720   17.0212 H   0  0  0  0  0  0  0  0  0  0  0  0
    5.4186    1.2736   17.8612 C   0  0  0  0  0  0  0  0  0  0  0  0
    6.5831    0.6563   17.6034 N   0  0  0  0  0  0  0  0  0  0  0  0
    7.1963    0.0367   18.6206 C   0  0  0  0  0  0  0  0  0  0  0  0
    8.1439   -0.4384   18.3703 H   0  0  0  0  0  0  0  0  0  0  0  0
    6.7010   -0.0313   19.9613 C   0  0  0  0  0  0  0  0  0  0  0  0
    7.3688   -0.6884   20.9720 N   0  0  0  0  0  0  0  0  0  0  0  0
    8.6250   -1.4239   21.0043 C   0  0  0  0  0  0  0  0  0  0  0  0
    8.6600   -2.3155   20.3810 H   0  0  0  0  0  0  0  0  0  0  0  0
    9.5136   -0.8222   20.7687 H   0  0  0  0  0  0  0  0  0  0  0  0
    8.3583   -1.7133   22.5053 C   0  0  0  0  0  0  0  0  0  0  0  0
    9.1119   -1.2628   23.1582 H   0  0  0  0  0  0  0  0  0  0  0  0
    8.1988   -3.1866   22.8813 C   0  0  0  0  0  0  0  0  0  0  0  0
    8.6133   -4.0543   22.1367 O   0  0  0  0  0  0  0  0  0  0  0  0
    7.5266   -3.5561   24.1883 C   0  0  0  0  0  0  0  0  0  0  0  0
    7.3034   -2.6264   25.2216 C   0  0  0  0  0  0  0  0  0  0  0  0
    7.6169   -1.5887   25.1196 H   0  0  0  0  0  0  0  0  0  0  0  0
    6.6679   -2.9880   26.4257 C   0  0  0  0  0  0  0  0  0  0  0  0
    6.4891   -2.2745   27.2216 H   0  0  0  0  0  0  0  0  0  0  0  0
    6.2710   -4.3033   26.5670 C   0  0  0  0  0  0  0  0  0  0  0  0
    6.4888   -5.2420   25.5583 C   0  0  0  0  0  0  0  0  0  0  0  0
    7.1113   -4.9115   24.3749 C   0  0  0  0  0  0  0  0  0  0  0  0
    7.2728   -5.6698   23.6159 H   0  0  0  0  0  0  0  0  0  0  0  0
    6.0001   -6.4570   25.9541 O   0  0  0  0  0  0  0  0  0  0  0  0
    5.4661   -6.2666   27.2635 C   0  0  0  0  0  0  0  0  0  0  0  0
    6.0024   -6.9060   27.9785 H   0  0  0  0  0  0  0  0  0  0  0  0
    4.3935   -6.5039   27.2592 H   0  0  0  0  0  0  0  0  0  0  0  0
    5.6451   -4.8969   27.6232 O   0  0  0  0  0  0  0  0  0  0  0  0
    7.0511   -0.8824   22.3733 C   0  0  0  0  0  0  0  0  0  0  0  0
    6.1356   -1.4514   22.5663 H   0  0  0  0  0  0  0  0  0  0  0  0
    7.0108    0.0400   22.9683 H   0  0  0  0  0  0  0  0  0  0  0  0
    5.4687    0.6252   20.1926 C   0  0  0  0  0  0  0  0  0  0  0  0
    5.0253    0.6204   21.1878 H   0  0  0  0  0  0  0  0  0  0  0  0
    4.8369    1.2827   19.1326 C   0  0  0  0  0  0  0  0  0  0  0  0
    3.9040    1.8151   19.2799 H   0  0  0  0  0  0  0  0  0  0  0  0
  1  2  1  0
  2  3  2  0
  3  4  1  0
  4  5  1  0
  4  6  2  0
  6  7  1  0
  7  8  1  0
  8  9  1  0
  8 10  1  0
  8 11  1  0
 11 12  1  0
 11 13  1  0
 13 14  2  0
 13 15  1  0
 15 16  2  0
 16 17  1  0
 16 18  1  0
 18 19  1  0
 18 20  2  0
 20 21  1  0
 21 22  2  0
 22 23  1  0
 21 24  1  0
 24 25  1  0
 25 26  1  0
 25 27  1  0
 25 28  1  0
 11 29  1  0
 29 30  1  0
 29 31  1  0
  6 32  1  0
 32 33  1  0
 32 34  2  0
 34 35  1  0
 34  2  1  0
 29  7  1  0
 22 15  1  0
 28 20  1  0
M  END
>  <cnnaffinity>  (1) 
-5.04551

>  <filename>  (1) 
O=C(c1ccc2c(c1)OCO2)C1CN(c2cccnc2)C1

$$$$
