
     RDKit          3D

 28 30  0  0  0  0  0  0  0  0999 V2000
    6.9765    0.9261   22.5791 O   0  0  0  0  0  0  0  0  0  0  0  0
    7.3887   -0.1775   22.2599 C   0  0  0  0  0  0  0  0  0  0  0  0
    7.3547   -0.6588   20.9701 N   0  0  0  0  0  0  0  0  0  0  0  0
    6.6707   -0.0148   19.8933 C   0  0  0  0  0  0  0  0  0  0  0  0
    5.4536    0.6378   20.1374 C   0  0  0  0  0  0  0  0  0  0  0  0
    4.8121    1.2942   19.0824 C   0  0  0  0  0  0  0  0  0  0  0  0
    5.4041    1.2894   17.8161 C   0  0  0  0  0  0  0  0  0  0  0  0
    6.5648    0.6647   17.5568 N   0  0  0  0  0  0  0  0  0  0  0  0
    7.1758    0.0332   18.5712 C   0  0  0  0  0  0  0  0  0  0  0  0
    8.1308   -0.4363   18.3371 H   0  0  0  0  0  0  0  0  0  0  0  0
    4.9362    1.8072   16.9811 H   0  0  0  0  0  0  0  0  0  0  0  0
    3.8828    1.8304   19.2472 H   0  0  0  0  0  0  0  0  0  0  0  0
    5.0422    0.6476   21.1431 H   0  0  0  0  0  0  0  0  0  0  0  0
    7.8493   -1.5271   20.8245 H   0  0  0  0  0  0  0  0  0  0  0  0
    7.9720   -1.0748   23.3029 C   0  0  0  0  0  0  0  0  0  0  0  0
    8.1244   -0.8080   24.6244 C   0  0  0  0  0  0  0  0  0  0  0  0
    8.6633   -1.9927   25.2285 C   0  0  0  0  0  0  0  0  0  0  0  0
    8.7503   -2.9260   24.1789 C   0  0  0  0  0  0  0  0  0  0  0  0
    8.3674   -2.3663   23.0036 O   0  0  0  0  0  0  0  0  0  0  0  0
    9.1313   -4.2545   24.4038 C   0  0  0  0  0  0  0  0  0  0  0  0
    8.8549   -5.4808   23.2115 Cl  0  0  0  0  0  0  0  0  0  0  0  0
    9.6070   -4.5896   25.6726 C   0  0  0  0  0  0  0  0  0  0  0  0
    9.5418   -3.6584   26.7259 C   0  0  0  0  0  0  0  0  0  0  0  0
    9.0524   -2.3711   26.5324 C   0  0  0  0  0  0  0  0  0  0  0  0
    8.9496   -1.6845   27.3665 H   0  0  0  0  0  0  0  0  0  0  0  0
    9.8695   -3.9908   27.7054 H   0  0  0  0  0  0  0  0  0  0  0  0
   10.0274   -5.5769   25.8508 H   0  0  0  0  0  0  0  0  0  0  0  0
    7.8309    0.1179   25.0955 H   0  0  0  0  0  0  0  0  0  0  0  0
  1  2  2  0
  2  3  1  0
  3  4  1  0
  4  5  2  0
  5  6  1  0
  6  7  2  0
  7  8  1  0
  8  9  2  0
  9 10  1  0
  7 11  1  0
  6 12  1  0
  5 13  1  0
  3 14  1  0
  2 15  1  0
 15 16  2  0
 16 17  1  0
 17 18  2  0
 18 19  1  0
 18 20  1  0
 20 21  1  0
 20 22  2  0
 22 23  1  0
 23 24  2  0
 24 25  1  0
 23 26  1  0
 22 27  1  0
 16 28  1  0
  9  4  1  0
 19 15  1  0
 24 17  1  0
M  END
>  <cnnaffinity>  (1) 
-4.74111

>  <filename>  (1) 
O=C(Nc1cccnc1)c1cc2cccc(Cl)c2o1

$$$$
