
     RDKit          3D

 34 36  0  0  0  0  0  0  0  0999 V2000
    5.1710    2.9033   15.8021 H   0  0  0  0  0  0  0  0  0  0  0  0
    5.3752    2.3718   16.7269 C   0  0  0  0  0  0  0  0  0  0  0  0
    6.4740    1.6036   16.7463 N   0  0  0  0  0  0  0  0  0  0  0  0
    6.7245    0.9276   17.8755 C   0  0  0  0  0  0  0  0  0  0  0  0
    7.6468    0.3484   17.8832 H   0  0  0  0  0  0  0  0  0  0  0  0
    5.8821    0.9404   18.9997 C   0  0  0  0  0  0  0  0  0  0  0  0
    6.2225    0.1486   20.1880 C   0  0  0  0  0  0  0  0  0  0  0  0
    7.1057    0.5544   21.1514 C   0  0  0  0  0  0  0  0  0  0  0  0
    7.5871    1.5224   21.0780 H   0  0  0  0  0  0  0  0  0  0  0  0
    7.3969   -0.3086   22.2295 C   0  0  0  0  0  0  0  0  0  0  0  0
    8.1028   -0.0115   22.9974 H   0  0  0  0  0  0  0  0  0  0  0  0
    6.8551   -1.5766   22.3237 C   0  0  0  0  0  0  0  0  0  0  0  0
    7.3656   -2.4279   23.3453 N   0  0  0  0  0  0  0  0  0  0  0  0
    6.7613   -3.0878   23.8041 H   0  0  0  0  0  0  0  0  0  0  0  0
    8.7181   -2.5738   23.5830 C   0  0  0  0  0  0  0  0  0  0  0  0
    9.5547   -1.9682   22.9390 O   0  0  0  0  0  0  0  0  0  0  0  0
    9.1385   -3.5606   24.6833 C   0  0  0  0  0  0  0  0  0  0  0  0
    8.3485   -4.0482   25.7531 C   0  0  0  0  0  0  0  0  0  0  0  0
    7.2978   -3.7956   25.8860 H   0  0  0  0  0  0  0  0  0  0  0  0
    8.9307   -4.9052   26.7057 C   0  0  0  0  0  0  0  0  0  0  0  0
    8.3738   -5.2183   27.5908 H   0  0  0  0  0  0  0  0  0  0  0  0
   10.1807   -5.3768   26.6138 N   0  0  0  0  0  0  0  0  0  0  0  0
   10.9176   -4.9454   25.5832 C   0  0  0  0  0  0  0  0  0  0  0  0
   11.9262   -5.3362   25.4712 H   0  0  0  0  0  0  0  0  0  0  0  0
   10.4750   -4.0081   24.6524 C   0  0  0  0  0  0  0  0  0  0  0  0
   11.1990   -3.6475   23.9292 H   0  0  0  0  0  0  0  0  0  0  0  0
    5.8361   -2.0123   21.3191 C   0  0  0  0  0  0  0  0  0  0  0  0
    5.2212   -3.0643   21.2542 O   0  0  0  0  0  0  0  0  0  0  0  0
    5.6041   -1.0715   20.3210 N   0  0  0  0  0  0  0  0  0  0  0  0
    4.9344   -1.4109   19.6504 H   0  0  0  0  0  0  0  0  0  0  0  0
    4.7377    1.7490   18.9560 C   0  0  0  0  0  0  0  0  0  0  0  0
    4.0624    1.7985   19.8084 H   0  0  0  0  0  0  0  0  0  0  0  0
    4.4960    2.4910   17.8062 C   0  0  0  0  0  0  0  0  0  0  0  0
    3.6389    3.1504   17.7245 H   0  0  0  0  0  0  0  0  0  0  0  0
  1  2  1  0
  2  3  2  0
  3  4  1  0
  4  5  1  0
  4  6  2  0
  6  7  1  0
  7  8  2  0
  8  9  1  0
  8 10  1  0
 10 11  1  0
 10 12  2  0
 12 13  1  0
 13 14  1  0
 13 15  1  0
 15 16  2  0
 15 17  1  0
 17 18  2  0
 18 19  1  0
 18 20  1  0
 20 21  1  0
 20 22  2  0
 22 23  1  0
 23 24  1  0
 23 25  2  0
 25 26  1  0
 12 27  1  0
 27 28  2  0
 27 29  1  0
 29 30  1  0
  6 31  1  0
 31 32  1  0
 31 33  2  0
 33 34  1  0
 33  2  1  0
 29  7  1  0
 25 17  1  0
M  END
>  <cnnaffinity>  (1) 
-5.43125

>  <filename>  (1) 
O=C(Nc1ccc(-c2cccnc2)[nH]c1=O)c1ccncc1

$$$$
