
     RDKit          3D

 31 33  0  0  0  0  0  0  0  0999 V2000
    5.1618    2.1371   16.5351 H   0  0  0  0  0  0  0  0  0  0  0  0
    5.5973    1.6066   17.3792 C   0  0  0  0  0  0  0  0  0  0  0  0
    6.7386    0.9414   17.1410 N   0  0  0  0  0  0  0  0  0  0  0  0
    7.2708    0.2604   18.1622 C   0  0  0  0  0  0  0  0  0  0  0  0
    8.2069   -0.2464   17.9345 H   0  0  0  0  0  0  0  0  0  0  0  0
    6.6988    0.1639   19.4436 C   0  0  0  0  0  0  0  0  0  0  0  0
    7.3300   -0.6890   20.4861 C   0  0  0  0  0  0  0  0  0  0  0  0
    6.4856   -1.4555   21.2687 N   0  0  0  0  0  0  0  0  0  0  0  0
    7.0364   -2.2518   22.1624 C   0  0  0  0  0  0  0  0  0  0  0  0
    6.2756   -2.9947   23.2112 C   0  0  0  0  0  0  0  0  0  0  0  0
    5.5164   -3.9008   22.9342 O   0  0  0  0  0  0  0  0  0  0  0  0
    6.6020   -2.6180   24.6667 C   0  0  0  0  0  0  0  0  0  0  0  0
    6.4065   -3.5440   25.7067 C   0  0  0  0  0  0  0  0  0  0  0  0
    6.0050   -4.5323   25.5151 H   0  0  0  0  0  0  0  0  0  0  0  0
    6.7611   -3.1952   27.0144 C   0  0  0  0  0  0  0  0  0  0  0  0
    6.6438   -3.9132   27.8257 H   0  0  0  0  0  0  0  0  0  0  0  0
    7.2864   -2.0094   27.3512 N   0  0  0  0  0  0  0  0  0  0  0  0
    7.4550   -1.1162   26.3709 C   0  0  0  0  0  0  0  0  0  0  0  0
    7.8996   -0.1675   26.6711 H   0  0  0  0  0  0  0  0  0  0  0  0
    7.1241   -1.3610   25.0313 C   0  0  0  0  0  0  0  0  0  0  0  0
    7.2601   -0.5668   24.3041 H   0  0  0  0  0  0  0  0  0  0  0  0
    8.4937   -2.5249   22.2500 C   0  0  0  0  0  0  0  0  0  0  0  0
    9.0543   -3.3683   22.9212 O   0  0  0  0  0  0  0  0  0  0  0  0
    9.2511   -1.6194   21.5245 N   0  0  0  0  0  0  0  0  0  0  0  0
   10.2426   -1.7786   21.6592 H   0  0  0  0  0  0  0  0  0  0  0  0
    8.6909   -0.7117   20.6492 C   0  0  0  0  0  0  0  0  0  0  0  0
    9.3558   -0.0323   20.1285 H   0  0  0  0  0  0  0  0  0  0  0  0
    5.5205    0.8839   19.6773 C   0  0  0  0  0  0  0  0  0  0  0  0
    5.0639    0.8398   20.6670 H   0  0  0  0  0  0  0  0  0  0  0  0
    4.9768    1.6349   18.6334 C   0  0  0  0  0  0  0  0  0  0  0  0
    4.0863    2.2372   18.7785 H   0  0  0  0  0  0  0  0  0  0  0  0
  1  2  1  0
  2  3  2  0
  3  4  1  0
  4  5  1  0
  4  6  2  0
  6  7  1  0
  7  8  1  0
  8  9  2  0
  9 10  1  0
 10 11  2  0
 10 12  1  0
 12 13  2  0
 13 14  1  0
 13 15  1  0
 15 16  1  0
 15 17  2  0
 17 18  1  0
 18 19  1  0
 18 20  2  0
 20 21  1  0
  9 22  1  0
 22 23  2  0
 22 24  1  0
 24 25  1  0
 24 26  1  0
 26 27  1  0
  6 28  1  0
 28 29  1  0
 28 30  2  0
 30 31  1  0
 30  2  1  0
 26  7  2  0
 20 12  1  0
M  END
>  <cnnaffinity>  (1) 
-4.96286

>  <filename>  (1) 
O=C(c1ccncc1)c1nc(-c2cccnc2)c[nH]c1=O

$$$$
