
     RDKit          3D

 25 26  0  0  0  0  0  0  0  0999 V2000
    4.9196    1.7830   16.9937 H   0  0  0  0  0  0  0  0  0  0  0  0
    5.3986    1.2939   17.8384 C   0  0  0  0  0  0  0  0  0  0  0  0
    6.5618    0.6786   17.5735 N   0  0  0  0  0  0  0  0  0  0  0  0
    7.1773    0.0734   18.5880 C   0  0  0  0  0  0  0  0  0  0  0  0
    8.1224   -0.4195   18.3659 H   0  0  0  0  0  0  0  0  0  0  0  0
    6.6614    0.0224   19.8977 C   0  0  0  0  0  0  0  0  0  0  0  0
    7.4070   -0.7000   20.9558 C   0  0  0  0  0  0  0  0  0  0  0  0
    9.0376   -0.6621   21.0463 S   0  0  0  0  0  0  0  0  0  0  0  0
    6.5600   -1.5714   21.9310 C   0  0  0  0  0  0  0  0  0  0  0  0
    5.5734   -2.1318   21.5047 O   0  0  0  0  0  0  0  0  0  0  0  0
    7.0300   -1.7006   23.3494 C   0  0  0  0  0  0  0  0  0  0  0  0
    7.6168   -0.6383   24.0635 C   0  0  0  0  0  0  0  0  0  0  0  0
    7.7541    0.3266   23.5786 H   0  0  0  0  0  0  0  0  0  0  0  0
    8.0230   -0.8055   25.3866 C   0  0  0  0  0  0  0  0  0  0  0  0
    8.4695    0.0266   25.9224 H   0  0  0  0  0  0  0  0  0  0  0  0
    7.8476   -2.0397   26.0217 C   0  0  0  0  0  0  0  0  0  0  0  0
    8.1565   -2.1719   27.0541 H   0  0  0  0  0  0  0  0  0  0  0  0
    7.2728   -3.1127   25.3370 C   0  0  0  0  0  0  0  0  0  0  0  0
    7.1124   -4.0842   25.7969 H   0  0  0  0  0  0  0  0  0  0  0  0
    6.8778   -2.9256   24.0129 C   0  0  0  0  0  0  0  0  0  0  0  0
    6.3391   -3.9565   23.3612 F   0  0  0  0  0  0  0  0  0  0  0  0
    5.4363    0.6531   20.1581 C   0  0  0  0  0  0  0  0  0  0  0  0
    4.9954    0.6270   21.1588 H   0  0  0  0  0  0  0  0  0  0  0  0
    4.8047    1.3141   19.1043 C   0  0  0  0  0  0  0  0  0  0  0  0
    3.8711    1.8462   19.2525 H   0  0  0  0  0  0  0  0  0  0  0  0
  1  2  1  0
  2  3  2  0
  3  4  1  0
  4  5  1  0
  4  6  2  0
  6  7  1  0
  7  8  2  0
  7  9  1  0
  9 10  2  0
  9 11  1  0
 11 12  2  0
 12 13  1  0
 12 14  1  0
 14 15  1  0
 14 16  2  0
 16 17  1  0
 16 18  1  0
 18 19  1  0
 18 20  2  0
 20 21  1  0
  6 22  1  0
 22 23  1  0
 22 24  2  0
 24 25  1  0
 24  2  1  0
 20 11  1  0
M  END
>  <cnnaffinity>  (1) 
-4.60753

>  <filename>  (1) 
O=C(C(=S)c1cccnc1)c1ccccc1F

$$$$
