
     RDKit          3D

 31 33  0  0  0  0  0  0  0  0999 V2000
    4.9657    1.8080   16.9473 H   0  0  0  0  0  0  0  0  0  0  0  0
    5.4226    1.2880   17.7867 C   0  0  0  0  0  0  0  0  0  0  0  0
    6.5784    0.6462   17.5474 N   0  0  0  0  0  0  0  0  0  0  0  0
    7.1790    0.0323   18.5777 C   0  0  0  0  0  0  0  0  0  0  0  0
    8.1178   -0.4721   18.3406 H   0  0  0  0  0  0  0  0  0  0  0  0
    6.6693    0.0425   19.8997 C   0  0  0  0  0  0  0  0  0  0  0  0
    7.3526   -0.5754   20.9910 N   0  0  0  0  0  0  0  0  0  0  0  0
    7.7204   -1.5027   20.8355 H   0  0  0  0  0  0  0  0  0  0  0  0
    7.3382   -0.1508   22.3063 C   0  0  0  0  0  0  0  0  0  0  0  0
    6.8984    0.9069   22.6951 O   0  0  0  0  0  0  0  0  0  0  0  0
    7.9957   -1.1758   23.3061 C   0  0  0  0  0  0  0  0  0  0  0  0
    7.5694   -2.4462   22.9833 F   0  0  0  0  0  0  0  0  0  0  0  0
    7.6026   -0.9284   24.5720 F   0  0  0  0  0  0  0  0  0  0  0  0
    9.4995   -1.1409   23.1721 C   0  0  0  0  0  0  0  0  0  0  0  0
   10.1465   -0.1590   23.8591 O   0  0  0  0  0  0  0  0  0  0  0  0
   11.4621   -0.2533   23.5076 C   0  0  0  0  0  0  0  0  0  0  0  0
   12.5139    0.4785   24.0592 C   0  0  0  0  0  0  0  0  0  0  0  0
   12.3222    1.1960   24.8481 H   0  0  0  0  0  0  0  0  0  0  0  0
   13.7857    0.1956   23.5652 C   0  0  0  0  0  0  0  0  0  0  0  0
   14.6345    0.7244   23.9735 H   0  0  0  0  0  0  0  0  0  0  0  0
   13.9992   -0.7924   22.5801 C   0  0  0  0  0  0  0  0  0  0  0  0
   15.0073   -1.0301   22.2753 H   0  0  0  0  0  0  0  0  0  0  0  0
   12.9378   -1.5175   22.0469 C   0  0  0  0  0  0  0  0  0  0  0  0
   13.1168   -2.2595   21.2727 H   0  0  0  0  0  0  0  0  0  0  0  0
   11.6423   -1.2521   22.5397 C   0  0  0  0  0  0  0  0  0  0  0  0
   10.3352   -1.8334   22.3580 C   0  0  0  0  0  0  0  0  0  0  0  0
   10.1191   -2.7156   21.7738 H   0  0  0  0  0  0  0  0  0  0  0  0
    5.4442    0.6786   20.1201 C   0  0  0  0  0  0  0  0  0  0  0  0
    5.0241    0.6873   21.1237 H   0  0  0  0  0  0  0  0  0  0  0  0
    4.8138    1.3061   19.0434 C   0  0  0  0  0  0  0  0  0  0  0  0
    3.8770    1.8279   19.1869 H   0  0  0  0  0  0  0  0  0  0  0  0
  1  2  1  0
  2  3  2  0
  3  4  1  0
  4  5  1  0
  4  6  2  0
  6  7  1  0
  7  8  1  0
  7  9  1  0
  9 10  2  0
  9 11  1  0
 11 12  1  0
 11 13  1  0
 11 14  1  0
 14 15  1  0
 15 16  1  0
 16 17  2  0
 17 18  1  0
 17 19  1  0
 19 20  1  0
 19 21  2  0
 21 22  1  0
 21 23  1  0
 23 24  1  0
 23 25  2  0
 25 26  1  0
 26 27  1  0
  6 28  1  0
 28 29  1  0
 28 30  2  0
 30 31  1  0
 30  2  1  0
 26 14  2  0
 25 16  1  0
M  END
>  <cnnaffinity>  (1) 
-5.45449

>  <filename>  (1) 
O=C(Nc1cccnc1)C(F)(F)c1cc2ccccc2o1

$$$$
