
     RDKit          3D

 34 36  0  0  0  0  0  0  0  0999 V2000
    6.1777   -0.7500   24.7579 O   0  0  0  0  0  0  0  0  0  0  0  0
    7.2449   -1.2197   25.1203 C   0  0  0  0  0  0  0  0  0  0  0  0
    7.5935   -1.4225   26.5849 C   0  0  0  0  0  0  0  0  0  0  0  0
    6.9793   -2.6712   27.1909 C   0  0  0  0  0  0  0  0  0  0  0  0
    5.6909   -2.5993   27.7467 C   0  0  0  0  0  0  0  0  0  0  0  0
    5.0917   -3.7053   28.3537 C   0  0  0  0  0  0  0  0  0  0  0  0
    5.7745   -4.9237   28.3941 C   0  0  0  0  0  0  0  0  0  0  0  0
    7.0501   -5.0336   27.8374 C   0  0  0  0  0  0  0  0  0  0  0  0
    7.6386   -3.9116   27.2445 C   0  0  0  0  0  0  0  0  0  0  0  0
    9.2486   -4.0899   26.5865 Cl  0  0  0  0  0  0  0  0  0  0  0  0
    7.5967   -5.9721   27.8677 H   0  0  0  0  0  0  0  0  0  0  0  0
    5.3156   -5.7926   28.8569 H   0  0  0  0  0  0  0  0  0  0  0  0
    4.1070   -3.6169   28.8056 H   0  0  0  0  0  0  0  0  0  0  0  0
    5.1661   -1.6473   27.7188 H   0  0  0  0  0  0  0  0  0  0  0  0
    8.6806   -1.4149   26.7174 H   0  0  0  0  0  0  0  0  0  0  0  0
    7.1922   -0.5434   27.0951 H   0  0  0  0  0  0  0  0  0  0  0  0
    8.2222   -1.5562   24.2364 N   0  0  0  0  0  0  0  0  0  0  0  0
    8.1087   -1.3820   22.8773 C   0  0  0  0  0  0  0  0  0  0  0  0
    8.8614   -1.9438   21.9823 N   0  0  0  0  0  0  0  0  0  0  0  0
    8.3937   -1.5052   20.7595 N   0  0  0  0  0  0  0  0  0  0  0  0
    7.3862   -0.7038   20.9812 C   0  0  0  0  0  0  0  0  0  0  0  0
    6.6299   -0.0029   19.9464 C   0  0  0  0  0  0  0  0  0  0  0  0
    5.4111    0.6525   20.1721 C   0  0  0  0  0  0  0  0  0  0  0  0
    4.8116    1.3013   19.0937 C   0  0  0  0  0  0  0  0  0  0  0  0
    5.4444    1.2771   17.8435 C   0  0  0  0  0  0  0  0  0  0  0  0
    6.6042    0.6405   17.6145 N   0  0  0  0  0  0  0  0  0  0  0  0
    7.1722    0.0189   18.6492 C   0  0  0  0  0  0  0  0  0  0  0  0
    8.1128   -0.4939   18.4573 H   0  0  0  0  0  0  0  0  0  0  0  0
    4.9993    1.7853   16.9898 H   0  0  0  0  0  0  0  0  0  0  0  0
    3.8766    1.8373   19.2116 H   0  0  0  0  0  0  0  0  0  0  0  0
    4.9406    0.6633   21.1605 H   0  0  0  0  0  0  0  0  0  0  0  0
    7.1812   -0.5749   22.3275 N   0  0  0  0  0  0  0  0  0  0  0  0
    6.3856   -0.3391   22.9103 H   0  0  0  0  0  0  0  0  0  0  0  0
    8.9833   -2.1385   24.5366 H   0  0  0  0  0  0  0  0  0  0  0  0
  1  2  2  0
  2  3  1  0
  3  4  1  0
  4  5  2  0
  5  6  1  0
  6  7  2  0
  7  8  1  0
  8  9  2  0
  9 10  1  0
  8 11  1  0
  7 12  1  0
  6 13  1  0
  5 14  1  0
  3 15  1  0
  3 16  1  0
  2 17  1  0
 17 18  1  0
 18 19  2  0
 19 20  1  0
 20 21  2  0
 21 22  1  0
 22 23  2  0
 23 24  1  0
 24 25  2  0
 25 26  1  0
 26 27  2  0
 27 28  1  0
 25 29  1  0
 24 30  1  0
 23 31  1  0
 21 32  1  0
 32 33  1  0
 17 34  1  0
  9  4  1  0
 32 18  1  0
 27 22  1  0
M  END
>  <cnnaffinity>  (1) 
-5.18429

>  <filename>  (1) 
O=C(Cc1ccccc1Cl)Nc1nnc(-c2cccnc2)[nH]1

$$$$
