
     RDKit          3D

 30 32  0  0  0  0  0  0  0  0999 V2000
    5.6351    1.4191   26.7310 O   0  0  0  0  0  0  0  0  0  0  0  0
    5.8669    2.4680   26.0724 C   0  0  0  0  0  0  0  0  0  0  0  0
    5.6303    3.6036   26.5514 O   0  0  0  0  0  1  0  0  0  0  0  0
    6.4492    2.3752   24.6392 C   0  0  0  0  0  0  0  0  0  0  0  0
    6.7040    3.5543   23.9171 C   0  0  0  0  0  0  0  0  0  0  0  0
    7.2453    3.4602   22.6290 C   0  0  0  0  0  0  0  0  0  0  0  0
    7.5212    2.2105   22.0709 C   0  0  0  0  0  0  0  0  0  0  0  0
    7.2433    1.0285   22.7903 C   0  0  0  0  0  0  0  0  0  0  0  0
    7.5551   -0.3048   22.2439 C   0  0  0  0  0  0  0  0  0  0  0  0
    8.1789   -1.3566   22.8768 C   0  0  0  0  0  0  0  0  0  0  0  0
    8.3444   -2.3246   21.8771 C   0  0  0  0  0  0  0  0  0  0  0  0
    7.8616   -1.9303   20.7096 N   0  0  0  0  0  0  0  0  0  0  0  0
    7.3610   -0.6974   20.9362 N   0  0  0  0  0  0  0  0  0  0  0  0
    6.6517   -0.0129   19.9096 C   0  0  0  0  0  0  0  0  0  0  0  0
    5.4314    0.6318   20.1661 C   0  0  0  0  0  0  0  0  0  0  0  0
    4.8097    1.2996   19.1077 C   0  0  0  0  0  0  0  0  0  0  0  0
    5.4089    1.2900   17.8433 C   0  0  0  0  0  0  0  0  0  0  0  0
    6.5761    0.6705   17.5941 N   0  0  0  0  0  0  0  0  0  0  0  0
    7.1769    0.0399   18.6067 C   0  0  0  0  0  0  0  0  0  0  0  0
    8.1239   -0.4396   18.3793 H   0  0  0  0  0  0  0  0  0  0  0  0
    4.9251    1.7795   16.9980 H   0  0  0  0  0  0  0  0  0  0  0  0
    3.8797    1.8396   19.2591 H   0  0  0  0  0  0  0  0  0  0  0  0
    5.0135    0.6386   21.1758 H   0  0  0  0  0  0  0  0  0  0  0  0
    8.8026   -3.2996   21.9748 H   0  0  0  0  0  0  0  0  0  0  0  0
    8.5050   -1.3633   23.9070 H   0  0  0  0  0  0  0  0  0  0  0  0
    6.7186    1.1155   24.0894 C   0  0  0  0  0  0  0  0  0  0  0  0
    6.5329    0.1813   24.6296 H   0  0  0  0  0  0  0  0  0  0  0  0
    7.9406    2.1302   21.0706 H   0  0  0  0  0  0  0  0  0  0  0  0
    7.4520    4.3597   22.0483 H   0  0  0  0  0  0  0  0  0  0  0  0
    6.4930    4.5380   24.3408 H   0  0  0  0  0  0  0  0  0  0  0  0
  1  2  2  0
  2  3  1  0
  2  4  1  0
  4  5  2  0
  5  6  1  0
  6  7  2  0
  7  8  1  0
  8  9  1  0
  9 10  2  0
 10 11  1  0
 11 12  2  0
 12 13  1  0
 13 14  1  0
 14 15  2  0
 15 16  1  0
 16 17  2  0
 17 18  1  0
 18 19  2  0
 19 20  1  0
 17 21  1  0
 16 22  1  0
 15 23  1  0
 11 24  1  0
 10 25  1  0
  8 26  2  0
 26 27  1  0
  7 28  1  0
  6 29  1  0
  5 30  1  0
 26  4  1  0
 13  9  1  0
 19 14  1  0
M  CHG  1   3  -1
M  END
>  <cnnaffinity>  (1) 
-4.95547

>  <filename>  (1) 
O=C([O-])c1cccc(-c2ccnn2-c2cccnc2)c1

$$$$
