
     RDKit          3D

 33 35  0  0  0  0  0  0  0  0999 V2000
    8.6209   -0.4693   26.6992 H   0  0  0  0  0  0  0  0  0  0  0  0
    9.1531   -0.4099   25.7534 C   0  0  0  0  0  0  0  0  0  0  0  0
    8.6154   -1.0607   24.7217 N   0  0  0  0  0  0  0  0  0  0  0  0
    9.2465   -0.9306   23.5408 C   0  0  0  0  0  0  0  0  0  0  0  0
    8.7019   -1.6591   22.2934 C   0  0  0  0  0  0  0  0  0  0  0  0
    7.9345   -0.9262   21.2868 N   0  0  0  0  0  0  0  0  0  0  0  0
    8.3553   -0.0913   20.9116 H   0  0  0  0  0  0  0  0  0  0  0  0
    6.6728   -1.1810   20.8080 C   0  0  0  0  0  0  0  0  0  0  0  0
    5.9534   -2.0879   21.1762 O   0  0  0  0  0  0  0  0  0  0  0  0
    6.2762   -0.2059   19.7551 C   0  0  0  0  0  0  0  0  0  0  0  0
    7.0606   -0.1557   18.6032 C   0  0  0  0  0  0  0  0  0  0  0  0
    7.9329   -0.8016   18.4993 H   0  0  0  0  0  0  0  0  0  0  0  0
    6.8075    0.6420   17.5626 N   0  0  0  0  0  0  0  0  0  0  0  0
    5.7451    1.4546   17.6655 C   0  0  0  0  0  0  0  0  0  0  0  0
    5.5625    2.1005   16.8101 H   0  0  0  0  0  0  0  0  0  0  0  0
    4.9002    1.4884   18.7813 C   0  0  0  0  0  0  0  0  0  0  0  0
    4.0703    2.1865   18.7999 H   0  0  0  0  0  0  0  0  0  0  0  0
    5.1514    0.6218   19.8459 C   0  0  0  0  0  0  0  0  0  0  0  0
    4.4995    0.5867   20.7216 H   0  0  0  0  0  0  0  0  0  0  0  0
    9.6545   -2.6671   21.6812 C   0  0  0  0  0  0  0  0  0  0  0  0
    9.6422   -2.7494   20.5980 H   0  0  0  0  0  0  0  0  0  0  0  0
   10.6411   -2.7536   22.1361 H   0  0  0  0  0  0  0  0  0  0  0  0
    8.4398   -3.1368   22.4269 C   0  0  0  0  0  0  0  0  0  0  0  0
    7.5895   -3.5393   21.8815 H   0  0  0  0  0  0  0  0  0  0  0  0
    8.5949   -3.5674   23.4154 H   0  0  0  0  0  0  0  0  0  0  0  0
   10.3686   -0.2258   23.3542 N   0  0  0  0  0  0  0  0  0  0  0  0
   10.9062    0.4182   24.3944 C   0  0  0  0  0  0  0  0  0  0  0  0
   12.2057    1.2456   24.1708 C   0  0  0  0  0  0  0  0  0  0  0  0
   11.9942    2.5404   24.4881 F   0  0  0  0  0  0  0  0  0  0  0  0
   13.2002    0.8172   24.9753 F   0  0  0  0  0  0  0  0  0  0  0  0
   12.6675    1.2028   22.9196 F   0  0  0  0  0  0  0  0  0  0  0  0
   10.3180    0.3428   25.6582 C   0  0  0  0  0  0  0  0  0  0  0  0
   10.7386    0.8372   26.5220 H   0  0  0  0  0  0  0  0  0  0  0  0
  1  2  1  0
  2  3  2  0
  3  4  1  0
  4  5  1  0
  5  6  1  0
  6  7  1  0
  6  8  1  0
  8  9  2  0
  8 10  1  0
 10 11  2  0
 11 12  1  0
 11 13  1  0
 13 14  2  0
 14 15  1  0
 14 16  1  0
 16 17  1  0
 16 18  2  0
 18 19  1  0
  5 20  1  0
 20 21  1  0
 20 22  1  0
 20 23  1  0
 23 24  1  0
 23 25  1  0
  4 26  2  0
 26 27  1  0
 27 28  1  0
 28 29  1  0
 28 30  1  0
 28 31  1  0
 27 32  2  0
 32 33  1  0
 32  2  1  0
 23  5  1  0
 18 10  1  0
M  END
>  <cnnaffinity>  (1) 
-5.82109

>  <filename>  (1) 
O=C(NC1(c2nccc(C(F)(F)F)n2)CC1)c1cccnc1

$$$$
