
     RDKit          3D

 24 25  0  0  0  0  0  0  0  0999 V2000
    5.0917    1.6994   17.1014 H   0  0  0  0  0  0  0  0  0  0  0  0
    5.4906    1.1192   17.9327 C   0  0  0  0  0  0  0  0  0  0  0  0
    6.6284    0.4493   17.6986 N   0  0  0  0  0  0  0  0  0  0  0  0
    7.1728   -0.2183   18.7223 C   0  0  0  0  0  0  0  0  0  0  0  0
    8.1032   -0.7451   18.5096 H   0  0  0  0  0  0  0  0  0  0  0  0
    6.6201   -0.2502   20.0074 C   0  0  0  0  0  0  0  0  0  0  0  0
    7.4186   -0.8243   21.1120 C   0  0  0  0  0  0  0  0  0  0  0  0
    9.0272   -0.5851   21.3182 S   0  0  0  0  0  0  0  0  0  0  0  0
    6.7302   -1.5645   22.0398 N   0  0  0  0  0  0  0  0  0  0  0  0
    7.2523   -1.6937   22.8938 H   0  0  0  0  0  0  0  0  0  0  0  0
    5.8130   -2.5659   21.7183 C   0  0  0  0  0  0  0  0  0  0  0  0
    5.5276   -2.8043   20.5629 O   0  0  0  0  0  0  0  0  0  0  0  0
    5.2138   -3.2765   22.9027 C   0  0  0  0  0  0  0  0  0  0  0  0
    4.3628   -4.3537   22.7894 C   0  0  0  0  0  0  0  0  0  0  0  0
    4.1069   -4.9131   21.9019 H   0  0  0  0  0  0  0  0  0  0  0  0
    3.6587   -4.7931   24.2777 S   0  0  0  0  0  0  0  0  0  0  0  0
    4.5351   -3.5764   25.1223 C   0  0  0  0  0  0  0  0  0  0  0  0
    4.4276   -3.4798   26.1980 H   0  0  0  0  0  0  0  0  0  0  0  0
    5.3215   -2.8563   24.2825 C   0  0  0  0  0  0  0  0  0  0  0  0
    5.9448   -2.0345   24.6342 H   0  0  0  0  0  0  0  0  0  0  0  0
    5.3775    0.3723   20.2148 C   0  0  0  0  0  0  0  0  0  0  0  0
    4.8675    0.2968   21.1765 H   0  0  0  0  0  0  0  0  0  0  0  0
    4.8228    1.0950   19.1614 C   0  0  0  0  0  0  0  0  0  0  0  0
    3.9007    1.6464   19.2822 H   0  0  0  0  0  0  0  0  0  0  0  0
  1  2  1  0
  2  3  2  0
  3  4  1  0
  4  5  1  0
  4  6  2  0
  6  7  1  0
  7  8  2  0
  7  9  1  0
  9 10  1  0
  9 11  1  0
 11 12  2  0
 11 13  1  0
 13 14  2  0
 14 15  1  0
 14 16  1  0
 16 17  1  0
 17 18  1  0
 17 19  2  0
 19 20  1  0
  6 21  1  0
 21 22  1  0
 21 23  2  0
 23 24  1  0
 23  2  1  0
 19 13  1  0
M  END
>  <cnnaffinity>  (1) 
-4.68026

>  <filename>  (1) 
O=C(NC(=S)c1cccnc1)c1ccsc1

$$$$
