
     RDKit          3D

 36 38  0  0  0  0  0  0  0  0999 V2000
    5.6073   -6.7575   23.0552 O   0  0  0  0  0  0  0  0  0  0  0  0
    5.1467   -5.6418   23.1161 C   0  0  0  0  0  0  0  0  0  0  0  0
    4.7341   -4.9160   21.8731 C   0  0  0  0  0  0  0  0  0  0  0  0
    5.8187   -3.9752   21.5679 C   0  0  0  0  0  0  0  0  0  0  0  0
    7.0045   -4.3357   21.1868 N   0  0  0  0  0  0  0  0  0  0  0  0
    7.6729   -3.1377   21.0343 O   0  0  0  0  0  0  0  0  0  0  0  0
    6.8057   -2.1673   21.3263 C   0  0  0  0  0  0  0  0  0  0  0  0
    7.2664   -0.7104   21.1159 C   0  0  0  0  0  0  0  0  0  0  0  0
    7.0830   -0.0573   22.3017 F   0  0  0  0  0  0  0  0  0  0  0  0
    8.6097   -0.7140   20.8813 F   0  0  0  0  0  0  0  0  0  0  0  0
    6.5612    0.0419   19.9952 C   0  0  0  0  0  0  0  0  0  0  0  0
    5.3249    0.6877   20.1588 C   0  0  0  0  0  0  0  0  0  0  0  0
    4.7706    1.3246   19.0442 C   0  0  0  0  0  0  0  0  0  0  0  0
    5.4576    1.2850   17.8266 C   0  0  0  0  0  0  0  0  0  0  0  0
    6.6305    0.6579   17.6627 N   0  0  0  0  0  0  0  0  0  0  0  0
    7.1669    0.0668   18.7305 C   0  0  0  0  0  0  0  0  0  0  0  0
    8.1267   -0.4234   18.5807 H   0  0  0  0  0  0  0  0  0  0  0  0
    5.0631    1.7750   16.9371 H   0  0  0  0  0  0  0  0  0  0  0  0
    3.8282    1.8595   19.0969 H   0  0  0  0  0  0  0  0  0  0  0  0
    4.8128    0.7195   21.1234 H   0  0  0  0  0  0  0  0  0  0  0  0
    5.6427   -2.6286   21.7051 N   0  0  0  0  0  0  0  0  0  0  0  0
    3.8191   -4.3462   22.0238 H   0  0  0  0  0  0  0  0  0  0  0  0
    4.6391   -5.6540   21.0809 H   0  0  0  0  0  0  0  0  0  0  0  0
    4.9904   -4.8986   24.2530 N   0  0  0  0  0  0  0  0  0  0  0  0
    5.0305   -5.3525   25.5767 C   0  0  0  0  0  0  0  0  0  0  0  0
    5.0750   -4.4089   26.6094 C   0  0  0  0  0  0  0  0  0  0  0  0
    5.1080   -4.8734   27.9275 C   0  0  0  0  0  0  0  0  0  0  0  0
    5.2166   -3.7312   29.2382 Cl  0  0  0  0  0  0  0  0  0  0  0  0
    5.0868   -6.2391   28.2299 C   0  0  0  0  0  0  0  0  0  0  0  0
    5.0417   -7.1596   27.1784 C   0  0  0  0  0  0  0  0  0  0  0  0
    4.9988   -6.7261   25.8556 C   0  0  0  0  0  0  0  0  0  0  0  0
    4.9392   -7.4132   25.0261 H   0  0  0  0  0  0  0  0  0  0  0  0
    5.0379   -8.2262   27.3904 H   0  0  0  0  0  0  0  0  0  0  0  0
    5.1058   -6.5653   29.2647 H   0  0  0  0  0  0  0  0  0  0  0  0
    5.0800   -3.3409   26.4018 H   0  0  0  0  0  0  0  0  0  0  0  0
    4.9801   -3.9048   24.0952 H   0  0  0  0  0  0  0  0  0  0  0  0
  1  2  2  0
  2  3  1  0
  3  4  1  0
  4  5  2  0
  5  6  1  0
  6  7  1  0
  7  8  1  0
  8  9  1  0
  8 10  1  0
  8 11  1  0
 11 12  2  0
 12 13  1  0
 13 14  2  0
 14 15  1  0
 15 16  2  0
 16 17  1  0
 14 18  1  0
 13 19  1  0
 12 20  1  0
  7 21  2  0
  3 22  1  0
  3 23  1  0
  2 24  1  0
 24 25  1  0
 25 26  2  0
 26 27  1  0
 27 28  1  0
 27 29  2  0
 29 30  1  0
 30 31  2  0
 31 32  1  0
 30 33  1  0
 29 34  1  0
 26 35  1  0
 24 36  1  0
 21  4  1  0
 31 25  1  0
 16 11  1  0
M  END
>  <cnnaffinity>  (1) 
-5.05268

>  <filename>  (1) 
O=C(Cc1noc(C(F)(F)c2cccnc2)n1)Nc1cccc(Cl)c1

$$$$
