
     RDKit          3D

 33 35  0  0  0  0  0  0  0  0999 V2000
    4.9928    1.8426   16.9639 H   0  0  0  0  0  0  0  0  0  0  0  0
    5.4192    1.3142   17.8184 C   0  0  0  0  0  0  0  0  0  0  0  0
    6.5691    0.6609   17.5915 N   0  0  0  0  0  0  0  0  0  0  0  0
    7.1347    0.0246   18.6194 C   0  0  0  0  0  0  0  0  0  0  0  0
    8.0524   -0.5179   18.4007 H   0  0  0  0  0  0  0  0  0  0  0  0
    6.6166    0.0208   19.9271 C   0  0  0  0  0  0  0  0  0  0  0  0
    7.3628   -0.7319   20.9497 C   0  0  0  0  0  0  0  0  0  0  0  0
    7.8919   -1.9075   20.7391 N   0  0  0  0  0  0  0  0  0  0  0  0
    8.4940   -2.3246   21.8954 N   0  0  0  0  0  0  0  0  0  0  0  0
    8.3333   -1.3757   22.7726 C   0  0  0  0  0  0  0  0  0  0  0  0
    8.7354   -1.4029   23.7768 H   0  0  0  0  0  0  0  0  0  0  0  0
    7.5984   -0.3298   22.2555 N   0  0  0  0  0  0  0  0  0  0  0  0
    7.4691    1.0075   22.8694 C   0  0  0  0  0  0  0  0  0  0  0  0
    8.4504    1.4434   23.0457 H   0  0  0  0  0  0  0  0  0  0  0  0
    6.9683    1.6669   22.1541 H   0  0  0  0  0  0  0  0  0  0  0  0
    6.6871    1.1646   24.1869 C   0  0  0  0  0  0  0  0  0  0  0  0
    7.0227    1.9880   25.0155 O   0  0  0  0  0  0  0  0  0  0  0  0
    5.5719    0.3904   24.2736 N   0  0  0  0  0  0  0  0  0  0  0  0
    5.4918   -0.3885   23.6404 H   0  0  0  0  0  0  0  0  0  0  0  0
    4.5850    0.4711   25.2427 C   0  0  0  0  0  0  0  0  0  0  0  0
    4.3236    1.6387   25.9522 C   0  0  0  0  0  0  0  0  0  0  0  0
    4.9087    2.5308   25.7923 H   0  0  0  0  0  0  0  0  0  0  0  0
    3.2969    1.6041   26.8916 C   0  0  0  0  0  0  0  0  0  0  0  0
    3.0719    2.4937   27.4807 H   0  0  0  0  0  0  0  0  0  0  0  0
    2.5426    0.5251   27.1509 N   0  0  0  0  0  0  0  0  0  0  0  0
    2.8176   -0.5849   26.4532 C   0  0  0  0  0  0  0  0  0  0  0  0
    2.2070   -1.4623   26.6710 H   0  0  0  0  0  0  0  0  0  0  0  0
    3.8224   -0.6635   25.5001 C   0  0  0  0  0  0  0  0  0  0  0  0
    4.0321   -1.5952   24.9955 H   0  0  0  0  0  0  0  0  0  0  0  0
    5.3982    0.6827   20.1445 C   0  0  0  0  0  0  0  0  0  0  0  0
    4.9136    0.6859   21.1236 H   0  0  0  0  0  0  0  0  0  0  0  0
    4.7904    1.3337   19.0675 C   0  0  0  0  0  0  0  0  0  0  0  0
    3.8539    1.8665   19.1757 H   0  0  0  0  0  0  0  0  0  0  0  0
  1  2  1  0
  2  3  2  0
  3  4  1  0
  4  5  1  0
  4  6  2  0
  6  7  1  0
  7  8  2  0
  8  9  1  0
  9 10  2  0
 10 11  1  0
 10 12  1  0
 12 13  1  0
 13 14  1  0
 13 15  1  0
 13 16  1  0
 16 17  2  0
 16 18  1  0
 18 19  1  0
 18 20  1  0
 20 21  2  0
 21 22  1  0
 21 23  1  0
 23 24  1  0
 23 25  2  0
 25 26  1  0
 26 27  1  0
 26 28  2  0
 28 29  1  0
  6 30  1  0
 30 31  1  0
 30 32  2  0
 32 33  1  0
 32  2  1  0
 12  7  1  0
 28 20  1  0
M  END
>  <cnnaffinity>  (1) 
-5.02469

>  <filename>  (1) 
O=C(Cn1cnnc1-c1cccnc1)Nc1ccncc1

$$$$
