
     RDKit          3D

 37 38  0  0  0  0  0  0  0  0999 V2000
    5.0045    1.7421   17.0721 H   0  0  0  0  0  0  0  0  0  0  0  0
    5.4340    1.2137   17.9221 C   0  0  0  0  0  0  0  0  0  0  0  0
    6.5708    0.5455   17.6824 N   0  0  0  0  0  0  0  0  0  0  0  0
    7.1407   -0.1049   18.6957 C   0  0  0  0  0  0  0  0  0  0  0  0
    8.0586   -0.6464   18.4613 H   0  0  0  0  0  0  0  0  0  0  0  0
    6.6234   -0.1208   19.9973 C   0  0  0  0  0  0  0  0  0  0  0  0
    7.4531   -0.7599   21.0483 C   0  0  0  0  0  0  0  0  0  0  0  0
    9.0833   -0.7401   21.0495 S   0  0  0  0  0  0  0  0  0  0  0  0
    6.6919   -1.4205   21.9581 N   0  0  0  0  0  0  0  0  0  0  0  0
    5.8592   -1.9012   21.6581 H   0  0  0  0  0  0  0  0  0  0  0  0
    7.0482   -1.6816   23.2450 C   0  0  0  0  0  0  0  0  0  0  0  0
    7.9294   -1.1977   23.9000 O   0  0  0  0  0  0  0  0  0  0  0  0
    6.1798   -2.5522   23.8687 N   0  0  0  0  0  0  0  0  0  0  0  0
    6.4249   -2.5746   24.8392 H   0  0  0  0  0  0  0  0  0  0  0  0
    5.5427   -3.6153   23.2993 C   0  0  0  0  0  0  0  0  0  0  0  0
    5.5090   -3.7836   22.0911 O   0  0  0  0  0  0  0  0  0  0  0  0
    4.8593   -4.5493   24.2768 C   0  0  0  0  0  0  0  0  0  0  0  0
    4.7282   -4.0041   25.2238 H   0  0  0  0  0  0  0  0  0  0  0  0
    5.7262   -5.7936   24.5802 C   0  0  0  0  0  0  0  0  0  0  0  0
    6.6930   -5.4900   25.0037 H   0  0  0  0  0  0  0  0  0  0  0  0
    5.9414   -6.3352   23.6454 H   0  0  0  0  0  0  0  0  0  0  0  0
    4.9789   -6.7015   25.5631 C   0  0  0  0  0  0  0  0  0  0  0  0
    4.8130   -6.1452   26.4963 H   0  0  0  0  0  0  0  0  0  0  0  0
    5.6005   -7.5594   25.8364 H   0  0  0  0  0  0  0  0  0  0  0  0
    3.6203   -7.1269   24.9901 C   0  0  0  0  0  0  0  0  0  0  0  0
    3.0988   -7.8059   25.6713 H   0  0  0  0  0  0  0  0  0  0  0  0
    3.7939   -7.6848   24.0599 H   0  0  0  0  0  0  0  0  0  0  0  0
    2.7444   -5.9035   24.6878 C   0  0  0  0  0  0  0  0  0  0  0  0
    2.4982   -5.3875   25.6286 H   0  0  0  0  0  0  0  0  0  0  0  0
    1.7814   -6.1954   24.2519 H   0  0  0  0  0  0  0  0  0  0  0  0
    3.4540   -4.9183   23.7579 C   0  0  0  0  0  0  0  0  0  0  0  0
    3.5419   -5.3148   22.7362 H   0  0  0  0  0  0  0  0  0  0  0  0
    2.8580   -4.0061   23.6882 H   0  0  0  0  0  0  0  0  0  0  0  0
    5.4063    0.5509   20.2330 C   0  0  0  0  0  0  0  0  0  0  0  0
    4.9420    0.5522   21.2207 H   0  0  0  0  0  0  0  0  0  0  0  0
    4.8149    1.2443   19.1762 C   0  0  0  0  0  0  0  0  0  0  0  0
    3.8916    1.8006   19.3010 H   0  0  0  0  0  0  0  0  0  0  0  0
  1  2  1  0
  2  3  2  0
  3  4  1  0
  4  5  1  0
  4  6  2  0
  6  7  1  0
  7  8  2  0
  7  9  1  0
  9 10  1  0
  9 11  1  0
 11 12  2  0
 11 13  1  0
 13 14  1  0
 13 15  1  0
 15 16  2  0
 15 17  1  0
 17 18  1  0
 17 19  1  0
 19 20  1  0
 19 21  1  0
 19 22  1  0
 22 23  1  0
 22 24  1  0
 22 25  1  0
 25 26  1  0
 25 27  1  0
 25 28  1  0
 28 29  1  0
 28 30  1  0
 28 31  1  0
 31 32  1  0
 31 33  1  0
  6 34  1  0
 34 35  1  0
 34 36  2  0
 36 37  1  0
 36  2  1  0
 31 17  1  0
M  END
>  <cnnaffinity>  (1) 
-5.2593

>  <filename>  (1) 
O=C(NC(=O)C1CCCCC1)NC(=S)c1cccnc1

$$$$
