
     RDKit          3D

 28 30  0  0  0  0  0  0  0  0999 V2000
    7.5061   -6.5060   27.0393 H   0  0  0  0  0  0  0  0  0  0  0  0
    7.7662   -5.9503   26.1424 C   0  0  0  0  0  0  0  0  0  0  0  0
    7.0785   -4.8034   25.7930 N   0  0  0  0  0  0  0  0  0  0  0  0
    7.5905   -4.3223   24.7084 C   0  0  0  0  0  0  0  0  0  0  0  0
    7.0407   -3.1864   24.1926 N   0  0  0  0  0  0  0  0  0  0  0  0
    6.1986   -3.0236   24.7208 H   0  0  0  0  0  0  0  0  0  0  0  0
    7.5720   -2.3634   23.2200 C   0  0  0  0  0  0  0  0  0  0  0  0
    6.3840   -1.6948   22.1194 S   0  0  0  0  0  0  0  0  0  0  0  0
    7.3838   -0.7545   21.0081 C   0  0  0  0  0  0  0  0  0  0  0  0
    6.6476   -0.0265   19.9337 C   0  0  0  0  0  0  0  0  0  0  0  0
    7.1717    0.0460   18.6255 C   0  0  0  0  0  0  0  0  0  0  0  0
    8.1141   -0.4319   18.3596 H   0  0  0  0  0  0  0  0  0  0  0  0
    6.5709    0.6644   17.6001 N   0  0  0  0  0  0  0  0  0  0  0  0
    5.4097    1.2867   17.8459 C   0  0  0  0  0  0  0  0  0  0  0  0
    4.9464    1.7856   16.9942 H   0  0  0  0  0  0  0  0  0  0  0  0
    4.8103    1.3072   19.1088 C   0  0  0  0  0  0  0  0  0  0  0  0
    3.8797    1.8428   19.2468 H   0  0  0  0  0  0  0  0  0  0  0  0
    5.4340    0.6446   20.1677 C   0  0  0  0  0  0  0  0  0  0  0  0
    5.0045    0.6464   21.1690 H   0  0  0  0  0  0  0  0  0  0  0  0
    8.7200   -0.6899   21.1199 C   0  0  0  0  0  0  0  0  0  0  0  0
    9.2962   -0.0909   20.4302 H   0  0  0  0  0  0  0  0  0  0  0  0
    9.5502   -1.3291   22.1579 C   0  0  0  0  0  0  0  0  0  0  0  0
   10.7652   -1.1870   22.1610 O   0  0  0  0  0  0  0  0  0  0  0  0
    8.8894   -2.1273   23.1657 C   0  0  0  0  0  0  0  0  0  0  0  0
    9.5524   -2.5632   23.8988 H   0  0  0  0  0  0  0  0  0  0  0  0
    8.8459   -5.2552   23.9562 S   0  0  0  0  0  0  0  0  0  0  0  0
    8.7565   -6.3317   25.3030 C   0  0  0  0  0  0  0  0  0  0  0  0
    9.4625   -7.1379   25.4029 H   0  0  0  0  0  0  0  0  0  0  0  0
  1  2  1  0
  2  3  1  0
  3  4  2  0
  4  5  1  0
  5  6  1  0
  5  7  1  0
  7  8  1  0
  8  9  1  0
  9 10  1  0
 10 11  2  0
 11 12  1  0
 11 13  1  0
 13 14  2  0
 14 15  1  0
 14 16  1  0
 16 17  1  0
 16 18  2  0
 18 19  1  0
  9 20  2  0
 20 21  1  0
 20 22  1  0
 22 23  2  0
 22 24  1  0
 24 25  1  0
  4 26  1  0
 26 27  1  0
 27 28  1  0
 27  2  2  0
 24  7  2  0
 18 10  1  0
M  END
>  <cnnaffinity>  (1) 
-4.80218

>  <filename>  (1) 
O=c1cc(Nc2nccs2)sc(-c2cccnc2)c1

$$$$
