
     RDKit          3D

 32 34  0  0  0  0  0  0  0  0999 V2000
   11.9423   -3.9694   24.5840 H   0  0  0  0  0  0  0  0  0  0  0  0
   10.8617   -3.9551   24.6566 C   0  0  0  0  0  0  0  0  0  0  0  0
   10.2386   -3.0851   23.8697 N   0  0  0  0  0  0  0  0  0  0  0  0
    8.8964   -3.1284   23.8568 C   0  0  0  0  0  0  0  0  0  0  0  0
    8.2241   -2.1877   22.8415 C   0  0  0  0  0  0  0  0  0  0  0  0
    8.8417   -1.1019   22.3193 C   0  0  0  0  0  0  0  0  0  0  0  0
    9.8024   -0.7466   22.6464 H   0  0  0  0  0  0  0  0  0  0  0  0
    8.2910   -0.3179   21.2247 C   0  0  0  0  0  0  0  0  0  0  0  0
    8.8684    0.6457   20.7630 O   0  0  0  0  0  0  0  0  0  0  0  0
    7.0515   -0.7394   20.6875 N   0  0  0  0  0  0  0  0  0  0  0  0
    6.4401    0.0298   19.6092 C   0  0  0  0  0  0  0  0  0  0  0  0
    7.0408    0.1504   18.3370 C   0  0  0  0  0  0  0  0  0  0  0  0
    7.9949   -0.3372   18.1493 H   0  0  0  0  0  0  0  0  0  0  0  0
    6.5120    0.8533   17.3268 N   0  0  0  0  0  0  0  0  0  0  0  0
    5.3684    1.5182   17.5641 C   0  0  0  0  0  0  0  0  0  0  0  0
    4.9626    2.0920   16.7310 H   0  0  0  0  0  0  0  0  0  0  0  0
    4.7106    1.4954   18.7976 C   0  0  0  0  0  0  0  0  0  0  0  0
    3.7976    2.0661   18.9331 H   0  0  0  0  0  0  0  0  0  0  0  0
    5.2589    0.7355   19.8422 C   0  0  0  0  0  0  0  0  0  0  0  0
    4.8004    0.7084   20.8291 H   0  0  0  0  0  0  0  0  0  0  0  0
    6.4647   -1.9210   21.1257 C   0  0  0  0  0  0  0  0  0  0  0  0
    5.6013   -2.5225   20.5354 O   0  0  0  0  0  0  0  0  0  0  0  0
    6.9468   -2.4336   22.3221 N   0  0  0  0  0  0  0  0  0  0  0  0
    6.3935   -3.2430   22.5577 H   0  0  0  0  0  0  0  0  0  0  0  0
    8.1461   -3.9639   24.5856 N   0  0  0  0  0  0  0  0  0  0  0  0
    8.7891   -4.8262   25.3964 C   0  0  0  0  0  0  0  0  0  0  0  0
    8.0144   -5.9106   26.2012 C   0  0  0  0  0  0  0  0  0  0  0  0
    7.9209   -5.6239   27.5128 F   0  0  0  0  0  0  0  0  0  0  0  0
    8.7115   -7.0666   26.1409 F   0  0  0  0  0  0  0  0  0  0  0  0
    6.7819   -6.1385   25.7391 F   0  0  0  0  0  0  0  0  0  0  0  0
   10.1850   -4.8550   25.4721 C   0  0  0  0  0  0  0  0  0  0  0  0
   10.7192   -5.5707   26.0866 H   0  0  0  0  0  0  0  0  0  0  0  0
  1  2  1  0
  2  3  2  0
  3  4  1  0
  4  5  1  0
  5  6  2  0
  6  7  1  0
  6  8  1  0
  8  9  2  0
  8 10  1  0
 10 11  1  0
 11 12  2  0
 12 13  1  0
 12 14  1  0
 14 15  2  0
 15 16  1  0
 15 17  1  0
 17 18  1  0
 17 19  2  0
 19 20  1  0
 10 21  1  0
 21 22  2  0
 21 23  1  0
 23 24  1  0
  4 25  2  0
 25 26  1  0
 26 27  1  0
 27 28  1  0
 27 29  1  0
 27 30  1  0
 26 31  2  0
 31 32  1  0
 31  2  1  0
 23  5  1  0
 19 11  1  0
M  END
>  <cnnaffinity>  (1) 
-5.02881

>  <filename>  (1) 
O=c1cc(-c2nccc(C(F)(F)F)n2)[nH]c(=O)n1-c1cccnc1

$$$$
