
     RDKit          3D

 38 41  0  0  0  0  0  0  0  0999 V2000
    8.5252   -1.7933   27.6711 O   0  0  0  0  0  0  0  0  0  0  0  0
    8.0981   -1.8699   26.5544 C   0  0  0  0  0  0  0  0  0  0  0  0
    7.7067   -0.6787   25.9416 O   0  0  0  0  0  0  0  0  0  0  0  0
    7.5173   -0.5955   24.6131 C   0  0  0  0  0  0  0  0  0  0  0  0
    7.6641   -1.6565   23.7917 C   0  0  0  0  0  0  0  0  0  0  0  0
    7.6883   -1.4095   22.3421 C   0  0  0  0  0  0  0  0  0  0  0  0
    6.7422   -0.7855   21.6687 N   0  0  0  0  0  0  0  0  0  0  0  0
    7.2799   -0.6194   20.4383 C   0  0  0  0  0  0  0  0  0  0  0  0
    6.5651    0.1173   19.4010 C   0  0  0  0  0  0  0  0  0  0  0  0
    5.3661    0.7884   19.6844 C   0  0  0  0  0  0  0  0  0  0  0  0
    4.7484    1.4861   18.6528 C   0  0  0  0  0  0  0  0  0  0  0  0
    5.3526    1.4928   17.3896 C   0  0  0  0  0  0  0  0  0  0  0  0
    6.4959    0.8498   17.1079 N   0  0  0  0  0  0  0  0  0  0  0  0
    7.0892    0.1835   18.1032 C   0  0  0  0  0  0  0  0  0  0  0  0
    8.0270   -0.3124   17.8602 H   0  0  0  0  0  0  0  0  0  0  0  0
    4.9004    2.0404   16.5688 H   0  0  0  0  0  0  0  0  0  0  0  0
    3.8256    2.0306   18.8208 H   0  0  0  0  0  0  0  0  0  0  0  0
    4.9509    0.7624   20.6954 H   0  0  0  0  0  0  0  0  0  0  0  0
    8.4959   -1.1091   20.3037 N   0  0  0  0  0  0  0  0  0  0  0  0
    8.7504   -1.6329   21.5277 N   0  0  0  0  0  0  0  0  0  0  0  0
   10.0522   -2.2499   21.7204 C   0  0  0  0  0  0  0  0  0  0  0  0
   11.1271   -1.2721   22.1812 C   0  0  0  0  0  0  0  0  0  0  0  0
   12.3587   -1.8002   21.8374 F   0  0  0  0  0  0  0  0  0  0  0  0
   11.1150   -1.1279   23.2632 H   0  0  0  0  0  0  0  0  0  0  0  0
   11.0115   -0.3042   21.6873 H   0  0  0  0  0  0  0  0  0  0  0  0
    9.9677   -3.0889   22.4147 H   0  0  0  0  0  0  0  0  0  0  0  0
   10.3454   -2.6184   20.7401 H   0  0  0  0  0  0  0  0  0  0  0  0
    7.7159   -2.9965   24.3638 C   0  0  0  0  0  0  0  0  0  0  0  0
    7.4932   -4.1678   23.6024 C   0  0  0  0  0  0  0  0  0  0  0  0
    7.3927   -5.3939   24.2416 C   0  0  0  0  0  0  0  0  0  0  0  0
    7.5345   -5.4851   25.6424 C   0  0  0  0  0  0  0  0  0  0  0  0
    7.7929   -4.3499   26.3953 C   0  0  0  0  0  0  0  0  0  0  0  0
    7.8777   -3.0999   25.7628 C   0  0  0  0  0  0  0  0  0  0  0  0
    7.9091   -4.4171   27.4767 H   0  0  0  0  0  0  0  0  0  0  0  0
    7.4478   -6.4456   26.1409 H   0  0  0  0  0  0  0  0  0  0  0  0
    7.2001   -6.2874   23.6563 H   0  0  0  0  0  0  0  0  0  0  0  0
    7.3682   -4.0875   22.5235 H   0  0  0  0  0  0  0  0  0  0  0  0
    7.2175    0.4107   24.3215 H   0  0  0  0  0  0  0  0  0  0  0  0
  1  2  2  0
  2  3  1  0
  3  4  1  0
  4  5  2  0
  5  6  1  0
  6  7  2  0
  7  8  1  0
  8  9  1  0
  9 10  2  0
 10 11  1  0
 11 12  2  0
 12 13  1  0
 13 14  2  0
 14 15  1  0
 12 16  1  0
 11 17  1  0
 10 18  1  0
  8 19  2  0
 19 20  1  0
 20 21  1  0
 21 22  1  0
 22 23  1  0
 22 24  1  0
 22 25  1  0
 21 26  1  0
 21 27  1  0
  5 28  1  0
 28 29  2  0
 29 30  1  0
 30 31  2  0
 31 32  1  0
 32 33  2  0
 32 34  1  0
 31 35  1  0
 30 36  1  0
 29 37  1  0
  4 38  1  0
 33  2  1  0
 20  6  1  0
 33 28  1  0
 14  9  1  0
M  END
>  <cnnaffinity>  (1) 
-5.82157

>  <filename>  (1) 
O=c1occ(-c2nc(-c3cccnc3)nn2CCF)c2ccccc12

$$$$
