
     RDKit          3D

 34 36  0  0  0  0  0  0  0  0999 V2000
    5.0159    1.7767   16.9930 H   0  0  0  0  0  0  0  0  0  0  0  0
    5.4547    1.2618   17.8456 C   0  0  0  0  0  0  0  0  0  0  0  0
    6.6124    0.6257   17.6139 N   0  0  0  0  0  0  0  0  0  0  0  0
    7.1869   -0.0030   18.6470 C   0  0  0  0  0  0  0  0  0  0  0  0
    8.1438   -0.4818   18.4444 H   0  0  0  0  0  0  0  0  0  0  0  0
    6.6347   -0.0523   19.9379 C   0  0  0  0  0  0  0  0  0  0  0  0
    7.3497   -0.7724   21.0523 C   0  0  2  0  0  0  0  0  0  0  0  0
    6.9873   -0.3769   22.0097 H   0  0  0  0  0  0  0  0  0  0  0  0
    8.7530   -0.4990   20.9891 O   0  0  0  0  0  0  0  0  0  0  0  0
    9.4924   -1.6207   21.1537 C   0  0  0  0  0  0  0  0  0  0  0  0
   10.6856   -1.6623   21.2248 O   0  0  0  0  0  0  0  0  0  0  0  0
    8.6363   -2.7017   21.2494 N   0  0  0  0  0  0  0  0  0  0  0  0
    9.0565   -3.5232   20.8442 H   0  0  0  0  0  0  0  0  0  0  0  0
    7.2410   -2.3264   21.0153 C   0  0  1  0  0  0  0  0  0  0  0  0
    6.8666   -2.6618   20.0431 H   0  0  0  0  0  0  0  0  0  0  0  0
    6.1625   -2.8349   22.0197 C   0  0  0  0  0  0  0  0  0  0  0  0
    5.0332   -3.0620   21.6301 O   0  0  0  0  0  0  0  0  0  0  0  0
    6.6130   -2.9856   23.2958 N   0  0  0  0  0  0  0  0  0  0  0  0
    7.6030   -2.8312   23.3923 H   0  0  0  0  0  0  0  0  0  0  0  0
    5.9076   -3.2834   24.4758 C   0  0  0  0  0  0  0  0  0  0  0  0
    4.5154   -3.1931   24.5727 C   0  0  0  0  0  0  0  0  0  0  0  0
    3.9323   -2.9997   23.6859 H   0  0  0  0  0  0  0  0  0  0  0  0
    3.9074   -3.3489   25.8222 C   0  0  0  0  0  0  0  0  0  0  0  0
    2.8312   -3.2217   25.8957 H   0  0  0  0  0  0  0  0  0  0  0  0
    4.6628   -3.6591   26.9551 C   0  0  0  0  0  0  0  0  0  0  0  0
    4.1790   -3.7438   27.9212 H   0  0  0  0  0  0  0  0  0  0  0  0
    6.0472   -3.8307   26.8396 C   0  0  0  0  0  0  0  0  0  0  0  0
    6.6385   -4.1113   27.7102 H   0  0  0  0  0  0  0  0  0  0  0  0
    6.6654   -3.6322   25.6025 C   0  0  0  0  0  0  0  0  0  0  0  0
    7.7426   -3.7226   25.5149 H   0  0  0  0  0  0  0  0  0  0  0  0
    5.4161    0.6041   20.1560 C   0  0  0  0  0  0  0  0  0  0  0  0
    4.9602    0.6084   21.1488 H   0  0  0  0  0  0  0  0  0  0  0  0
    4.8166    1.2748   19.0893 C   0  0  0  0  0  0  0  0  0  0  0  0
    3.8908    1.8248   19.2106 H   0  0  0  0  0  0  0  0  0  0  0  0
  1  2  1  0
  2  3  2  0
  3  4  1  0
  4  5  1  0
  4  6  2  0
  6  7  1  0
  7  8  1  1
  7  9  1  0
  9 10  1  0
 10 11  2  0
 10 12  1  0
 12 13  1  0
 12 14  1  0
 14 15  1  6
 14 16  1  0
 16 17  2  0
 16 18  1  0
 18 19  1  0
 18 20  1  0
 20 21  2  0
 21 22  1  0
 21 23  1  0
 23 24  1  0
 23 25  2  0
 25 26  1  0
 25 27  1  0
 27 28  1  0
 27 29  2  0
 29 30  1  0
  6 31  1  0
 31 32  1  0
 31 33  2  0
 33 34  1  0
 33  2  1  0
 14  7  1  0
 29 20  1  0
M  END
>  <cnnaffinity>  (1) 
-5.09691

>  <filename>  (1) 
O=C1N[C@@H](C(=O)Nc2ccccc2)[C@H](c2cccnc2)O1

$$$$
