
     RDKit          3D

 32 34  0  0  0  0  0  0  0  0999 V2000
    8.0904   -2.7508   22.5904 H   0  0  0  0  0  0  0  0  0  0  0  0
    7.4442   -3.1095   21.7861 C   0  0  0  0  0  0  0  0  0  0  0  0
    7.1970   -4.4188   21.6441 C   0  0  0  0  0  0  0  0  0  0  0  0
    7.7827   -5.6746   22.7325 S   0  0  0  0  0  0  0  0  0  0  0  0
    6.8533   -6.9070   21.8245 C   0  0  0  0  0  0  0  0  0  0  0  0
    6.8634   -8.0861   22.0293 O   0  0  0  0  0  0  0  0  0  0  0  0
    6.1520   -6.2883   20.8136 N   0  0  0  0  0  0  0  0  0  0  0  0
    5.7522   -6.8499   20.0873 H   0  0  0  0  0  0  0  0  0  0  0  0
    6.3467   -4.9526   20.5916 C   0  0  0  0  0  0  0  0  0  0  0  0
    5.8566   -4.3723   19.6368 O   0  0  0  0  0  0  0  0  0  0  0  0
    6.9256   -2.1983   20.9348 N   0  0  0  0  0  0  0  0  0  0  0  0
    6.4315   -2.5902   20.1356 H   0  0  0  0  0  0  0  0  0  0  0  0
    7.3447   -0.8236   20.9723 C   0  0  0  0  0  0  0  0  0  0  0  0
    6.6057   -0.0645   19.9085 C   0  0  0  0  0  0  0  0  0  0  0  0
    7.1219   -0.0356   18.6064 C   0  0  0  0  0  0  0  0  0  0  0  0
    8.0745   -0.5224   18.3891 H   0  0  0  0  0  0  0  0  0  0  0  0
    6.5531    0.6075   17.5804 N   0  0  0  0  0  0  0  0  0  0  0  0
    5.4115    1.2667   17.8271 C   0  0  0  0  0  0  0  0  0  0  0  0
    4.9827    1.8136   16.9897 H   0  0  0  0  0  0  0  0  0  0  0  0
    4.7958    1.2892   19.0828 C   0  0  0  0  0  0  0  0  0  0  0  0
    3.8829    1.8538   19.2226 H   0  0  0  0  0  0  0  0  0  0  0  0
    5.3984    0.6111   20.1402 C   0  0  0  0  0  0  0  0  0  0  0  0
    4.9565    0.6188   21.1385 H   0  0  0  0  0  0  0  0  0  0  0  0
    7.3089   -0.2012   22.4012 C   0  0  0  0  0  0  0  0  0  0  0  0
    6.8029   -0.8132   23.1551 H   0  0  0  0  0  0  0  0  0  0  0  0
    6.8672    0.7961   22.4072 H   0  0  0  0  0  0  0  0  0  0  0  0
    8.8564   -0.1648   22.4450 C   0  0  0  0  0  0  0  0  0  0  0  0
    9.3129   -0.8406   23.1784 H   0  0  0  0  0  0  0  0  0  0  0  0
    9.2828    0.8325   22.5955 H   0  0  0  0  0  0  0  0  0  0  0  0
    8.9032   -0.6654   20.9811 C   0  0  0  0  0  0  0  0  0  0  0  0
    9.4432   -1.6031   20.8072 H   0  0  0  0  0  0  0  0  0  0  0  0
    9.2624    0.0849   20.2759 H   0  0  0  0  0  0  0  0  0  0  0  0
  1  2  1  0
  2  3  2  3
  3  4  1  0
  4  5  1  0
  5  6  2  0
  5  7  1  0
  7  8  1  0
  7  9  1  0
  9 10  2  0
  2 11  1  0
 11 12  1  0
 11 13  1  0
 13 14  1  0
 14 15  2  0
 15 16  1  0
 15 17  1  0
 17 18  2  0
 18 19  1  0
 18 20  1  0
 20 21  1  0
 20 22  2  0
 22 23  1  0
 13 24  1  0
 24 25  1  0
 24 26  1  0
 24 27  1  0
 27 28  1  0
 27 29  1  0
 27 30  1  0
 30 31  1  0
 30 32  1  0
  9  3  1  0
 30 13  1  0
 22 14  1  0
M  END
>  <cnnaffinity>  (1) 
-5.5012

>  <filename>  (1) 
O=C1NC(=O)C(=CNC2(c3cccnc3)CCC2)S1

$$$$
