
     RDKit          3D

 36 38  0  0  0  0  0  0  0  0999 V2000
    4.9080    1.7038   16.8385 H   0  0  0  0  0  0  0  0  0  0  0  0
    5.3366    1.3574   17.7733 C   0  0  0  0  0  0  0  0  0  0  0  0
    6.5407    0.7716   17.6755 N   0  0  0  0  0  0  0  0  0  0  0  0
    7.0830    0.3206   18.8055 C   0  0  0  0  0  0  0  0  0  0  0  0
    8.0775   -0.1082   18.7092 H   0  0  0  0  0  0  0  0  0  0  0  0
    6.4655    0.3895   20.0801 C   0  0  0  0  0  0  0  0  0  0  0  0
    7.0756   -0.2716   21.1829 N   0  0  0  0  0  0  0  0  0  0  0  0
    7.8735   -1.4038   21.0125 C   0  0  0  0  0  0  0  0  0  0  0  0
    7.9563   -1.8570   20.0362 H   0  0  0  0  0  0  0  0  0  0  0  0
    8.4140   -1.7484   22.1968 C   0  0  0  0  0  0  0  0  0  0  0  0
    9.2866   -2.9099   22.5105 C   0  0  0  0  0  0  0  0  0  0  0  0
    9.7715   -2.7857   23.4846 H   0  0  0  0  0  0  0  0  0  0  0  0
   10.0878   -2.9552   21.7702 H   0  0  0  0  0  0  0  0  0  0  0  0
    8.4857   -4.2145   22.4630 C   0  0  0  0  0  0  0  0  0  0  0  0
    8.0118   -4.3390   21.4875 H   0  0  0  0  0  0  0  0  0  0  0  0
    9.1016   -5.1054   22.6252 H   0  0  0  0  0  0  0  0  0  0  0  0
    7.4003   -4.2044   23.3704 O   0  0  0  0  0  0  0  0  0  0  0  0
    7.6671   -4.1420   24.7047 C   0  0  0  0  0  0  0  0  0  0  0  0
    8.8405   -4.6287   25.3022 C   0  0  0  0  0  0  0  0  0  0  0  0
    9.6640   -4.9618   24.6799 H   0  0  0  0  0  0  0  0  0  0  0  0
    8.9369   -4.6646   26.6961 C   0  0  0  0  0  0  0  0  0  0  0  0
    9.8351   -5.0850   27.1472 H   0  0  0  0  0  0  0  0  0  0  0  0
    7.8944   -4.1797   27.4866 C   0  0  0  0  0  0  0  0  0  0  0  0
    7.9638   -4.2580   28.5627 H   0  0  0  0  0  0  0  0  0  0  0  0
    6.7471   -3.6462   26.8852 C   0  0  0  0  0  0  0  0  0  0  0  0
    5.9362   -3.2552   27.4947 H   0  0  0  0  0  0  0  0  0  0  0  0
    6.6321   -3.6309   25.4969 C   0  0  0  0  0  0  0  0  0  0  0  0
    5.7527   -3.2475   24.9882 H   0  0  0  0  0  0  0  0  0  0  0  0
    7.8819   -0.8666   23.1247 N   0  0  0  0  0  0  0  0  0  0  0  0
    7.9468   -0.8691   24.1259 H   0  0  0  0  0  0  0  0  0  0  0  0
    7.0766    0.0872   22.5481 C   0  0  0  0  0  0  0  0  0  0  0  0
    6.5391    1.0102   23.1305 O   0  0  0  0  0  0  0  0  0  0  0  0
    5.2448    1.0701   20.1804 C   0  0  0  0  0  0  0  0  0  0  0  0
    4.7948    1.2441   21.1593 H   0  0  0  0  0  0  0  0  0  0  0  0
    4.6648    1.5318   18.9886 C   0  0  0  0  0  0  0  0  0  0  0  0
    3.7101    2.0452   18.9938 H   0  0  0  0  0  0  0  0  0  0  0  0
  1  2  1  0
  2  3  2  0
  3  4  1  0
  4  5  1  0
  4  6  2  0
  6  7  1  0
  7  8  1  0
  8  9  1  0
  8 10  2  0
 10 11  1  0
 11 12  1  0
 11 13  1  0
 11 14  1  0
 14 15  1  0
 14 16  1  0
 14 17  1  0
 17 18  1  0
 18 19  2  0
 19 20  1  0
 19 21  1  0
 21 22  1  0
 21 23  2  0
 23 24  1  0
 23 25  1  0
 25 26  1  0
 25 27  2  0
 27 28  1  0
 10 29  1  0
 29 30  1  0
 29 31  1  0
 31 32  2  0
  6 33  1  0
 33 34  1  0
 33 35  2  0
 35 36  1  0
 35  2  1  0
 31  7  1  0
 27 18  1  0
M  END
>  <cnnaffinity>  (1) 
-5.20552

>  <filename>  (1) 
O=c1[nH]c(CCOc2ccccc2)cn1-c1cccnc1

$$$$
