
     RDKit          3D

 30 32  0  0  0  0  0  0  0  0999 V2000
    4.8971    1.8861   16.9793 H   0  0  0  0  0  0  0  0  0  0  0  0
    5.4287    1.3556   17.7668 C   0  0  0  0  0  0  0  0  0  0  0  0
    6.5831    0.7688   17.4137 N   0  0  0  0  0  0  0  0  0  0  0  0
    7.2585    0.0996   18.3559 C   0  0  0  0  0  0  0  0  0  0  0  0
    8.2037   -0.3422   18.0520 H   0  0  0  0  0  0  0  0  0  0  0  0
    6.8013   -0.0431   19.6863 C   0  0  0  0  0  0  0  0  0  0  0  0
    7.4894   -0.8431   20.6756 N   0  0  0  0  0  0  0  0  0  0  0  0
    8.7966   -0.6385   21.1169 C   0  0  0  0  0  0  0  0  0  0  0  0
    9.5722    0.1701   20.6903 O   0  0  0  0  0  0  0  0  0  0  0  0
    8.9675   -1.6730   22.2612 C   0  0  0  0  0  0  0  0  0  0  0  0
    9.9549   -2.0736   22.8125 O   0  0  0  0  0  0  0  0  0  0  0  0
    7.6829   -2.1267   22.5230 N   0  0  0  0  0  0  0  0  0  0  0  0
    7.4029   -3.2579   23.3344 C   0  0  0  0  0  0  0  0  0  0  0  0
    6.7651   -4.1733   22.8869 O   0  0  0  0  0  0  0  0  0  0  0  0
    8.0355   -3.2981   24.7237 C   0  0  0  0  0  0  0  0  0  0  0  0
    8.2833   -2.1881   25.5582 C   0  0  0  0  0  0  0  0  0  0  0  0
    8.0157   -1.1696   25.2930 H   0  0  0  0  0  0  0  0  0  0  0  0
    8.9305   -2.4005   26.7830 C   0  0  0  0  0  0  0  0  0  0  0  0
    9.1895   -1.5605   27.4237 H   0  0  0  0  0  0  0  0  0  0  0  0
    9.2775   -3.6071   27.2427 N   0  0  0  0  0  0  0  0  0  0  0  0
    9.0192   -4.6652   26.4692 C   0  0  0  0  0  0  0  0  0  0  0  0
    9.2977   -5.6424   26.8558 H   0  0  0  0  0  0  0  0  0  0  0  0
    8.4044   -4.5628   25.2224 C   0  0  0  0  0  0  0  0  0  0  0  0
    8.2640   -5.4486   24.6130 H   0  0  0  0  0  0  0  0  0  0  0  0
    6.8418   -1.7989   21.4661 C   0  0  0  0  0  0  0  0  0  0  0  0
    5.7570   -2.2577   21.2819 O   0  0  0  0  0  0  0  0  0  0  0  0
    5.6073    0.5898   20.0426 C   0  0  0  0  0  0  0  0  0  0  0  0
    5.2453    0.5057   21.0660 H   0  0  0  0  0  0  0  0  0  0  0  0
    4.9091    1.3015   19.0631 C   0  0  0  0  0  0  0  0  0  0  0  0
    3.9771    1.8040   19.2911 H   0  0  0  0  0  0  0  0  0  0  0  0
  1  2  1  0
  2  3  2  0
  3  4  1  0
  4  5  1  0
  4  6  2  0
  6  7  1  0
  7  8  1  0
  8  9  2  0
  8 10  1  0
 10 11  2  0
 10 12  1  0
 12 13  1  0
 13 14  2  0
 13 15  1  0
 15 16  2  0
 16 17  1  0
 16 18  1  0
 18 19  1  0
 18 20  2  0
 20 21  1  0
 21 22  1  0
 21 23  2  0
 23 24  1  0
 12 25  1  0
 25 26  2  0
  6 27  1  0
 27 28  1  0
 27 29  2  0
 29 30  1  0
 29  2  1  0
 25  7  1  0
 23 15  1  0
M  END
>  <cnnaffinity>  (1) 
-5.47241

>  <filename>  (1) 
O=C1C(=O)N(c2cccnc2)C(=O)N1C(=O)c1ccncc1

$$$$
