
     RDKit          3D

 29 31  0  0  0  0  0  0  0  0999 V2000
    4.9071    1.7764   17.0014 H   0  0  0  0  0  0  0  0  0  0  0  0
    5.3978    1.2940   17.8423 C   0  0  0  0  0  0  0  0  0  0  0  0
    6.5629    0.6784   17.5783 N   0  0  0  0  0  0  0  0  0  0  0  0
    7.1796    0.0591   18.5915 C   0  0  0  0  0  0  0  0  0  0  0  0
    8.1289   -0.4304   18.3835 H   0  0  0  0  0  0  0  0  0  0  0  0
    6.6661    0.0024   19.9067 C   0  0  0  0  0  0  0  0  0  0  0  0
    7.3585   -0.6837   20.9463 N   0  0  0  0  0  0  0  0  0  0  0  0
    6.7690   -1.4400   21.9496 C   0  0  0  0  0  0  0  0  0  0  0  0
    5.7019   -1.5927   21.9986 H   0  0  0  0  0  0  0  0  0  0  0  0
    7.7434   -1.9269   22.7479 C   0  0  0  0  0  0  0  0  0  0  0  0
    7.6055   -2.7541   23.9361 C   0  0  0  0  0  0  0  0  0  0  0  0
    6.4393   -2.6394   24.7131 C   0  0  0  0  0  0  0  0  0  0  0  0
    5.6791   -1.9189   24.4238 H   0  0  0  0  0  0  0  0  0  0  0  0
    6.2442   -3.4083   25.8525 C   0  0  0  0  0  0  0  0  0  0  0  0
    5.3456   -3.3100   26.4458 H   0  0  0  0  0  0  0  0  0  0  0  0
    7.2372   -4.3133   26.2145 C   0  0  0  0  0  0  0  0  0  0  0  0
    7.0619   -5.0613   27.3109 F   0  0  0  0  0  0  0  0  0  0  0  0
    8.4059   -4.4749   25.4762 C   0  0  0  0  0  0  0  0  0  0  0  0
    9.1637   -5.1876   25.7683 H   0  0  0  0  0  0  0  0  0  0  0  0
    8.5663   -3.6918   24.3419 C   0  0  0  0  0  0  0  0  0  0  0  0
    9.6833   -3.8614   23.6096 F   0  0  0  0  0  0  0  0  0  0  0  0
    8.9476   -1.4726   22.2352 N   0  0  0  0  0  0  0  0  0  0  0  0
    9.8690   -1.6060   22.6076 H   0  0  0  0  0  0  0  0  0  0  0  0
    8.7529   -0.6776   21.1376 C   0  0  0  0  0  0  0  0  0  0  0  0
    9.5946   -0.1053   20.4772 O   0  0  0  0  0  0  0  0  0  0  0  0
    5.4469    0.6449   20.1623 C   0  0  0  0  0  0  0  0  0  0  0  0
    5.0145    0.6307   21.1627 H   0  0  0  0  0  0  0  0  0  0  0  0
    4.8081    1.3112   19.1110 C   0  0  0  0  0  0  0  0  0  0  0  0
    3.8731    1.8438   19.2678 H   0  0  0  0  0  0  0  0  0  0  0  0
  1  2  1  0
  2  3  2  0
  3  4  1  0
  4  5  1  0
  4  6  2  0
  6  7  1  0
  7  8  1  0
  8  9  1  0
  8 10  2  0
 10 11  1  0
 11 12  2  0
 12 13  1  0
 12 14  1  0
 14 15  1  0
 14 16  2  0
 16 17  1  0
 16 18  1  0
 18 19  1  0
 18 20  2  0
 20 21  1  0
 10 22  1  0
 22 23  1  0
 22 24  1  0
 24 25  2  0
  6 26  1  0
 26 27  1  0
 26 28  2  0
 28 29  1  0
 28  2  1  0
 24  7  1  0
 20 11  1  0
M  END
>  <cnnaffinity>  (1) 
-5.57139

>  <filename>  (1) 
O=c1[nH]c(-c2ccc(F)cc2F)cn1-c1cccnc1

$$$$
