
     RDKit          3D

 31 33  0  0  0  0  0  0  0  0999 V2000
    4.9208    1.7989   16.9837 H   0  0  0  0  0  0  0  0  0  0  0  0
    5.3920    1.2949   17.8262 C   0  0  0  0  0  0  0  0  0  0  0  0
    6.5538    0.6745   17.5686 N   0  0  0  0  0  0  0  0  0  0  0  0
    7.1578    0.0552   18.5867 C   0  0  0  0  0  0  0  0  0  0  0  0
    8.1134   -0.4177   18.3554 H   0  0  0  0  0  0  0  0  0  0  0  0
    6.6539    0.0129   19.9057 C   0  0  0  0  0  0  0  0  0  0  0  0
    7.3614   -0.6786   20.9816 C   0  0  0  0  0  0  0  0  0  0  0  0
    7.4588   -0.3116   22.2835 C   0  0  0  0  0  0  0  0  0  0  0  0
    6.9770    0.8859   22.7489 O   0  0  0  0  0  0  0  0  0  0  0  0
    6.5601    1.0655   24.0527 C   0  0  0  0  0  0  0  0  0  0  0  0
    5.9589    0.0494   24.8062 C   0  0  0  0  0  0  0  0  0  0  0  0
    5.8478   -0.9404   24.3714 H   0  0  0  0  0  0  0  0  0  0  0  0
    5.5342    0.3132   26.1129 C   0  0  0  0  0  0  0  0  0  0  0  0
    5.0936   -0.4564   26.7366 H   0  0  0  0  0  0  0  0  0  0  0  0
    5.6985    1.5919   26.6324 C   0  0  0  0  0  0  0  0  0  0  0  0
    5.3005    1.8454   27.8905 F   0  0  0  0  0  0  0  0  0  0  0  0
    6.2658    2.6205   25.8818 C   0  0  0  0  0  0  0  0  0  0  0  0
    6.3578    3.6037   26.3274 H   0  0  0  0  0  0  0  0  0  0  0  0
    6.6945    2.3565   24.5773 C   0  0  0  0  0  0  0  0  0  0  0  0
    7.1256    3.1373   23.9551 H   0  0  0  0  0  0  0  0  0  0  0  0
    8.2816   -1.3290   23.0343 C   0  0  0  0  0  0  0  0  0  0  0  0
    8.6779   -1.4034   24.1796 O   0  0  0  0  0  0  0  0  0  0  0  0
    8.5596   -2.2841   22.1053 N   0  0  0  0  0  0  0  0  0  0  0  0
    9.1414   -3.0485   22.4083 H   0  0  0  0  0  0  0  0  0  0  0  0
    8.0789   -1.9913   20.7829 C   0  0  0  0  0  0  0  0  0  0  0  0
    8.9061   -1.8937   20.0639 H   0  0  0  0  0  0  0  0  0  0  0  0
    7.3846   -2.7636   20.4217 H   0  0  0  0  0  0  0  0  0  0  0  0
    5.4353    0.6664   20.1473 C   0  0  0  0  0  0  0  0  0  0  0  0
    5.0261    0.6571   21.1563 H   0  0  0  0  0  0  0  0  0  0  0  0
    4.7969    1.3123   19.0917 C   0  0  0  0  0  0  0  0  0  0  0  0
    3.8681    1.8447   19.2430 H   0  0  0  0  0  0  0  0  0  0  0  0
  1  2  1  0
  2  3  2  0
  3  4  1  0
  4  5  1  0
  4  6  2  0
  6  7  1  0
  7  8  2  0
  8  9  1  0
  9 10  1  0
 10 11  2  0
 11 12  1  0
 11 13  1  0
 13 14  1  0
 13 15  2  0
 15 16  1  0
 15 17  1  0
 17 18  1  0
 17 19  2  0
 19 20  1  0
  8 21  1  0
 21 22  2  0
 21 23  1  0
 23 24  1  0
 23 25  1  0
 25 26  1  0
 25 27  1  0
  6 28  1  0
 28 29  1  0
 28 30  2  0
 30 31  1  0
 30  2  1  0
 25  7  1  0
 19 10  1  0
M  END
>  <cnnaffinity>  (1) 
-4.52485

>  <filename>  (1) 
O=C1NCC(c2cccnc2)=C1Oc1ccc(F)cc1

$$$$
