
     RDKit          3D

 31 33  0  0  0  0  0  0  0  0999 V2000
    5.1952    1.8218   16.9931 H   0  0  0  0  0  0  0  0  0  0  0  0
    5.5937    1.2886   17.8539 C   0  0  0  0  0  0  0  0  0  0  0  0
    6.7213    0.5907   17.6477 N   0  0  0  0  0  0  0  0  0  0  0  0
    7.2269   -0.0794   18.6908 C   0  0  0  0  0  0  0  0  0  0  0  0
    8.1311   -0.6573   18.4974 H   0  0  0  0  0  0  0  0  0  0  0  0
    6.6473   -0.0951   19.9660 C   0  0  0  0  0  0  0  0  0  0  0  0
    7.2143   -0.9369   21.0207 C   0  0  0  0  0  0  0  0  0  0  0  0
    6.5092   -1.8528   21.6148 N   0  0  0  0  0  0  0  0  0  0  0  0
    7.4118   -2.4752   22.4230 N   0  0  0  0  0  0  0  0  0  0  0  0
    7.1802   -3.1811   23.0975 H   0  0  0  0  0  0  0  0  0  0  0  0
    8.6654   -1.9700   22.3708 C   0  0  0  0  0  0  0  0  0  0  0  0
    9.6323   -2.3913   22.9779 O   0  0  0  0  0  0  0  0  0  0  0  0
    8.5345   -0.9223   21.4493 N   0  0  0  0  0  0  0  0  0  0  0  0
    9.5682    0.0841   21.1637 C   0  0  0  0  0  0  0  0  0  0  0  0
    9.8415    0.0102   20.1067 H   0  0  0  0  0  0  0  0  0  0  0  0
   10.8075   -0.0417   22.0586 C   0  0  0  0  0  0  0  0  0  0  0  0
   11.3993   -0.9242   21.8129 H   0  0  0  0  0  0  0  0  0  0  0  0
   10.4441   -0.1835   23.0798 H   0  0  0  0  0  0  0  0  0  0  0  0
   11.5465    1.3052   21.9921 C   0  0  0  0  0  0  0  0  0  0  0  0
   12.4136    1.2726   21.3249 H   0  0  0  0  0  0  0  0  0  0  0  0
   11.9563    1.5736   22.9743 H   0  0  0  0  0  0  0  0  0  0  0  0
   10.4731    2.3164   21.5066 C   0  0  0  0  0  0  0  0  0  0  0  0
   10.4122    3.1938   22.1659 H   0  0  0  0  0  0  0  0  0  0  0  0
   10.7575    2.6913   20.5169 H   0  0  0  0  0  0  0  0  0  0  0  0
    9.1378    1.5264   21.4422 C   0  0  0  0  0  0  0  0  0  0  0  0
    8.4379    1.9288   20.6983 H   0  0  0  0  0  0  0  0  0  0  0  0
    8.6336    1.5374   22.4153 H   0  0  0  0  0  0  0  0  0  0  0  0
    5.4544    0.6201   20.1613 C   0  0  0  0  0  0  0  0  0  0  0  0
    4.9598    0.6089   21.1350 H   0  0  0  0  0  0  0  0  0  0  0  0
    4.9274    1.3300   19.0845 C   0  0  0  0  0  0  0  0  0  0  0  0
    4.0151    1.9079   19.1831 H   0  0  0  0  0  0  0  0  0  0  0  0
  1  2  1  0
  2  3  2  0
  3  4  1  0
  4  5  1  0
  4  6  2  0
  6  7  1  0
  7  8  2  0
  8  9  1  0
  9 10  1  0
  9 11  1  0
 11 12  2  0
 11 13  1  0
 13 14  1  0
 14 15  1  0
 14 16  1  0
 16 17  1  0
 16 18  1  0
 16 19  1  0
 19 20  1  0
 19 21  1  0
 19 22  1  0
 22 23  1  0
 22 24  1  0
 22 25  1  0
 25 26  1  0
 25 27  1  0
  6 28  1  0
 28 29  1  0
 28 30  2  0
 30 31  1  0
 30  2  1  0
 13  7  1  0
 25 14  1  0
M  END
>  <cnnaffinity>  (1) 
-5.07643

>  <filename>  (1) 
O=c1[nH]nc(-c2cccnc2)n1C1CCCC1

$$$$
