
     RDKit          3D

 27 28  0  0  0  0  0  0  0  0999 V2000
    4.9128    1.8111   16.9684 H   0  0  0  0  0  0  0  0  0  0  0  0
    5.3925    1.3052   17.8054 C   0  0  0  0  0  0  0  0  0  0  0  0
    6.5570    0.6917   17.5428 N   0  0  0  0  0  0  0  0  0  0  0  0
    7.1733    0.0780   18.5612 C   0  0  0  0  0  0  0  0  0  0  0  0
    8.1221   -0.4018   18.3138 H   0  0  0  0  0  0  0  0  0  0  0  0
    6.6723    0.0163   19.8711 C   0  0  0  0  0  0  0  0  0  0  0  0
    7.3999   -0.7380   20.9745 C   0  0  1  0  0  0  0  0  0  0  0  0
    8.4075   -0.9962   20.6187 H   0  0  0  0  0  0  0  0  0  0  0  0
    7.5067    0.0505   22.1761 N   0  0  0  0  0  0  0  0  0  0  0  0
    8.4746    1.0143   22.2681 O   0  0  0  0  0  0  0  0  0  0  0  0
    7.8840    2.2992   22.1373 C   0  0  0  0  0  0  0  0  0  0  0  0
    7.0429    2.4287   22.8268 H   0  0  0  0  0  0  0  0  0  0  0  0
    7.5290    2.4633   21.1157 H   0  0  0  0  0  0  0  0  0  0  0  0
    8.9705    3.3038   22.4301 C   0  0  0  0  0  0  0  0  0  0  0  0
    9.2878    3.3350   23.7330 F   0  0  0  0  0  0  0  0  0  0  0  0
   10.0891    3.0119   21.7559 F   0  0  0  0  0  0  0  0  0  0  0  0
    8.5530    4.5311   22.0662 F   0  0  0  0  0  0  0  0  0  0  0  0
    7.0305   -0.5497   23.3250 C   0  0  0  0  0  0  0  0  0  0  0  0
    7.0389   -0.1046   24.4352 O   0  0  0  0  0  0  0  0  0  0  0  0
    6.5185   -1.7513   22.9594 O   0  0  0  0  0  0  0  0  0  0  0  0
    6.6247   -1.9561   21.5438 C   0  0  0  0  0  0  0  0  0  0  0  0
    5.6107   -2.0096   21.1258 H   0  0  0  0  0  0  0  0  0  0  0  0
    7.1405   -2.9074   21.3845 H   0  0  0  0  0  0  0  0  0  0  0  0
    5.4524    0.6596   20.1202 C   0  0  0  0  0  0  0  0  0  0  0  0
    5.0234    0.6525   21.1249 H   0  0  0  0  0  0  0  0  0  0  0  0
    4.8047    1.3153   19.0750 C   0  0  0  0  0  0  0  0  0  0  0  0
    3.8663    1.8406   19.2346 H   0  0  0  0  0  0  0  0  0  0  0  0
  1  2  1  0
  2  3  2  0
  3  4  1  0
  4  5  1  0
  4  6  2  0
  6  7  1  0
  7  8  1  6
  7  9  1  0
  9 10  1  0
 10 11  1  0
 11 12  1  0
 11 13  1  0
 11 14  1  0
 14 15  1  0
 14 16  1  0
 14 17  1  0
  9 18  1  0
 18 19  2  0
 18 20  1  0
 20 21  1  0
 21 22  1  0
 21 23  1  0
  6 24  1  0
 24 25  1  0
 24 26  2  0
 26 27  1  0
 26  2  1  0
 21  7  1  0
M  END
>  <cnnaffinity>  (1) 
-4.27717

>  <filename>  (1) 
O=C1OC[C@@H](c2cccnc2)N1OCC(F)(F)F

$$$$
