
     RDKit          3D

 48 52  0  0  0  0  0  0  0  0999 V2000
   14.4570   -1.3354   22.3411 O   0  0  0  0  0  0  0  0  0  0  0  0
   13.9081   -0.2751   22.5212 C   0  0  0  0  0  0  0  0  0  0  0  0
   14.5161    0.9140   22.8612 N   0  0  0  0  0  0  0  0  0  0  0  0
   13.6231    1.9738   22.7769 C   0  0  0  0  0  0  0  0  0  0  0  0
   12.3707    1.3959   22.5012 C   0  0  0  0  0  0  0  0  0  0  0  0
   12.5709    0.0314   22.4124 N   0  0  0  0  0  0  0  0  0  0  0  0
   11.9221   -0.6455   22.0597 H   0  0  0  0  0  0  0  0  0  0  0  0
   11.2225    2.1747   22.3906 C   0  0  0  0  0  0  0  0  0  0  0  0
    9.9214    1.5036   22.2448 C   0  0  0  0  0  0  0  0  0  0  0  0
    9.6412    0.4487   21.4846 N   0  0  0  0  0  0  0  0  0  0  0  0
    8.3012    0.3011   21.6414 C   0  0  0  0  0  0  0  0  0  0  0  0
    7.4480   -0.6977   20.9019 C   0  0  0  0  0  0  0  0  0  0  0  0
    6.6423   -0.0744   19.7618 C   0  0  0  0  0  0  0  0  0  0  0  0
    5.4376    0.5959   20.0202 C   0  0  0  0  0  0  0  0  0  0  0  0
    4.8187    1.2975   18.9829 C   0  0  0  0  0  0  0  0  0  0  0  0
    5.4158    1.2934   17.7207 C   0  0  0  0  0  0  0  0  0  0  0  0
    6.5453    0.6265   17.4401 N   0  0  0  0  0  0  0  0  0  0  0  0
    7.1289   -0.0398   18.4433 C   0  0  0  0  0  0  0  0  0  0  0  0
    8.0526   -0.5647   18.1932 H   0  0  0  0  0  0  0  0  0  0  0  0
    4.9713    1.8459   16.8953 H   0  0  0  0  0  0  0  0  0  0  0  0
    3.9044    1.8569   19.1406 H   0  0  0  0  0  0  0  0  0  0  0  0
    5.0085    0.5834   21.0241 H   0  0  0  0  0  0  0  0  0  0  0  0
    6.7646   -1.1330   21.6389 H   0  0  0  0  0  0  0  0  0  0  0  0
    8.0982   -1.5058   20.5486 H   0  0  0  0  0  0  0  0  0  0  0  0
    7.7560    1.1478   22.4949 N   0  0  0  0  0  0  0  0  0  0  0  0
    8.8029    1.9075   22.8954 N   0  0  0  0  0  0  0  0  0  0  0  0
    8.6382    2.8468   24.0104 C   0  0  0  0  0  0  0  0  0  0  0  0
    8.0955    2.1550   25.2697 C   0  0  0  0  0  0  0  0  0  0  0  0
    8.0265    3.1631   26.4298 C   0  0  0  0  0  0  0  0  0  0  0  0
    7.9644    4.5218   26.0186 O   0  0  0  0  0  0  0  0  0  0  0  0
    7.1965    4.7819   24.8603 C   0  0  0  0  0  0  0  0  0  0  0  0
    7.7244    4.0250   23.6178 C   0  0  0  0  0  0  0  0  0  0  0  0
    6.8772    3.6432   23.0418 H   0  0  0  0  0  0  0  0  0  0  0  0
    8.2758    4.7029   22.9569 H   0  0  0  0  0  0  0  0  0  0  0  0
    7.2505    5.8664   24.7268 H   0  0  0  0  0  0  0  0  0  0  0  0
    6.1365    4.5363   25.0405 H   0  0  0  0  0  0  0  0  0  0  0  0
    7.1848    2.9190   27.0984 H   0  0  0  0  0  0  0  0  0  0  0  0
    8.9429    3.1122   27.0176 H   0  0  0  0  0  0  0  0  0  0  0  0
    8.7332    1.3100   25.5448 H   0  0  0  0  0  0  0  0  0  0  0  0
    7.1071    1.7394   25.0402 H   0  0  0  0  0  0  0  0  0  0  0  0
    9.6258    3.2372   24.2560 H   0  0  0  0  0  0  0  0  0  0  0  0
   11.3941    3.5741   22.4590 C   0  0  0  0  0  0  0  0  0  0  0  0
   12.6489    4.1497   22.6946 C   0  0  0  0  0  0  0  0  0  0  0  0
   13.7835    3.3501   22.8641 C   0  0  0  0  0  0  0  0  0  0  0  0
   14.7524    3.8147   22.9857 H   0  0  0  0  0  0  0  0  0  0  0  0
   12.7363    5.2293   22.7726 H   0  0  0  0  0  0  0  0  0  0  0  0
   10.5518    4.2359   22.2838 H   0  0  0  0  0  0  0  0  0  0  0  0
   15.5106    0.9346   22.7793 H   0  0  0  0  0  0  0  0  0  0  0  0
  1  2  2  0
  2  3  1  0
  3  4  1  0
  4  5  2  0
  5  6  1  0
  6  7  1  0
  5  8  1  0
  8  9  1  0
  9 10  2  0
 10 11  1  0
 11 12  1  0
 12 13  1  0
 13 14  2  0
 14 15  1  0
 15 16  2  0
 16 17  1  0
 17 18  2  0
 18 19  1  0
 16 20  1  0
 15 21  1  0
 14 22  1  0
 12 23  1  0
 12 24  1  0
 11 25  2  0
 25 26  1  0
 26 27  1  0
 27 28  1  0
 28 29  1  0
 29 30  1  0
 30 31  1  0
 31 32  1  0
 32 33  1  0
 32 34  1  0
 31 35  1  0
 31 36  1  0
 29 37  1  0
 29 38  1  0
 28 39  1  0
 28 40  1  0
 27 41  1  0
  8 42  2  0
 42 43  1  0
 43 44  2  0
 44 45  1  0
 43 46  1  0
 42 47  1  0
  3 48  1  0
  6  2  1  0
 26  9  1  0
 32 27  1  0
 44  4  1  0
 18 13  1  0
M  END
>  <cnnaffinity>  (1) 
-6.6246

>  <filename>  (1) 
O=c1[nH]c2cccc(-c3nc(Cc4cccnc4)nn3C3CCOCC3)c2[nH]1

$$$$
