
     RDKit          3D

 27 29  0  0  0  0  0  0  0  0999 V2000
    6.1251    0.7838   24.0613 H   0  0  0  0  0  0  0  0  0  0  0  0
    6.7697    0.9221   23.1881 C   0  0  0  0  0  0  0  0  0  0  0  0
    7.1256    2.1386   22.7554 C   0  0  0  0  0  0  0  0  0  0  0  0
    6.3966    3.6209   23.3677 S   0  0  0  0  0  0  0  0  0  0  0  0
    7.4483    4.6328   22.3899 C   0  0  0  0  0  0  0  0  0  0  0  0
    7.4061    6.2547   22.2520 S   0  0  0  0  0  0  0  0  0  0  0  0
    8.3256    3.8406   21.7375 N   0  0  0  0  0  0  0  0  0  0  0  0
    8.9801    4.2248   21.0791 H   0  0  0  0  0  0  0  0  0  0  0  0
    8.2097    2.4710   21.7903 C   0  0  0  0  0  0  0  0  0  0  0  0
    8.9312    1.7578   21.1368 O   0  0  0  0  0  0  0  0  0  0  0  0
    7.2627   -0.2534   22.6008 N   0  0  0  0  0  0  0  0  0  0  0  0
    8.0006   -1.2055   23.2576 C   0  0  0  0  0  0  0  0  0  0  0  0
    8.2987   -1.0623   24.2911 H   0  0  0  0  0  0  0  0  0  0  0  0
    8.3451   -2.1967   22.4811 N   0  0  0  0  0  0  0  0  0  0  0  0
    7.8499   -1.8643   21.2517 C   0  0  0  0  0  0  0  0  0  0  0  0
    7.9520   -2.5212   20.4042 H   0  0  0  0  0  0  0  0  0  0  0  0
    7.2038   -0.6578   21.2664 C   0  0  0  0  0  0  0  0  0  0  0  0
    6.5879    0.0982   20.1662 C   0  0  0  0  0  0  0  0  0  0  0  0
    7.2003    0.1102   18.8946 C   0  0  0  0  0  0  0  0  0  0  0  0
    8.1883   -0.3372   18.7659 H   0  0  0  0  0  0  0  0  0  0  0  0
    6.6703    0.6623   17.7967 N   0  0  0  0  0  0  0  0  0  0  0  0
    5.4911    1.2867   17.9398 C   0  0  0  0  0  0  0  0  0  0  0  0
    5.0744    1.7304   17.0356 H   0  0  0  0  0  0  0  0  0  0  0  0
    4.8142    1.3839   19.1613 C   0  0  0  0  0  0  0  0  0  0  0  0
    3.8799    1.9316   19.2106 H   0  0  0  0  0  0  0  0  0  0  0  0
    5.3702    0.7882   20.2948 C   0  0  0  0  0  0  0  0  0  0  0  0
    4.8852    0.8489   21.2694 H   0  0  0  0  0  0  0  0  0  0  0  0
  1  2  1  0
  2  3  2  3
  3  4  1  0
  4  5  1  0
  5  6  2  0
  5  7  1  0
  7  8  1  0
  7  9  1  0
  9 10  2  0
  2 11  1  0
 11 12  1  0
 12 13  1  0
 12 14  2  0
 14 15  1  0
 15 16  1  0
 15 17  2  0
 17 18  1  0
 18 19  2  0
 19 20  1  0
 19 21  1  0
 21 22  2  0
 22 23  1  0
 22 24  1  0
 24 25  1  0
 24 26  2  0
 26 27  1  0
  9  3  1  0
 17 11  1  0
 26 18  1  0
M  END
>  <cnnaffinity>  (1) 
-5.25642

>  <filename>  (1) 
O=C1NC(=S)SC1=Cn1cncc1-c1cccnc1

$$$$
