
     RDKit          3D

 34 36  0  0  0  0  0  0  0  0999 V2000
    7.1862    1.8606   21.9085 H   0  0  0  0  0  0  0  0  0  0  0  0
    7.3071    1.1044   22.6959 C   0  0  0  0  0  0  0  0  0  0  0  0
    7.6159   -0.2349   22.2309 C   0  0  0  0  0  0  0  0  0  0  0  0
    7.3501   -0.7033   20.9698 C   0  0  0  0  0  0  0  0  0  0  0  0
    6.6475    0.0050   19.8984 C   0  0  0  0  0  0  0  0  0  0  0  0
    7.1518    0.0491   18.5789 C   0  0  0  0  0  0  0  0  0  0  0  0
    8.1097   -0.4194   18.3444 H   0  0  0  0  0  0  0  0  0  0  0  0
    6.5519    0.6741   17.5600 N   0  0  0  0  0  0  0  0  0  0  0  0
    5.3922    1.3022   17.8120 C   0  0  0  0  0  0  0  0  0  0  0  0
    4.9253    1.8144   16.9716 H   0  0  0  0  0  0  0  0  0  0  0  0
    4.7891    1.3164   19.0727 C   0  0  0  0  0  0  0  0  0  0  0  0
    3.8601    1.8501   19.2287 H   0  0  0  0  0  0  0  0  0  0  0  0
    5.4231    0.6572   20.1247 C   0  0  0  0  0  0  0  0  0  0  0  0
    4.9919    0.6412   21.1248 H   0  0  0  0  0  0  0  0  0  0  0  0
    7.9159   -2.0839   20.8050 C   0  0  0  0  0  0  0  0  0  0  0  0
    8.7422   -2.0357   20.0843 H   0  0  0  0  0  0  0  0  0  0  0  0
    7.1689   -2.8087   20.4572 H   0  0  0  0  0  0  0  0  0  0  0  0
    8.3716   -2.3913   22.1369 N   0  0  0  0  0  0  0  0  0  0  0  0
    8.9369   -3.1555   22.4620 H   0  0  0  0  0  0  0  0  0  0  0  0
    8.3033   -1.3398   22.9972 C   0  0  0  0  0  0  0  0  0  0  0  0
    8.7616   -1.4129   24.1229 O   0  0  0  0  0  0  0  0  0  0  0  0
    7.1701    1.4130   24.0009 C   0  0  0  0  0  0  0  0  0  0  0  0
    7.3394    0.6155   24.7265 H   0  0  0  0  0  0  0  0  0  0  0  0
    6.8345    2.7431   24.5084 C   0  0  0  0  0  0  0  0  0  0  0  0
    6.2489    3.7376   23.7017 C   0  0  0  0  0  0  0  0  0  0  0  0
    6.0001    3.5151   22.6666 H   0  0  0  0  0  0  0  0  0  0  0  0
    5.9759    5.0021   24.2280 C   0  0  0  0  0  0  0  0  0  0  0  0
    5.5252    5.7608   23.5942 H   0  0  0  0  0  0  0  0  0  0  0  0
    6.2894    5.2914   25.5599 C   0  0  0  0  0  0  0  0  0  0  0  0
    6.0809    6.2770   25.9662 H   0  0  0  0  0  0  0  0  0  0  0  0
    6.8692    4.3086   26.3704 C   0  0  0  0  0  0  0  0  0  0  0  0
    7.1189    4.5231   27.4042 H   0  0  0  0  0  0  0  0  0  0  0  0
    7.1330    3.0442   25.8477 C   0  0  0  0  0  0  0  0  0  0  0  0
    7.5921    2.2766   26.4655 H   0  0  0  0  0  0  0  0  0  0  0  0
  1  2  1  0
  2  3  1  0
  3  4  2  0
  4  5  1  0
  5  6  2  0
  6  7  1  0
  6  8  1  0
  8  9  2  0
  9 10  1  0
  9 11  1  0
 11 12  1  0
 11 13  2  0
 13 14  1  0
  4 15  1  0
 15 16  1  0
 15 17  1  0
 15 18  1  0
 18 19  1  0
 18 20  1  0
 20 21  2  0
  2 22  2  3
 22 23  1  0
 22 24  1  0
 24 25  2  0
 25 26  1  0
 25 27  1  0
 27 28  1  0
 27 29  2  0
 29 30  1  0
 29 31  1  0
 31 32  1  0
 31 33  2  0
 33 34  1  0
 20  3  1  0
 33 24  1  0
 13  5  1  0
M  END
>  <cnnaffinity>  (1) 
-4.87692

>  <filename>  (1) 
O=C1NCC(c2cccnc2)=C1C=Cc1ccccc1

$$$$
