
     RDKit          3D

 33 35  0  0  0  0  0  0  0  0999 V2000
    5.4295    1.6538   16.8644 H   0  0  0  0  0  0  0  0  0  0  0  0
    5.7947    1.0805   17.7152 C   0  0  0  0  0  0  0  0  0  0  0  0
    6.9322    0.4004   17.5197 N   0  0  0  0  0  0  0  0  0  0  0  0
    7.4137   -0.2999   18.5575 C   0  0  0  0  0  0  0  0  0  0  0  0
    8.3341   -0.8575   18.3761 H   0  0  0  0  0  0  0  0  0  0  0  0
    6.8013   -0.3690   19.8225 C   0  0  0  0  0  0  0  0  0  0  0  0
    7.4372   -1.0958   20.9298 C   0  0  0  0  0  0  0  0  0  0  0  0
    8.5688   -0.6755   21.5610 C   0  0  0  0  0  0  0  0  0  0  0  0
    9.3539    0.6022   21.3984 C   0  0  0  0  0  0  0  0  0  0  0  0
    9.2596    0.9751   20.3683 H   0  0  0  0  0  0  0  0  0  0  0  0
   10.4160    0.3568   21.5560 H   0  0  0  0  0  0  0  0  0  0  0  0
    8.9589    1.7527   22.3398 C   0  0  0  0  0  0  0  0  0  0  0  0
    9.2760    1.8086   23.7315 C   0  0  0  0  0  0  0  0  0  0  0  0
    9.8349    1.0423   24.2907 H   0  0  0  0  0  0  0  0  0  0  0  0
    8.7874    3.0442   24.2823 C   0  0  0  0  0  0  0  0  0  0  0  0
    9.4083    3.8986   24.5245 H   0  0  0  0  0  0  0  0  0  0  0  0
    8.0594    3.8388   23.1873 C   0  0  0  0  0  0  0  0  0  0  0  0
    7.4455    4.8628   23.1629 H   0  0  0  0  0  0  0  0  0  0  0  0
    7.9257    3.7658   23.1013 C   0  0  0  0  0  0  0  0  0  0  0  0
    5.9481    2.5327   23.2931 Cl  0  0  0  0  0  0  0  0  0  0  0  0
    8.2599    2.9262   21.8584 C   0  0  0  0  0  0  0  0  0  0  0  0
    7.2696    2.8713   21.4064 H   0  0  0  0  0  0  0  0  0  0  0  0
    8.8241   -1.5598   22.7116 C   0  0  0  0  0  0  0  0  0  0  0  0
    9.6683   -1.4899   23.5871 O   0  0  0  0  0  0  0  0  0  0  0  0
    7.8771   -2.5487   22.6381 N   0  0  0  0  0  0  0  0  0  0  0  0
    7.7929   -3.1313   23.4539 H   0  0  0  0  0  0  0  0  0  0  0  0
    6.8802   -2.3224   21.6107 C   0  0  0  0  0  0  0  0  0  0  0  0
    6.8027   -3.1765   20.9191 H   0  0  0  0  0  0  0  0  0  0  0  0
    5.8694   -2.1412   22.0179 H   0  0  0  0  0  0  0  0  0  0  0  0
    5.6004    0.3405   19.9975 C   0  0  0  0  0  0  0  0  0  0  0  0
    5.1191    0.3550   20.9828 H   0  0  0  0  0  0  0  0  0  0  0  0
    5.0954    1.0820   18.9280 C   0  0  0  0  0  0  0  0  0  0  0  0
    4.1884    1.6695   19.0205 H   0  0  0  0  0  0  0  0  0  0  0  0
  1  2  1  0
  2  3  2  0
  3  4  1  0
  4  5  1  0
  4  6  2  0
  6  7  1  0
  7  8  2  0
  8  9  1  0
  9 10  1  0
  9 11  1  0
  9 12  1  0
 12 13  2  0
 13 14  1  0
 13 15  1  0
 15 16  1  0
 15 17  2  0
 17 18  1  0
 17 19  1  0
 19 20  1  0
 19 21  2  0
 21 22  1  0
  8 23  1  0
 23 24  2  0
 23 25  1  0
 25 26  1  0
 25 27  1  0
 27 28  1  0
 27 29  1  0
  6 30  1  0
 30 31  1  0
 30 32  2  0
 32 33  1  0
 32  2  1  0
 27  7  1  0
 21 12  1  0
M  END
>  <cnnaffinity>  (1) 
-5.03472

>  <filename>  (1) 
O=C1NCC(c2cccnc2)=C1Cc1cccc(Cl)c1

$$$$
