
     RDKit          3D

 41 44  0  0  0  0  0  0  0  0999 V2000
    5.7164    2.7172   22.7359 O   0  0  0  0  0  0  0  0  0  0  0  0
    6.1773    3.5168   23.5095 C   0  0  0  0  0  0  0  0  0  0  0  0
    5.8137    4.9349   23.6796 C   0  0  0  0  0  0  0  0  0  0  0  0
    4.8782    5.7467   23.0366 C   0  0  0  0  0  0  0  0  0  0  0  0
    4.8294    7.0764   23.4623 C   0  0  0  0  0  0  0  0  0  0  0  0
    5.7058    7.5048   24.4846 C   0  0  0  0  0  0  0  0  0  0  0  0
    6.5929    6.7152   25.0913 N   0  0  0  0  0  0  0  0  0  0  0  0
    6.6356    5.4393   24.6794 C   0  0  0  0  0  0  0  0  0  0  0  0
    7.5499    4.3207   25.1601 C   0  0  0  0  0  0  0  0  0  0  0  0
    8.4472    4.2946   25.9721 O   0  0  0  0  0  0  0  0  0  0  0  0
    7.1717    3.1966   24.4295 N   0  0  0  0  0  0  0  0  0  0  0  0
    7.9684    1.9691   24.3336 C   0  0  0  0  0  0  0  0  0  0  0  0
    8.9084    1.9855   23.1411 C   0  0  0  0  0  0  0  0  0  0  0  0
    9.9756    2.8927   23.1565 C   0  0  0  0  0  0  0  0  0  0  0  0
   10.8474    2.9793   22.0734 C   0  0  0  0  0  0  0  0  0  0  0  0
   12.1373    4.1491   22.0921 Cl  0  0  0  0  0  0  0  0  0  0  0  0
   10.6815    2.1580   20.9641 C   0  0  0  0  0  0  0  0  0  0  0  0
    9.6342    1.2285   20.9385 C   0  0  0  0  0  0  0  0  0  0  0  0
    8.7488    1.1264   22.0244 C   0  0  0  0  0  0  0  0  0  0  0  0
    7.7479    0.1931   22.1006 O   0  0  0  0  0  0  0  0  0  0  0  0
    7.4117   -0.6714   21.0094 C   0  0  0  0  0  0  0  0  0  0  0  0
    6.6679    0.0238   19.8961 C   0  0  0  0  0  0  0  0  0  0  0  0
    5.4436    0.6556   20.1535 C   0  0  0  0  0  0  0  0  0  0  0  0
    4.8073    1.3103   19.0989 C   0  0  0  0  0  0  0  0  0  0  0  0
    5.3984    1.2938   17.8330 C   0  0  0  0  0  0  0  0  0  0  0  0
    6.5574    0.6764   17.5705 N   0  0  0  0  0  0  0  0  0  0  0  0
    7.1696    0.0662   18.5910 C   0  0  0  0  0  0  0  0  0  0  0  0
    8.1162   -0.4232   18.3585 H   0  0  0  0  0  0  0  0  0  0  0  0
    4.9180    1.7870   16.9913 H   0  0  0  0  0  0  0  0  0  0  0  0
    3.8776    1.8431   19.2539 H   0  0  0  0  0  0  0  0  0  0  0  0
    5.0179    0.6475   21.1601 H   0  0  0  0  0  0  0  0  0  0  0  0
    8.2999   -1.2048   20.6403 H   0  0  0  0  0  0  0  0  0  0  0  0
    6.7587   -1.4173   21.4782 H   0  0  0  0  0  0  0  0  0  0  0  0
    9.5052    0.5856   20.0749 H   0  0  0  0  0  0  0  0  0  0  0  0
   11.3703    2.2708   20.1327 H   0  0  0  0  0  0  0  0  0  0  0  0
   10.1342    3.5450   24.0088 H   0  0  0  0  0  0  0  0  0  0  0  0
    8.5539    1.8887   25.2554 H   0  0  0  0  0  0  0  0  0  0  0  0
    7.3088    1.1006   24.2869 H   0  0  0  0  0  0  0  0  0  0  0  0
    5.6892    8.5379   24.8280 H   0  0  0  0  0  0  0  0  0  0  0  0
    4.1409    7.7874   23.0199 H   0  0  0  0  0  0  0  0  0  0  0  0
    4.2247    5.3788   22.2395 H   0  0  0  0  0  0  0  0  0  0  0  0
  1  2  2  0
  2  3  1  0
  3  4  2  0
  4  5  1  0
  5  6  2  0
  6  7  1  0
  7  8  2  0
  8  9  1  0
  9 10  2  0
  9 11  1  0
 11 12  1  0
 12 13  1  0
 13 14  2  0
 14 15  1  0
 15 16  1  0
 15 17  2  0
 17 18  1  0
 18 19  2  0
 19 20  1  0
 20 21  1  0
 21 22  1  0
 22 23  2  0
 23 24  1  0
 24 25  2  0
 25 26  1  0
 26 27  2  0
 27 28  1  0
 25 29  1  0
 24 30  1  0
 23 31  1  0
 21 32  1  0
 21 33  1  0
 18 34  1  0
 17 35  1  0
 14 36  1  0
 12 37  1  0
 12 38  1  0
  6 39  1  0
  5 40  1  0
  4 41  1  0
 11  2  1  0
 19 13  1  0
 27 22  1  0
  8  3  1  0
M  END
>  <cnnaffinity>  (1) 
-5.48362

>  <filename>  (1) 
O=C1c2cccnc2C(=O)N1Cc1cc(Cl)ccc1OCc1cccnc1

$$$$
