
     RDKit          3D

 21 22  0  0  0  0  0  0  0  0999 V2000
    8.7315   -4.3678   25.1585 H   0  0  0  0  0  0  0  0  0  0  0  0
    8.8368   -3.4250   24.6320 C   0  0  0  0  0  0  0  0  0  0  0  0
    9.3700   -2.2686   25.0174 C   0  0  0  0  0  0  0  0  0  0  0  0
    9.7554   -1.9376   25.9721 H   0  0  0  0  0  0  0  0  0  0  0  0
    9.2607   -1.2777   23.9135 C   0  0  0  0  0  0  0  0  0  0  0  0
    9.6827   -0.1559   23.9054 O   0  0  0  0  0  0  0  0  0  0  0  0
    8.5411   -1.9287   22.8781 N   0  0  0  0  0  0  0  0  0  0  0  0
    7.9511   -1.2874   21.8441 C   0  0  0  0  0  0  0  0  0  0  0  0
    7.3773   -0.7012   20.9591 C   0  0  0  0  0  0  0  0  0  0  0  0
    6.6708   -0.0048   19.9203 C   0  0  0  0  0  0  0  0  0  0  0  0
    7.1804    0.0492   18.6033 C   0  0  0  0  0  0  0  0  0  0  0  0
    8.1266   -0.4265   18.3611 H   0  0  0  0  0  0  0  0  0  0  0  0
    6.5660    0.6673   17.5891 N   0  0  0  0  0  0  0  0  0  0  0  0
    5.4052    1.2859   17.8456 C   0  0  0  0  0  0  0  0  0  0  0  0
    4.9366    1.7871   16.9989 H   0  0  0  0  0  0  0  0  0  0  0  0
    4.8131    1.3016   19.1115 C   0  0  0  0  0  0  0  0  0  0  0  0
    3.8835    1.8341   19.2499 H   0  0  0  0  0  0  0  0  0  0  0  0
    5.4492    0.6441   20.1661 C   0  0  0  0  0  0  0  0  0  0  0  0
    5.0172    0.6331   21.1658 H   0  0  0  0  0  0  0  0  0  0  0  0
    8.2609   -3.2664   23.2635 C   0  0  0  0  0  0  0  0  0  0  0  0
    7.6698   -4.0892   22.6227 O   0  0  0  0  0  0  0  0  0  0  0  0
  1  2  1  0
  2  3  2  0
  3  4  1  0
  3  5  1  0
  5  6  2  0
  5  7  1  0
  7  8  1  0
  8  9  3  0
  9 10  1  0
 10 11  2  0
 11 12  1  0
 11 13  1  0
 13 14  2  0
 14 15  1  0
 14 16  1  0
 16 17  1  0
 16 18  2  0
 18 19  1  0
  7 20  1  0
 20 21  2  0
 20  2  1  0
 18 10  1  0
M  END
>  <cnnaffinity>  (1) 
-4.53516

>  <filename>  (1) 
O=C1C=CC(=O)N1C#Cc1cccnc1

$$$$
