
     RDKit          3D

 34 37  0  0  0  0  0  0  0  0999 V2000
    4.8668    1.7505   16.9965 H   0  0  0  0  0  0  0  0  0  0  0  0
    5.3810    1.2844   17.8330 C   0  0  0  0  0  0  0  0  0  0  0  0
    6.5568    0.6872   17.5606 N   0  0  0  0  0  0  0  0  0  0  0  0
    7.2212    0.1451   18.5779 C   0  0  0  0  0  0  0  0  0  0  0  0
    8.1555   -0.3706   18.3490 H   0  0  0  0  0  0  0  0  0  0  0  0
    6.7816    0.1854   19.9359 C   0  0  0  0  0  0  0  0  0  0  0  0
    7.5841   -0.4102   20.8886 N   0  0  0  0  0  0  0  0  0  0  0  0
    7.5860   -0.1105   22.1439 C   0  0  0  0  0  0  0  0  0  0  0  0
    7.3286    1.2158   22.7710 C   0  0  0  0  0  0  0  0  0  0  0  0
    7.7975    2.3649   22.1321 C   0  0  0  0  0  0  0  0  0  0  0  0
    8.3957    2.2874   21.2257 H   0  0  0  0  0  0  0  0  0  0  0  0
    7.5239    3.6537   22.6470 C   0  0  0  0  0  0  0  0  0  0  0  0
    7.8781    4.5264   22.1019 H   0  0  0  0  0  0  0  0  0  0  0  0
    6.8121    3.7989   23.8142 C   0  0  0  0  0  0  0  0  0  0  0  0
    6.5865    4.7866   24.2055 H   0  0  0  0  0  0  0  0  0  0  0  0
    6.3327    2.6629   24.5264 C   0  0  0  0  0  0  0  0  0  0  0  0
    5.6008    2.8183   25.7467 C   0  0  0  0  0  0  0  0  0  0  0  0
    5.4245    3.8258   26.1243 H   0  0  0  0  0  0  0  0  0  0  0  0
    5.1086    1.7227   26.4102 C   0  0  0  0  0  0  0  0  0  0  0  0
    4.5379    1.8474   27.3290 H   0  0  0  0  0  0  0  0  0  0  0  0
    5.3194    0.4187   25.8873 C   0  0  0  0  0  0  0  0  0  0  0  0
    4.9040   -0.4338   26.4185 H   0  0  0  0  0  0  0  0  0  0  0  0
    6.0311    0.2296   24.7199 C   0  0  0  0  0  0  0  0  0  0  0  0
    6.2090   -0.7658   24.3206 H   0  0  0  0  0  0  0  0  0  0  0  0
    6.5727    1.3458   24.0001 C   0  0  0  0  0  0  0  0  0  0  0  0
    8.1309   -1.1364   23.0037 N   0  0  0  0  0  0  0  0  0  0  0  0
    8.7859   -1.9568   22.3486 N   0  0  0  0  0  0  0  0  0  0  0  0
    8.8540   -2.8725   22.8053 H   0  0  0  0  0  0  0  0  0  0  0  0
    6.8826   -2.8253   21.0362 C   0  0  0  0  0  0  0  0  0  0  0  0
    6.6665   -3.1494   20.9316 O   0  0  0  0  0  0  0  0  0  0  0  0
    5.5198    0.7538   20.1863 C   0  0  0  0  0  0  0  0  0  0  0  0
    5.1168    0.7744   21.2041 H   0  0  0  0  0  0  0  0  0  0  0  0
    4.8299    1.3218   19.1135 C   0  0  0  0  0  0  0  0  0  0  0  0
    3.8670    1.7905   19.2669 H   0  0  0  0  0  0  0  0  0  0  0  0
  1  2  1  0
  2  3  2  0
  3  4  1  0
  4  5  1  0
  4  6  2  0
  6  7  1  0
  7  8  1  0
  8  9  1  0
  9 10  2  0
 10 11  1  0
 10 12  1  0
 12 13  1  0
 12 14  2  0
 14 15  1  0
 14 16  1  0
 16 17  2  0
 17 18  1  0
 17 19  1  0
 19 20  1  0
 19 21  2  0
 21 22  1  0
 21 23  1  0
 23 24  1  0
 23 25  2  0
  8 26  2  0
 26 27  1  0
 27 28  1  0
 27 29  1  0
 29 30  2  0
  6 31  1  0
 31 32  1  0
 31 33  2  0
 33 34  1  0
 33  2  1  0
 29  7  1  0
 25  9  1  0
 25 16  1  0
M  END
>  <cnnaffinity>  (1) 
-5.01647

>  <filename>  (1) 
O=c1[nH]nc(-c2cccc3ccccc23)n1-c1cccnc1

$$$$
