
     RDKit          3D

 29 31  0  0  0  0  0  0  0  0999 V2000
    4.9182    1.7861   16.9917 H   0  0  0  0  0  0  0  0  0  0  0  0
    5.4018    1.2962   17.8308 C   0  0  0  0  0  0  0  0  0  0  0  0
    6.5637    0.6811   17.5601 N   0  0  0  0  0  0  0  0  0  0  0  0
    7.1570    0.0563   18.5776 C   0  0  0  0  0  0  0  0  0  0  0  0
    8.1132   -0.4203   18.3700 H   0  0  0  0  0  0  0  0  0  0  0  0
    6.6489    0.0011   19.8862 C   0  0  0  0  0  0  0  0  0  0  0  0
    7.3731   -0.6959   20.9332 C   0  0  0  0  0  0  0  0  0  0  0  0
    7.5276   -0.2871   22.2150 C   0  0  0  0  0  0  0  0  0  0  0  0
    7.1536    0.9957   22.8159 C   0  0  0  0  0  0  0  0  0  0  0  0
    6.2565    0.9954   23.8960 C   0  0  0  0  0  0  0  0  0  0  0  0
    5.9117    0.0380   24.2739 H   0  0  0  0  0  0  0  0  0  0  0  0
    5.8107    2.1843   24.4612 C   0  0  0  0  0  0  0  0  0  0  0  0
    5.1205    2.1622   25.2967 H   0  0  0  0  0  0  0  0  0  0  0  0
    6.2616    3.4064   23.9629 C   0  0  0  0  0  0  0  0  0  0  0  0
    5.9332    4.3459   24.3931 H   0  0  0  0  0  0  0  0  0  0  0  0
    7.1634    3.4357   22.8977 C   0  0  0  0  0  0  0  0  0  0  0  0
    7.7012    4.9830   22.3279 Cl  0  0  0  0  0  0  0  0  0  0  0  0
    7.6182    2.2396   22.3249 C   0  0  0  0  0  0  0  0  0  0  0  0
    8.7797    2.2968   21.0464 Cl  0  0  0  0  0  0  0  0  0  0  0  0
    8.2073   -1.3672   22.9598 C   0  0  0  0  0  0  0  0  0  0  0  0
    8.5482   -1.4403   24.1063 O   0  0  0  0  0  0  0  0  0  0  0  0
    8.4502   -2.3837   22.0852 O   0  0  0  0  0  0  0  0  0  0  0  0
    7.9881   -2.0476   20.7972 C   0  0  0  0  0  0  0  0  0  0  0  0
    7.2612   -2.7995   20.4666 H   0  0  0  0  0  0  0  0  0  0  0  0
    8.8376   -2.0337   20.1094 H   0  0  0  0  0  0  0  0  0  0  0  0
    5.4372    0.6582   20.1528 C   0  0  0  0  0  0  0  0  0  0  0  0
    5.0052    0.6372   21.1597 H   0  0  0  0  0  0  0  0  0  0  0  0
    4.8050    1.3105   19.0989 C   0  0  0  0  0  0  0  0  0  0  0  0
    3.8742    1.8441   19.2546 H   0  0  0  0  0  0  0  0  0  0  0  0
  1  2  1  0
  2  3  2  0
  3  4  1  0
  4  5  1  0
  4  6  2  0
  6  7  1  0
  7  8  2  0
  8  9  1  0
  9 10  2  0
 10 11  1  0
 10 12  1  0
 12 13  1  0
 12 14  2  0
 14 15  1  0
 14 16  1  0
 16 17  1  0
 16 18  2  0
 18 19  1  0
  8 20  1  0
 20 21  2  0
 20 22  1  0
 22 23  1  0
 23 24  1  0
 23 25  1  0
  6 26  1  0
 26 27  1  0
 26 28  2  0
 28 29  1  0
 28  2  1  0
 23  7  1  0
 18  9  1  0
M  END
>  <cnnaffinity>  (1) 
-4.32807

>  <filename>  (1) 
O=C1OCC(c2cccnc2)=C1c1cccc(Cl)c1Cl

$$$$
