
     RDKit          3D

 33 35  0  0  0  0  0  0  0  0999 V2000
    5.7133   -2.2058   21.3732 O   0  0  0  0  0  0  0  0  0  0  0  0
    6.8018   -1.7418   21.6170 C   0  0  0  0  0  0  0  0  0  0  0  0
    7.7062   -2.1774   22.7020 C   0  0  0  0  0  0  0  0  0  0  0  0
    7.2932   -2.9413   23.7390 C   0  0  0  0  0  0  0  0  0  0  0  0
    8.1971   -3.5009   24.7601 C   0  0  0  0  0  0  0  0  0  0  0  0
    9.3211   -4.2630   24.4069 C   0  0  0  0  0  0  0  0  0  0  0  0
   10.1471   -4.8145   25.3945 C   0  0  0  0  0  0  0  0  0  0  0  0
    9.8130   -4.6554   26.7430 C   0  0  0  0  0  0  0  0  0  0  0  0
    8.6998   -3.8941   27.1118 C   0  0  0  0  0  0  0  0  0  0  0  0
    7.9350   -3.2529   26.1287 C   0  0  0  0  0  0  0  0  0  0  0  0
    6.8380   -2.2578   26.4783 C   0  0  0  0  0  0  0  0  0  0  0  0
    6.9546   -1.7419   27.7093 F   0  0  0  0  0  0  0  0  0  0  0  0
    6.8268   -1.2089   25.6266 F   0  0  0  0  0  0  0  0  0  0  0  0
    5.6135   -2.8185   26.4018 F   0  0  0  0  0  0  0  0  0  0  0  0
    8.4419   -3.7994   28.1642 H   0  0  0  0  0  0  0  0  0  0  0  0
   10.4200   -5.1155   27.5202 H   0  0  0  0  0  0  0  0  0  0  0  0
   11.0393   -5.3743   25.1146 H   0  0  0  0  0  0  0  0  0  0  0  0
    9.5377   -4.4188   23.3563 H   0  0  0  0  0  0  0  0  0  0  0  0
    6.2239   -3.0536   23.9126 H   0  0  0  0  0  0  0  0  0  0  0  0
    9.2827   -1.4189   22.5276 S   0  0  0  0  0  0  0  0  0  0  0  0
    8.6938   -0.3342   21.2786 C   0  0  0  0  0  0  0  0  0  0  0  0
    9.5886    0.9090   20.7200 S   0  0  0  0  0  0  0  0  0  0  0  0
    7.4136   -0.6909   20.8839 N   0  0  0  0  0  0  0  0  0  0  0  0
    6.6852    0.0042   19.8393 C   0  0  0  0  0  0  0  0  0  0  0  0
    5.4716    0.6370   20.1186 C   0  0  0  0  0  0  0  0  0  0  0  0
    4.8294    1.3167   19.0754 C   0  0  0  0  0  0  0  0  0  0  0  0
    5.4134    1.3170   17.8031 C   0  0  0  0  0  0  0  0  0  0  0  0
    6.5703    0.6957   17.5219 N   0  0  0  0  0  0  0  0  0  0  0  0
    7.1847    0.0580   18.5236 C   0  0  0  0  0  0  0  0  0  0  0  0
    8.1220   -0.4441   18.3037 H   0  0  0  0  0  0  0  0  0  0  0  0
    4.9380    1.8283   16.9686 H   0  0  0  0  0  0  0  0  0  0  0  0
    3.8909    1.8383   19.2318 H   0  0  0  0  0  0  0  0  0  0  0  0
    5.0465    0.5870   21.1220 H   0  0  0  0  0  0  0  0  0  0  0  0
  1  2  2  0
  2  3  1  0
  3  4  2  3
  4  5  1  0
  5  6  2  0
  6  7  1  0
  7  8  2  0
  8  9  1  0
  9 10  2  0
 10 11  1  0
 11 12  1  0
 11 13  1  0
 11 14  1  0
  9 15  1  0
  8 16  1  0
  7 17  1  0
  6 18  1  0
  4 19  1  0
  3 20  1  0
 20 21  1  0
 21 22  2  0
 21 23  1  0
 23 24  1  0
 24 25  2  0
 25 26  1  0
 26 27  2  0
 27 28  1  0
 28 29  2  0
 29 30  1  0
 27 31  1  0
 26 32  1  0
 25 33  1  0
 23  2  1  0
 29 24  1  0
 10  5  1  0
M  END
>  <cnnaffinity>  (1) 
-5.14497

>  <filename>  (1) 
O=C1C(=Cc2ccccc2C(F)(F)F)SC(=S)N1c1cccnc1

$$$$
