
     RDKit          3D

 33 35  0  0  0  0  0  0  0  0999 V2000
    9.5873   -0.0385   20.5804 O   0  0  0  0  0  0  0  0  0  0  0  0
    8.7209   -0.7033   21.1147 C   0  0  0  0  0  0  0  0  0  0  0  0
    8.9865   -1.4962   22.2037 N   0  0  0  0  0  0  0  0  0  0  0  0
    7.7338   -1.9408   22.8114 C   0  0  0  0  0  0  0  0  0  0  0  0
    7.7026   -3.4576   22.9902 C   0  0  0  0  0  0  0  0  0  0  0  0
    8.6593   -3.9025   24.0694 C   0  0  0  0  0  0  0  0  0  0  0  0
   10.0296   -3.9131   23.7981 C   0  0  0  0  0  0  0  0  0  0  0  0
   10.9332   -4.3624   24.7588 C   0  0  0  0  0  0  0  0  0  0  0  0
   10.4873   -4.7949   26.0081 C   0  0  0  0  0  0  0  0  0  0  0  0
    9.1253   -4.7587   26.3018 C   0  0  0  0  0  0  0  0  0  0  0  0
    8.2144   -4.2924   25.3466 C   0  0  0  0  0  0  0  0  0  0  0  0
    6.3749   -4.1416   25.8210 Br  0  0  0  0  0  0  0  0  0  0  0  0
    8.7770   -5.0826   27.2789 H   0  0  0  0  0  0  0  0  0  0  0  0
   11.1928   -5.1147   26.7650 H   0  0  0  0  0  0  0  0  0  0  0  0
   11.9881   -4.3525   24.5280 H   0  0  0  0  0  0  0  0  0  0  0  0
   10.3996   -3.5539   22.8421 H   0  0  0  0  0  0  0  0  0  0  0  0
    7.9595   -3.9476   22.0424 H   0  0  0  0  0  0  0  0  0  0  0  0
    6.6855   -3.7582   23.2595 H   0  0  0  0  0  0  0  0  0  0  0  0
    6.7441   -1.4598   21.7411 C   0  0  0  0  0  0  0  0  0  0  0  0
    5.6414   -1.9550   21.5372 O   0  0  0  0  0  0  0  0  0  0  0  0
    7.3815   -0.6844   20.8006 N   0  0  0  0  0  0  0  0  0  0  0  0
    6.7363    0.0181   19.7528 C   0  0  0  0  0  0  0  0  0  0  0  0
    5.4931    0.5906   20.0233 C   0  0  0  0  0  0  0  0  0  0  0  0
    4.8369    1.2811   19.0000 C   0  0  0  0  0  0  0  0  0  0  0  0
    5.4252    1.3641   17.7305 C   0  0  0  0  0  0  0  0  0  0  0  0
    6.6205    0.8137   17.4435 N   0  0  0  0  0  0  0  0  0  0  0  0
    7.2617    0.1687   18.4429 C   0  0  0  0  0  0  0  0  0  0  0  0
    8.2280   -0.2783   18.2343 H   0  0  0  0  0  0  0  0  0  0  0  0
    4.8882    1.8887   16.9482 H   0  0  0  0  0  0  0  0  0  0  0  0
    3.8804    1.7636   19.1789 H   0  0  0  0  0  0  0  0  0  0  0  0
    5.0694    0.5125   21.0240 H   0  0  0  0  0  0  0  0  0  0  0  0
    7.5294   -1.4427   23.7659 H   0  0  0  0  0  0  0  0  0  0  0  0
    9.8202   -1.2892   22.7488 H   0  0  0  0  0  0  0  0  0  0  0  0
  1  2  2  0
  2  3  1  0
  3  4  1  0
  4  5  1  0
  5  6  1  0
  6  7  2  0
  7  8  1  0
  8  9  2  0
  9 10  1  0
 10 11  2  0
 11 12  1  0
 10 13  1  0
  9 14  1  0
  8 15  1  0
  7 16  1  0
  5 17  1  0
  5 18  1  0
  4 19  1  0
 19 20  2  0
 19 21  1  0
 21 22  1  0
 22 23  2  0
 23 24  1  0
 24 25  2  0
 25 26  1  0
 26 27  2  0
 27 28  1  0
 25 29  1  0
 24 30  1  0
 23 31  1  0
  4 32  1  0
  3 33  1  0
 21  2  1  0
 27 22  1  0
 11  6  1  0
M  END
>  <cnnaffinity>  (1) 
-5.05394

>  <filename>  (1) 
O=C1NC(Cc2ccccc2Br)C(=O)N1c1cccnc1

$$$$
