
     RDKit          3D

 36 38  0  0  0  0  0  0  0  0999 V2000
   11.1824    1.6546   22.0204 H   0  0  0  0  0  0  0  0  0  0  0  0
   10.1267    1.4970   22.2416 C   0  0  0  0  0  0  0  0  0  0  0  0
    9.4151    0.5993   21.5507 C   0  0  0  0  0  0  0  0  0  0  0  0
    9.9058    0.0452   20.7522 H   0  0  0  0  0  0  0  0  0  0  0  0
    7.9973    0.2234   21.9035 C   0  0  2  0  0  0  0  0  0  0  0  0
    7.3897    1.1462   21.8931 H   0  0  0  0  0  0  0  0  0  0  0  0
    7.8082   -0.3767   23.3235 C   0  0  0  0  0  0  0  0  0  0  0  0
    8.7419   -0.7986   23.7255 H   0  0  0  0  0  0  0  0  0  0  0  0
    7.4842    0.3851   24.0398 H   0  0  0  0  0  0  0  0  0  0  0  0
    6.7875   -1.3681   23.1233 N   0  0  0  0  0  0  0  0  0  0  0  0
    6.2906   -1.8506   23.8545 H   0  0  0  0  0  0  0  0  0  0  0  0
    6.4905   -1.6852   21.8388 C   0  0  0  0  0  0  0  0  0  0  0  0
    5.7104   -2.5518   21.5060 O   0  0  0  0  0  0  0  0  0  0  0  0
    7.3478   -0.7846   20.9300 C   0  0  1  0  0  0  0  0  0  0  0  0
    8.0975   -1.4627   20.5041 H   0  0  0  0  0  0  0  0  0  0  0  0
    6.6176   -0.0804   19.7917 C   0  0  0  0  0  0  0  0  0  0  0  0
    7.1602    0.0325   18.4949 C   0  0  0  0  0  0  0  0  0  0  0  0
    8.1113   -0.4499   18.2609 H   0  0  0  0  0  0  0  0  0  0  0  0
    6.5889    0.7112   17.4915 N   0  0  0  0  0  0  0  0  0  0  0  0
    5.4289    1.3327   17.7565 C   0  0  0  0  0  0  0  0  0  0  0  0
    4.9810    1.8803   16.9300 H   0  0  0  0  0  0  0  0  0  0  0  0
    4.8030    1.3035   19.0073 C   0  0  0  0  0  0  0  0  0  0  0  0
    3.8774    1.8501   19.1608 H   0  0  0  0  0  0  0  0  0  0  0  0
    5.4135    0.5919   20.0430 C   0  0  0  0  0  0  0  0  0  0  0  0
    4.9701    0.5729   21.0423 H   0  0  0  0  0  0  0  0  0  0  0  0
    9.5433    2.2572   23.3798 C   0  0  0  0  0  0  0  0  0  0  0  0
    9.8141    1.8441   24.6951 C   0  0  0  0  0  0  0  0  0  0  0  0
   10.5293    1.0411   24.8599 H   0  0  0  0  0  0  0  0  0  0  0  0
    9.1432    2.4224   25.7744 C   0  0  0  0  0  0  0  0  0  0  0  0
    9.2898    2.0434   26.7764 H   0  0  0  0  0  0  0  0  0  0  0  0
    8.2536    3.4780   25.5643 C   0  0  0  0  0  0  0  0  0  0  0  0
    7.7501    3.9121   26.4254 H   0  0  0  0  0  0  0  0  0  0  0  0
    8.0209    3.9410   24.2636 C   0  0  0  0  0  0  0  0  0  0  0  0
    7.3749    4.8004   24.1002 H   0  0  0  0  0  0  0  0  0  0  0  0
    8.6323    3.3065   23.1702 C   0  0  0  0  0  0  0  0  0  0  0  0
    8.3945    3.6091   22.1466 H   0  0  0  0  0  0  0  0  0  0  0  0
  1  2  1  0
  2  3  2  3
  3  4  1  0
  3  5  1  0
  5  6  1  1
  5  7  1  0
  7  8  1  0
  7  9  1  0
  7 10  1  0
 10 11  1  0
 10 12  1  0
 12 13  2  0
 12 14  1  0
 14 15  1  6
 14 16  1  0
 16 17  2  0
 17 18  1  0
 17 19  1  0
 19 20  2  0
 20 21  1  0
 20 22  1  0
 22 23  1  0
 22 24  2  0
 24 25  1  0
  2 26  1  0
 26 27  2  0
 27 28  1  0
 27 29  1  0
 29 30  1  0
 29 31  2  0
 31 32  1  0
 31 33  1  0
 33 34  1  0
 33 35  2  0
 35 36  1  0
 14  5  1  0
 24 16  1  0
 35 26  1  0
M  END
>  <cnnaffinity>  (1) 
-5.04421

>  <filename>  (1) 
O=C1NC[C@@H](C=Cc2ccccc2)[C@@H]1c1cccnc1

$$$$
