
     RDKit          3D

 34 36  0  0  0  0  0  0  0  0999 V2000
    8.7630    2.1513   20.6430 H   0  0  0  0  0  0  0  0  0  0  0  0
    8.9111    2.9932   21.0950 O   0  0  0  0  0  0  0  0  0  0  0  0
    9.7833    2.7494   22.1159 C   0  0  0  0  0  0  0  0  0  0  0  0
   10.4602    3.8095   22.7077 C   0  0  0  0  0  0  0  0  0  0  0  0
   10.3277    4.8116   22.3183 H   0  0  0  0  0  0  0  0  0  0  0  0
   11.3474    3.5508   23.7544 C   0  0  0  0  0  0  0  0  0  0  0  0
   12.2186    4.8882   24.4422 Cl  0  0  0  0  0  0  0  0  0  0  0  0
   11.5448    2.2547   24.2359 C   0  0  0  0  0  0  0  0  0  0  0  0
   12.1840    2.0774   25.0920 H   0  0  0  0  0  0  0  0  0  0  0  0
   10.8517    1.1908   23.6385 C   0  0  0  0  0  0  0  0  0  0  0  0
   10.9621    0.1665   23.9852 H   0  0  0  0  0  0  0  0  0  0  0  0
    9.9935    1.4301   22.5663 C   0  0  0  0  0  0  0  0  0  0  0  0
    9.3815    0.4005   21.8811 O   0  0  0  0  0  0  0  0  0  0  0  0
    7.9696    0.2589   22.1064 C   0  0  2  0  0  0  0  0  0  0  0  0
    7.4837    1.2420   22.0487 H   0  0  0  0  0  0  0  0  0  0  0  0
    7.6494   -0.3608   23.4866 C   0  0  0  0  0  0  0  0  0  0  0  0
    7.2331    0.3945   24.1708 H   0  0  0  0  0  0  0  0  0  0  0  0
    8.5635   -0.7742   23.9398 H   0  0  0  0  0  0  0  0  0  0  0  0
    6.6978   -1.3960   23.1449 N   0  0  0  0  0  0  0  0  0  0  0  0
    6.1607   -1.9532   23.7905 H   0  0  0  0  0  0  0  0  0  0  0  0
    6.5470   -1.6773   21.8255 C   0  0  0  0  0  0  0  0  0  0  0  0
    5.8533   -2.5717   21.3893 O   0  0  0  0  0  0  0  0  0  0  0  0
    7.4067   -0.6848   21.0245 C   0  0  1  0  0  0  0  0  0  0  0  0
    8.2359   -1.2769   20.6338 H   0  0  0  0  0  0  0  0  0  0  0  0
    6.6812    0.0153   19.8712 C   0  0  0  0  0  0  0  0  0  0  0  0
    7.1883    0.0763   18.5524 C   0  0  0  0  0  0  0  0  0  0  0  0
    8.1392   -0.3963   18.3008 H   0  0  0  0  0  0  0  0  0  0  0  0
    6.5751    0.7028   17.5370 N   0  0  0  0  0  0  0  0  0  0  0  0
    5.4132    1.3190   17.7967 C   0  0  0  0  0  0  0  0  0  0  0  0
    4.9306    1.8247   16.9595 H   0  0  0  0  0  0  0  0  0  0  0  0
    4.8151    1.3175   19.0590 C   0  0  0  0  0  0  0  0  0  0  0  0
    3.8803    1.8413   19.2112 H   0  0  0  0  0  0  0  0  0  0  0  0
    5.4565    0.6533   20.1079 C   0  0  0  0  0  0  0  0  0  0  0  0
    5.0167    0.6408   21.1068 H   0  0  0  0  0  0  0  0  0  0  0  0
  1  2  1  0
  2  3  1  0
  3  4  2  0
  4  5  1  0
  4  6  1  0
  6  7  1  0
  6  8  2  0
  8  9  1  0
  8 10  1  0
 10 11  1  0
 10 12  2  0
 12 13  1  0
 13 14  1  0
 14 15  1  1
 14 16  1  0
 16 17  1  0
 16 18  1  0
 16 19  1  0
 19 20  1  0
 19 21  1  0
 21 22  2  0
 21 23  1  0
 23 24  1  6
 23 25  1  0
 25 26  2  0
 26 27  1  0
 26 28  1  0
 28 29  2  0
 29 30  1  0
 29 31  1  0
 31 32  1  0
 31 33  2  0
 33 34  1  0
 12  3  1  0
 23 14  1  0
 33 25  1  0
M  END
>  <cnnaffinity>  (1) 
-5.29245

>  <filename>  (1) 
O=C1NC[C@@H](Oc2ccc(Cl)cc2O)[C@@H]1c1cccnc1

$$$$
