
     RDKit          3D

 39 41  0  0  0  0  0  0  0  0999 V2000
    4.9541    1.8099   16.9678 H   0  0  0  0  0  0  0  0  0  0  0  0
    5.4084    1.3123   17.8220 C   0  0  0  0  0  0  0  0  0  0  0  0
    6.5715    0.6861   17.5935 N   0  0  0  0  0  0  0  0  0  0  0  0
    7.1514    0.0753   18.6329 C   0  0  0  0  0  0  0  0  0  0  0  0
    8.0996   -0.4124   18.4206 H   0  0  0  0  0  0  0  0  0  0  0  0
    6.6213    0.0420   19.9380 C   0  0  0  0  0  0  0  0  0  0  0  0
    7.3746   -0.6656   21.0455 C   0  0  2  0  0  0  0  0  0  0  0  0
    6.9307   -0.3706   22.0134 H   0  0  0  0  0  0  0  0  0  0  0  0
    8.8021   -0.3453   20.9655 N   0  0  0  0  0  0  0  0  0  0  0  0
    9.2386    0.9892   21.3021 C   0  0  0  0  0  0  0  0  0  0  0  0
    8.6338    1.6954   20.7159 H   0  0  0  0  0  0  0  0  0  0  0  0
   10.2830    1.0647   20.9682 H   0  0  0  0  0  0  0  0  0  0  0  0
    9.1171    1.1937   22.7350 N   0  0  0  0  0  0  0  0  0  0  0  0
   10.3678    1.5413   23.4427 C   0  0  0  0  0  0  0  0  0  0  0  0
   11.1685    0.8830   23.0855 H   0  0  0  0  0  0  0  0  0  0  0  0
   10.2100    1.3011   24.5039 H   0  0  0  0  0  0  0  0  0  0  0  0
   10.7657    3.0401   23.3130 C   0  0  0  0  0  0  0  0  0  0  0  0
   11.0226    3.2237   22.2602 H   0  0  0  0  0  0  0  0  0  0  0  0
   11.6667    3.2467   23.9040 H   0  0  0  0  0  0  0  0  0  0  0  0
    9.7088    4.0061   23.6746 N   0  0  0  0  0  0  0  0  0  0  0  0
    9.5913    4.0509   24.6850 H   0  0  0  0  0  0  0  0  0  0  0  0
    8.4379    3.6253   23.0261 C   0  0  0  0  0  0  0  0  0  0  0  0
    7.6247    4.2562   23.4054 H   0  0  0  0  0  0  0  0  0  0  0  0
    8.5400    3.8426   21.9537 H   0  0  0  0  0  0  0  0  0  0  0  0
    8.0475    2.1254   23.1588 C   0  0  0  0  0  0  0  0  0  0  0  0
    7.8286    1.9001   24.2132 H   0  0  0  0  0  0  0  0  0  0  0  0
    7.1248    1.9266   22.5969 H   0  0  0  0  0  0  0  0  0  0  0  0
    9.6151   -1.3702   21.3526 C   0  0  0  0  0  0  0  0  0  0  0  0
   10.8033   -1.2835   21.6133 O   0  0  0  0  0  0  0  0  0  0  0  0
    8.7979   -2.6457   21.3710 C   0  0  0  0  0  0  0  0  0  0  0  0
    8.8939   -3.0887   22.3684 H   0  0  0  0  0  0  0  0  0  0  0  0
    9.2571   -3.3555   20.6808 H   0  0  0  0  0  0  0  0  0  0  0  0
    7.3685   -2.2134   20.9867 C   0  0  0  0  0  0  0  0  0  0  0  0
    6.6140   -2.6579   21.6420 H   0  0  0  0  0  0  0  0  0  0  0  0
    7.0829   -2.5105   19.9765 H   0  0  0  0  0  0  0  0  0  0  0  0
    5.4020    0.6989   20.1532 C   0  0  0  0  0  0  0  0  0  0  0  0
    4.9488    0.7250   21.1489 H   0  0  0  0  0  0  0  0  0  0  0  0
    4.7869    1.3380   19.0748 C   0  0  0  0  0  0  0  0  0  0  0  0
    3.8467    1.8645   19.1910 H   0  0  0  0  0  0  0  0  0  0  0  0
  1  2  1  0
  2  3  2  0
  3  4  1  0
  4  5  1  0
  4  6  2  0
  6  7  1  0
  7  8  1  1
  7  9  1  0
  9 10  1  0
 10 11  1  0
 10 12  1  0
 10 13  1  0
 13 14  1  0
 14 15  1  0
 14 16  1  0
 14 17  1  0
 17 18  1  0
 17 19  1  0
 17 20  1  0
 20 21  1  0
 20 22  1  0
 22 23  1  0
 22 24  1  0
 22 25  1  0
 25 26  1  0
 25 27  1  0
  9 28  1  0
 28 29  2  0
 28 30  1  0
 30 31  1  0
 30 32  1  0
 30 33  1  0
 33 34  1  0
 33 35  1  0
  6 36  1  0
 36 37  1  0
 36 38  2  0
 38 39  1  0
 38  2  1  0
 33  7  1  0
 25 13  1  0
M  END
>  <cnnaffinity>  (1) 
-4.73778

>  <filename>  (1) 
O=C1CC[C@H](c2cccnc2)N1CN1CCNCC1

$$$$
