
     RDKit          3D

 44 47  0  0  0  0  0  0  0  0999 V2000
    5.3517   -2.3764   26.5777 O   0  0  0  0  0  0  0  0  0  0  0  0
    6.1163   -3.3100   26.7410 C   0  0  0  0  0  0  0  0  0  0  0  0
    6.2253   -4.2056   27.9289 C   0  0  0  0  0  0  0  0  0  0  0  0
    5.4995   -4.1803   29.1268 C   0  0  0  0  0  0  0  0  0  0  0  0
    5.8834   -5.0603   30.1447 C   0  0  0  0  0  0  0  0  0  0  0  0
    6.9162   -5.9934   29.9350 C   0  0  0  0  0  0  0  0  0  0  0  0
    7.5872   -6.0463   28.7034 C   0  0  0  0  0  0  0  0  0  0  0  0
    7.2550   -5.1170   27.7113 C   0  0  0  0  0  0  0  0  0  0  0  0
    7.8556   -4.8706   26.3419 C   0  0  0  0  0  0  0  0  0  0  0  0
    7.0738   -3.7387   25.8425 N   0  0  0  0  0  0  0  0  0  0  0  0
    7.0880   -3.2586   24.4684 C   0  0  0  0  0  0  0  0  0  0  0  0
    7.7219   -1.8608   24.3379 C   0  0  0  0  0  0  0  0  0  0  0  0
    7.7787   -1.4029   22.9160 C   0  0  0  0  0  0  0  0  0  0  0  0
    6.8398   -0.7245   22.2868 N   0  0  0  0  0  0  0  0  0  0  0  0
    7.3060   -0.6238   21.0191 C   0  0  0  0  0  0  0  0  0  0  0  0
    6.5928    0.0445   19.9368 C   0  0  0  0  0  0  0  0  0  0  0  0
    5.3698    0.7027   20.1315 C   0  0  0  0  0  0  0  0  0  0  0  0
    4.7896    1.3355   19.0354 C   0  0  0  0  0  0  0  0  0  0  0  0
    5.4455    1.2876   17.7996 C   0  0  0  0  0  0  0  0  0  0  0  0
    6.6050    0.6428   17.6003 N   0  0  0  0  0  0  0  0  0  0  0  0
    7.1601    0.0366   18.6525 C   0  0  0  0  0  0  0  0  0  0  0  0
    8.1000   -0.4808   18.4649 H   0  0  0  0  0  0  0  0  0  0  0  0
    5.0224    1.7829   16.9290 H   0  0  0  0  0  0  0  0  0  0  0  0
    3.8539    1.8760   19.1241 H   0  0  0  0  0  0  0  0  0  0  0  0
    4.9009    0.7166   21.1182 H   0  0  0  0  0  0  0  0  0  0  0  0
    8.4783   -1.1967   20.8260 N   0  0  0  0  0  0  0  0  0  0  0  0
    8.7621   -1.7249   22.0361 N   0  0  0  0  0  0  0  0  0  0  0  0
   10.0224   -2.4256   22.1178 C   0  0  0  0  0  0  0  0  0  0  0  0
   11.1768   -1.4689   22.3109 C   0  0  0  0  0  0  0  0  0  0  0  0
   12.3386   -2.1748   22.2698 F   0  0  0  0  0  0  0  0  0  0  0  0
   11.0759   -0.8900   23.5429 F   0  0  0  0  0  0  0  0  0  0  0  0
   11.2198   -0.6756   21.5616 H   0  0  0  0  0  0  0  0  0  0  0  0
   10.1357   -2.8972   21.1450 H   0  0  0  0  0  0  0  0  0  0  0  0
   10.0291   -3.1731   22.9143 H   0  0  0  0  0  0  0  0  0  0  0  0
    7.1209   -1.1420   24.9062 H   0  0  0  0  0  0  0  0  0  0  0  0
    8.7330   -1.8678   24.7632 H   0  0  0  0  0  0  0  0  0  0  0  0
    6.0586   -3.2145   24.0905 H   0  0  0  0  0  0  0  0  0  0  0  0
    7.6340   -3.9789   23.8398 H   0  0  0  0  0  0  0  0  0  0  0  0
    7.7562   -5.7517   25.6912 H   0  0  0  0  0  0  0  0  0  0  0  0
    8.9302   -4.6393   26.4143 H   0  0  0  0  0  0  0  0  0  0  0  0
    8.3400   -6.8111   28.5271 H   0  0  0  0  0  0  0  0  0  0  0  0
    7.2137   -6.6709   30.7378 H   0  0  0  0  0  0  0  0  0  0  0  0
    5.3575   -5.0495   31.0964 H   0  0  0  0  0  0  0  0  0  0  0  0
    4.6713   -3.4839   29.2557 H   0  0  0  0  0  0  0  0  0  0  0  0
  1  2  2  0
  2  3  1  0
  3  4  2  0
  4  5  1  0
  5  6  2  0
  6  7  1  0
  7  8  2  0
  8  9  1  0
  9 10  1  0
 10 11  1  0
 11 12  1  0
 12 13  1  0
 13 14  2  0
 14 15  1  0
 15 16  1  0
 16 17  2  0
 17 18  1  0
 18 19  2  0
 19 20  1  0
 20 21  2  0
 21 22  1  0
 19 23  1  0
 18 24  1  0
 17 25  1  0
 15 26  2  0
 26 27  1  0
 27 28  1  0
 28 29  1  0
 29 30  1  0
 29 31  1  0
 29 32  1  0
 28 33  1  0
 28 34  1  0
 12 35  1  0
 12 36  1  0
 11 37  1  0
 11 38  1  0
  9 39  1  0
  9 40  1  0
  7 41  1  0
  6 42  1  0
  5 43  1  0
  4 44  1  0
 10  2  1  0
 27 13  1  0
  8  3  1  0
 21 16  1  0
M  END
>  <cnnaffinity>  (1) 
-5.78205

>  <filename>  (1) 
O=C1c2ccccc2CN1CCc1nc(-c2cccnc2)nn1CC(F)F

$$$$
