
     RDKit          3D

 33 35  0  0  0  0  0  0  0  0999 V2000
    4.9863    1.7236   17.0695 H   0  0  0  0  0  0  0  0  0  0  0  0
    5.4529    1.2486   17.9317 C   0  0  0  0  0  0  0  0  0  0  0  0
    6.6245    0.6319   17.6984 N   0  0  0  0  0  0  0  0  0  0  0  0
    7.2344    0.0382   18.7316 C   0  0  0  0  0  0  0  0  0  0  0  0
    8.1911   -0.4473   18.5346 H   0  0  0  0  0  0  0  0  0  0  0  0
    6.7049    0.0146   20.0464 C   0  0  0  0  0  0  0  0  0  0  0  0
    7.3507   -0.6266   21.1413 N   0  0  0  0  0  0  0  0  0  0  0  0
    7.7655   -1.9549   21.1886 C   0  0  0  0  0  0  0  0  0  0  0  0
    7.2184   -2.9533   20.8039 O   0  0  0  0  0  0  0  0  0  0  0  0
    8.9702   -1.9346   21.8699 N   0  0  0  0  0  0  0  0  0  0  0  0
    9.3874   -2.8029   22.1358 H   0  0  0  0  0  0  0  0  0  0  0  0
    9.0982   -0.8269   22.6664 C   0  0  0  0  0  0  0  0  0  0  0  0
    9.9410   -0.6886   23.5120 O   0  0  0  0  0  0  0  0  0  0  0  0
    7.9127    0.0770   22.3125 C   0  0  2  0  0  0  0  0  0  0  0  0
    8.2660    1.0753   22.0307 H   0  0  0  0  0  0  0  0  0  0  0  0
    6.9407    0.1455   23.5073 C   0  0  0  0  0  0  0  0  0  0  0  0
    6.5522   -1.0642   24.1132 C   0  0  0  0  0  0  0  0  0  0  0  0
    7.0288   -1.9949   23.8257 H   0  0  0  0  0  0  0  0  0  0  0  0
    5.5518   -1.1149   25.0838 C   0  0  0  0  0  0  0  0  0  0  0  0
    5.2414   -2.0824   25.4677 H   0  0  0  0  0  0  0  0  0  0  0  0
    4.9290    0.0603   25.5026 C   0  0  0  0  0  0  0  0  0  0  0  0
    4.1493    0.0300   26.2617 H   0  0  0  0  0  0  0  0  0  0  0  0
    5.3532    1.2809   24.9686 C   0  0  0  0  0  0  0  0  0  0  0  0
    4.9080    2.1997   25.3440 H   0  0  0  0  0  0  0  0  0  0  0  0
    6.3892    1.3393   24.0187 C   0  0  0  0  0  0  0  0  0  0  0  0
    6.9858    2.6959   23.6620 C   0  0  0  0  0  0  0  0  0  0  0  0
    6.4787    3.7085   24.3875 F   0  0  0  0  0  0  0  0  0  0  0  0
    8.3226    2.6723   23.8718 F   0  0  0  0  0  0  0  0  0  0  0  0
    6.8063    3.0280   22.3663 F   0  0  0  0  0  0  0  0  0  0  0  0
    5.5054    0.6964   20.2763 C   0  0  0  0  0  0  0  0  0  0  0  0
    5.1349    0.7353   21.3017 H   0  0  0  0  0  0  0  0  0  0  0  0
    4.8572    1.3077   19.1962 C   0  0  0  0  0  0  0  0  0  0  0  0
    3.9288    1.8521   19.3255 H   0  0  0  0  0  0  0  0  0  0  0  0
  1  2  1  0
  2  3  2  0
  3  4  1  0
  4  5  1  0
  4  6  2  0
  6  7  1  0
  7  8  1  0
  8  9  2  0
  8 10  1  0
 10 11  1  0
 10 12  1  0
 12 13  2  0
 12 14  1  0
 14 15  1  6
 14 16  1  0
 16 17  2  0
 17 18  1  0
 17 19  1  0
 19 20  1  0
 19 21  2  0
 21 22  1  0
 21 23  1  0
 23 24  1  0
 23 25  2  0
 25 26  1  0
 26 27  1  0
 26 28  1  0
 26 29  1  0
  6 30  1  0
 30 31  1  0
 30 32  2  0
 32 33  1  0
 32  2  1  0
 14  7  1  0
 25 16  1  0
M  END
>  <cnnaffinity>  (1) 
-4.86487

>  <filename>  (1) 
O=C1NC(=O)N(c2cccnc2)[C@H]1c1ccccc1C(F)(F)F

$$$$
