
     RDKit          3D

 31 33  0  0  0  0  0  0  0  0999 V2000
    4.9481    1.7989   16.9719 H   0  0  0  0  0  0  0  0  0  0  0  0
    5.4461    1.3227   17.8145 C   0  0  0  0  0  0  0  0  0  0  0  0
    6.6306    0.7506   17.5489 N   0  0  0  0  0  0  0  0  0  0  0  0
    7.2501    0.1252   18.5525 C   0  0  0  0  0  0  0  0  0  0  0  0
    8.2229   -0.3098   18.3326 H   0  0  0  0  0  0  0  0  0  0  0  0
    6.7084   -0.0119   19.8433 C   0  0  0  0  0  0  0  0  0  0  0  0
    7.4670   -0.7940   20.8342 C   0  0  0  0  0  0  0  0  0  0  0  0
    8.7741   -0.5975   20.9183 N   0  0  0  0  0  0  0  0  0  0  0  0
    9.4655   -1.1723   21.9555 C   0  0  0  0  0  0  0  0  0  0  0  0
   11.2288   -0.8490   22.0650 S   0  0  0  0  0  0  0  0  0  0  0  0
   11.1075    0.6347   23.0531 C   0  0  0  0  0  0  0  0  0  0  0  0
   10.9191    1.8708   22.4193 C   0  0  0  0  0  0  0  0  0  0  0  0
   11.0030    1.9197   21.3385 H   0  0  0  0  0  0  0  0  0  0  0  0
   10.5581    2.9937   23.1670 C   0  0  0  0  0  0  0  0  0  0  0  0
   10.4053    3.9377   22.6540 H   0  0  0  0  0  0  0  0  0  0  0  0
   10.3808    2.8814   24.5504 C   0  0  0  0  0  0  0  0  0  0  0  0
   10.0002    3.7314   25.1149 H   0  0  0  0  0  0  0  0  0  0  0  0
   10.6564    1.6696   25.1992 C   0  0  0  0  0  0  0  0  0  0  0  0
   10.5386    1.6034   26.2804 H   0  0  0  0  0  0  0  0  0  0  0  0
   11.0536    0.5526   24.4552 C   0  0  0  0  0  0  0  0  0  0  0  0
   11.2956   -0.3778   24.9688 H   0  0  0  0  0  0  0  0  0  0  0  0
    8.8647   -1.9465   22.9186 C   0  0  0  0  0  0  0  0  0  0  0  0
    9.4114   -2.4047   23.7376 H   0  0  0  0  0  0  0  0  0  0  0  0
    7.5193   -2.2082   22.8024 N   0  0  0  0  0  0  0  0  0  0  0  0
    7.0030   -2.8411   23.4049 H   0  0  0  0  0  0  0  0  0  0  0  0
    6.7436   -1.8090   21.7093 C   0  0  0  0  0  0  0  0  0  0  0  0
    5.6485   -2.3210   21.5733 O   0  0  0  0  0  0  0  0  0  0  0  0
    5.4790    0.6206   20.1153 C   0  0  0  0  0  0  0  0  0  0  0  0
    5.0395    0.6039   21.1157 H   0  0  0  0  0  0  0  0  0  0  0  0
    4.8459    1.3024   19.0763 C   0  0  0  0  0  0  0  0  0  0  0  0
    3.9033    1.8180   19.2214 H   0  0  0  0  0  0  0  0  0  0  0  0
  1  2  1  0
  2  3  2  0
  3  4  1  0
  4  5  1  0
  4  6  2  0
  6  7  1  0
  7  8  2  0
  8  9  1  0
  9 10  1  0
 10 11  1  0
 11 12  2  0
 12 13  1  0
 12 14  1  0
 14 15  1  0
 14 16  2  0
 16 17  1  0
 16 18  1  0
 18 19  1  0
 18 20  2  0
 20 21  1  0
  9 22  2  0
 22 23  1  0
 22 24  1  0
 24 25  1  0
 24 26  1  0
 26 27  2  0
  6 28  1  0
 28 29  1  0
 28 30  2  0
 30 31  1  0
 30  2  1  0
 26  7  1  0
 20 11  1  0
M  END
>  <cnnaffinity>  (1) 
-5.5461

>  <filename>  (1) 
O=c1[nH]cc(Sc2ccccc2)nc1-c1cccnc1

$$$$
