
     RDKit          3D

 33 35  0  0  0  0  0  0  0  0999 V2000
    5.0416    1.9595   16.6687 H   0  0  0  0  0  0  0  0  0  0  0  0
    5.3943    1.4759   17.5763 C   0  0  0  0  0  0  0  0  0  0  0  0
    6.5419    0.7889   17.4631 N   0  0  0  0  0  0  0  0  0  0  0  0
    6.9917    0.1682   18.5560 C   0  0  0  0  0  0  0  0  0  0  0  0
    7.9312   -0.3742   18.4476 H   0  0  0  0  0  0  0  0  0  0  0  0
    6.3413    0.2032   19.7967 C   0  0  0  0  0  0  0  0  0  0  0  0
    6.9477   -0.5482   20.9145 C   0  0  0  0  0  0  0  0  0  0  0  0
    7.4567   -1.7119   20.6128 N   0  0  0  0  0  0  0  0  0  0  0  0
    8.0197   -2.4597   21.6046 C   0  0  0  0  0  0  0  0  0  0  0  0
    8.5660   -3.5305   21.4415 O   0  0  0  0  0  0  0  0  0  0  0  0
    7.9718   -1.9497   22.9089 N   0  0  0  0  0  0  0  0  0  0  0  0
    8.5002   -2.5485   23.5148 H   0  0  0  0  0  0  0  0  0  0  0  0
    7.5440   -0.7014   23.2331 C   0  0  0  0  0  0  0  0  0  0  0  0
    7.7929   -0.1968   24.6297 C   0  0  0  0  0  0  0  0  0  0  0  0
    7.6565   -1.0284   25.3263 H   0  0  0  0  0  0  0  0  0  0  0  0
    7.0442    0.5570   24.8903 H   0  0  0  0  0  0  0  0  0  0  0  0
    9.1971    0.3801   24.7782 C   0  0  0  0  0  0  0  0  0  0  0  0
   10.2640   -0.4458   25.1628 C   0  0  0  0  0  0  0  0  0  0  0  0
   10.0445   -1.4557   25.5031 H   0  0  0  0  0  0  0  0  0  0  0  0
   11.5845    0.0107   25.1396 C   0  0  0  0  0  0  0  0  0  0  0  0
   12.3946   -0.6283   25.4665 H   0  0  0  0  0  0  0  0  0  0  0  0
   11.8646    1.3120   24.7185 C   0  0  0  0  0  0  0  0  0  0  0  0
   12.8919    1.6600   24.6658 H   0  0  0  0  0  0  0  0  0  0  0  0
   10.8218    2.1772   24.3906 C   0  0  0  0  0  0  0  0  0  0  0  0
   11.0173    3.1986   24.0764 H   0  0  0  0  0  0  0  0  0  0  0  0
    9.5037    1.7141   24.4485 C   0  0  0  0  0  0  0  0  0  0  0  0
    8.2281    2.8610   24.1120 Cl  0  0  0  0  0  0  0  0  0  0  0  0
    6.9882    0.0210   22.2146 C   0  0  0  0  0  0  0  0  0  0  0  0
    6.6292    1.0283   22.3635 H   0  0  0  0  0  0  0  0  0  0  0  0
    5.1562    0.9471   19.9087 C   0  0  0  0  0  0  0  0  0  0  0  0
    4.6197    1.0152   20.8576 H   0  0  0  0  0  0  0  0  0  0  0  0
    4.6709    1.5849   18.7681 C   0  0  0  0  0  0  0  0  0  0  0  0
    3.7562    2.1704   18.7859 H   0  0  0  0  0  0  0  0  0  0  0  0
  1  2  1  0
  2  3  2  0
  3  4  1  0
  4  5  1  0
  4  6  2  0
  6  7  1  0
  7  8  2  0
  8  9  1  0
  9 10  2  0
  9 11  1  0
 11 12  1  0
 11 13  1  0
 13 14  1  0
 14 15  1  0
 14 16  1  0
 14 17  1  0
 17 18  2  0
 18 19  1  0
 18 20  1  0
 20 21  1  0
 20 22  2  0
 22 23  1  0
 22 24  1  0
 24 25  1  0
 24 26  2  0
 26 27  1  0
 13 28  2  0
 28 29  1  0
  6 30  1  0
 30 31  1  0
 30 32  2  0
 32 33  1  0
 32  2  1  0
 28  7  1  0
 26 17  1  0
M  END
>  <cnnaffinity>  (1) 
-5.39559

>  <filename>  (1) 
O=c1nc(-c2cccnc2)cc(Cc2ccccc2Cl)[nH]1

$$$$
