
     RDKit          3D

 28 30  0  0  0  0  0  0  0  0999 V2000
    4.9347    1.8762   16.9315 H   0  0  0  0  0  0  0  0  0  0  0  0
    5.4085    1.3559   17.7626 C   0  0  0  0  0  0  0  0  0  0  0  0
    6.5755    0.7440   17.5001 N   0  0  0  0  0  0  0  0  0  0  0  0
    7.1812    0.1038   18.5095 C   0  0  0  0  0  0  0  0  0  0  0  0
    8.1174   -0.4040   18.2800 H   0  0  0  0  0  0  0  0  0  0  0  0
    6.6521    0.0288   19.8131 C   0  0  0  0  0  0  0  0  0  0  0  0
    7.3085   -0.6870   20.8778 N   0  0  0  0  0  0  0  0  0  0  0  0
    8.5601   -0.2824   21.2972 C   0  0  0  0  0  0  0  0  0  0  0  0
    8.9893    0.5445   20.7374 H   0  0  0  0  0  0  0  0  0  0  0  0
    9.2116   -0.9016   22.3163 C   0  0  0  0  0  0  0  0  0  0  0  0
   10.1851   -0.5559   22.6406 H   0  0  0  0  0  0  0  0  0  0  0  0
    8.5897   -2.0109   22.9746 C   0  0  0  0  0  0  0  0  0  0  0  0
    9.3225   -2.7478   23.9439 N   0  0  0  0  0  0  0  0  0  0  0  0
   10.6219   -3.1680   23.8318 C   0  0  0  0  0  0  0  0  0  0  0  0
   11.2388   -2.9156   22.9777 H   0  0  0  0  0  0  0  0  0  0  0  0
   10.9894   -3.9292   24.8237 N   0  0  0  0  0  0  0  0  0  0  0  0
    9.8846   -4.0280   25.6369 C   0  0  0  0  0  0  0  0  0  0  0  0
    9.8824   -4.6353   26.5339 H   0  0  0  0  0  0  0  0  0  0  0  0
    8.8510   -3.3108   25.1170 C   0  0  0  0  0  0  0  0  0  0  0  0
    7.8573   -3.1035   25.4804 H   0  0  0  0  0  0  0  0  0  0  0  0
    7.3334   -2.3930   22.6153 C   0  0  0  0  0  0  0  0  0  0  0  0
    6.8120   -3.2289   23.0559 H   0  0  0  0  0  0  0  0  0  0  0  0
    6.6219   -1.7811   21.5259 C   0  0  0  0  0  0  0  0  0  0  0  0
    5.5360   -2.1708   21.1296 O   0  0  0  0  0  0  0  0  0  0  0  0
    5.4356    0.6616   20.0721 C   0  0  0  0  0  0  0  0  0  0  0  0
    5.0135    0.6094   21.0744 H   0  0  0  0  0  0  0  0  0  0  0  0
    4.8099    1.3414   19.0263 C   0  0  0  0  0  0  0  0  0  0  0  0
    3.8743    1.8581   19.1886 H   0  0  0  0  0  0  0  0  0  0  0  0
  1  2  1  0
  2  3  2  0
  3  4  1  0
  4  5  1  0
  4  6  2  0
  6  7  1  0
  7  8  1  0
  8  9  1  0
  8 10  2  0
 10 11  1  0
 10 12  1  0
 12 13  1  0
 13 14  1  0
 14 15  1  0
 14 16  2  0
 16 17  1  0
 17 18  1  0
 17 19  2  0
 19 20  1  0
 12 21  2  0
 21 22  1  0
 21 23  1  0
 23 24  2  0
  6 25  1  0
 25 26  1  0
 25 27  2  0
 27 28  1  0
 27  2  1  0
 23  7  1  0
 19 13  1  0
M  END
>  <cnnaffinity>  (1) 
-5.09172

>  <filename>  (1) 
O=c1cc(-n2ccnc2)ccn1-c1cccnc1

$$$$
