
     RDKit          3D

 35 37  0  0  0  0  0  0  0  0999 V2000
    4.9634    1.8238   16.9887 H   0  0  0  0  0  0  0  0  0  0  0  0
    5.3940    1.2863   17.8334 C   0  0  0  0  0  0  0  0  0  0  0  0
    6.5419    0.6360   17.5989 N   0  0  0  0  0  0  0  0  0  0  0  0
    7.1123    0.0016   18.6261 C   0  0  0  0  0  0  0  0  0  0  0  0
    8.0779   -0.4604   18.4243 H   0  0  0  0  0  0  0  0  0  0  0  0
    6.5670   -0.0528   19.9284 C   0  0  0  0  0  0  0  0  0  0  0  0
    7.3000   -0.7419   21.0397 C   0  0  0  0  0  0  0  0  0  0  0  0
    6.6100   -1.5160   21.8513 N   0  0  0  0  0  0  0  0  0  0  0  0
    7.2553   -2.1343   22.8238 N   0  0  0  0  0  0  0  0  0  0  0  0
    6.5178   -3.0569   23.5186 N   0  0  0  0  0  0  0  0  0  0  0  0
    5.5376   -2.7705   23.5237 H   0  0  0  0  0  0  0  0  0  0  0  0
    6.6648   -3.4905   25.2008 S   0  0  0  0  0  0  0  0  0  0  0  0
    5.2681   -3.7149   25.5097 O   0  0  0  0  0  0  0  0  0  0  0  0
    7.6713   -4.5237   25.3193 O   0  0  0  0  0  0  0  0  0  0  0  0
    7.3007   -2.0569   26.0912 C   0  0  0  0  0  0  0  0  0  0  0  0
    6.7484   -0.7993   25.8150 C   0  0  0  0  0  0  0  0  0  0  0  0
    6.0442   -0.6774   24.9885 H   0  0  0  0  0  0  0  0  0  0  0  0
    7.1854    0.3072   26.5460 C   0  0  0  0  0  0  0  0  0  0  0  0
    6.7305    1.2772   26.3797 H   0  0  0  0  0  0  0  0  0  0  0  0
    8.2225    0.1821   27.4733 C   0  0  0  0  0  0  0  0  0  0  0  0
    8.5513    1.0489   28.0369 H   0  0  0  0  0  0  0  0  0  0  0  0
    8.8402   -1.0587   27.6579 C   0  0  0  0  0  0  0  0  0  0  0  0
    9.6892   -1.1376   28.3305 H   0  0  0  0  0  0  0  0  0  0  0  0
    8.3759   -2.1932   26.9888 C   0  0  0  0  0  0  0  0  0  0  0  0
    8.8555   -3.1559   27.1697 H   0  0  0  0  0  0  0  0  0  0  0  0
    8.6017   -2.1069   23.0119 C   0  0  0  0  0  0  0  0  0  0  0  0
    8.8894   -2.7809   23.8088 H   0  0  0  0  0  0  0  0  0  0  0  0
    9.3834   -1.3278   22.2681 C   0  0  0  0  0  0  0  0  0  0  0  0
   10.4487   -1.2475   22.3874 H   0  0  0  0  0  0  0  0  0  0  0  0
    8.7805   -0.5565   21.2108 C   0  0  0  0  0  0  0  0  0  0  0  0
    9.4721    0.1792   20.5063 O   0  0  0  0  0  0  0  0  0  0  0  0
    5.3506    0.6111   20.1450 C   0  0  0  0  0  0  0  0  0  0  0  0
    4.8896    0.6055   21.1327 H   0  0  0  0  0  0  0  0  0  0  0  0
    4.7690    1.3056   19.0829 C   0  0  0  0  0  0  0  0  0  0  0  0
    3.8589    1.8776   19.2108 H   0  0  0  0  0  0  0  0  0  0  0  0
  1  2  1  0
  2  3  2  0
  3  4  1  0
  4  5  1  0
  4  6  2  0
  6  7  1  0
  7  8  2  0
  8  9  1  0
  9 10  1  0
 10 11  1  0
 10 12  1  0
 12 13  2  0
 12 14  2  0
 12 15  1  0
 15 16  2  0
 16 17  1  0
 16 18  1  0
 18 19  1  0
 18 20  2  0
 20 21  1  0
 20 22  1  0
 22 23  1  0
 22 24  2  0
 24 25  1  0
  9 26  1  0
 26 27  1  0
 26 28  2  0
 28 29  1  0
 28 30  1  0
 30 31  2  0
  6 32  1  0
 32 33  1  0
 32 34  2  0
 34 35  1  0
 34  2  1  0
 30  7  1  0
 24 15  1  0
M  END
>  <cnnaffinity>  (1) 
-5.18429

>  <filename>  (1) 
O=c1ccn(NS(=O)(=O)c2ccccc2)nc1-c1cccnc1

$$$$
