
     RDKit          3D

 37 41  0  0  0  0  0  0  0  0999 V2000
    4.9042    1.8143   16.9861 H   0  0  0  0  0  0  0  0  0  0  0  0
    5.3911    1.3081   17.8200 C   0  0  0  0  0  0  0  0  0  0  0  0
    6.5530    0.6929   17.5482 N   0  0  0  0  0  0  0  0  0  0  0  0
    7.1742    0.0954   18.5709 C   0  0  0  0  0  0  0  0  0  0  0  0
    8.1169   -0.3881   18.3194 H   0  0  0  0  0  0  0  0  0  0  0  0
    6.7099    0.0678   19.9102 C   0  0  0  0  0  0  0  0  0  0  0  0
    7.5056   -0.6213   20.9515 C   0  0  0  0  0  0  0  0  0  0  0  0
    8.4470   -1.6323   20.8983 C   0  0  0  0  0  0  0  0  0  0  0  0
    8.9264   -2.0541   20.0286 H   0  0  0  0  0  0  0  0  0  0  0  0
    8.8371   -2.0882   22.1295 N   0  0  0  0  0  0  0  0  0  0  0  0
    8.1666   -1.3305   22.9542 C   0  0  0  0  0  0  0  0  0  0  0  0
    8.1345   -1.0743   24.6728 S   0  0  0  0  0  0  0  0  0  0  0  0
    7.0876    0.3009   24.3448 C   0  0  0  0  0  0  0  0  0  0  0  0
    6.4413    1.1268   25.4375 C   0  0  0  0  0  0  0  0  0  0  0  0
    7.0398    1.1263   26.3507 H   0  0  0  0  0  0  0  0  0  0  0  0
    6.3767    2.1621   25.0921 H   0  0  0  0  0  0  0  0  0  0  0  0
    5.0827    0.6747   25.7796 N   0  0  0  0  0  0  0  0  0  0  0  0
    4.8325   -0.4749   26.5356 C   0  0  0  0  0  0  0  0  0  0  0  0
    5.6591   -1.0456   27.2065 O   0  0  0  0  0  0  0  0  0  0  0  0
    3.4044   -0.8266   26.3169 C   0  0  0  0  0  0  0  0  0  0  0  0
    2.6605   -1.9164   26.7669 C   0  0  0  0  0  0  0  0  0  0  0  0
    3.1000   -2.6610   27.4284 H   0  0  0  0  0  0  0  0  0  0  0  0
    1.3399   -2.0202   26.3195 C   0  0  0  0  0  0  0  0  0  0  0  0
    0.7425   -2.8721   26.6269 H   0  0  0  0  0  0  0  0  0  0  0  0
    0.7739   -1.0398   25.4758 C   0  0  0  0  0  0  0  0  0  0  0  0
   -0.2487   -1.1592   25.1285 H   0  0  0  0  0  0  0  0  0  0  0  0
    1.5213    0.0660   25.0634 C   0  0  0  0  0  0  0  0  0  0  0  0
    1.0979    0.8497   24.4382 H   0  0  0  0  0  0  0  0  0  0  0  0
    2.8540    0.1295   25.4715 C   0  0  0  0  0  0  0  0  0  0  0  0
    3.9384    1.0716   25.0822 C   0  0  0  0  0  0  0  0  0  0  0  0
    3.8943    1.9885   24.2979 O   0  0  0  0  0  0  0  0  0  0  0  0
    6.7900    0.5247   23.1059 N   0  0  0  0  0  0  0  0  0  0  0  0
    7.3610   -0.4247   22.3260 N   0  0  0  0  0  0  0  0  0  0  0  0
    5.4674    0.6902   20.1590 C   0  0  0  0  0  0  0  0  0  0  0  0
    5.0434    0.7021   21.1662 H   0  0  0  0  0  0  0  0  0  0  0  0
    4.8125    1.3147   19.0934 C   0  0  0  0  0  0  0  0  0  0  0  0
    3.8671    1.8221   19.2393 H   0  0  0  0  0  0  0  0  0  0  0  0
  1  2  1  0
  2  3  2  0
  3  4  1  0
  4  5  1  0
  4  6  2  0
  6  7  1  0
  7  8  2  0
  8  9  1  0
  8 10  1  0
 10 11  2  0
 11 12  1  0
 12 13  1  0
 13 14  1  0
 14 15  1  0
 14 16  1  0
 14 17  1  0
 17 18  1  0
 18 19  2  0
 18 20  1  0
 20 21  2  0
 21 22  1  0
 21 23  1  0
 23 24  1  0
 23 25  2  0
 25 26  1  0
 25 27  1  0
 27 28  1  0
 27 29  2  0
 29 30  1  0
 30 31  2  0
 13 32  2  0
 32 33  1  0
  6 34  1  0
 34 35  1  0
 34 36  2  0
 36 37  1  0
 36  2  1  0
 33  7  1  0
 33 11  1  0
 30 17  1  0
 29 20  1  0
M  END
>  <cnnaffinity>  (1) 
-5.44608

>  <filename>  (1) 
O=C1c2ccccc2C(=O)N1Cc1nn2c(-c3cccnc3)cnc2s1

$$$$
