
     RDKit          3D

 42 45  0  0  0  0  0  0  0  0999 V2000
    7.1656   -6.2324   30.0047 H   0  0  0  0  0  0  0  0  0  0  0  0
    6.6612   -6.3251   29.0416 C   0  0  0  0  0  0  0  0  0  0  0  0
    6.8904   -5.3273   28.1878 N   0  0  0  0  0  0  0  0  0  0  0  0
    6.2719   -5.3769   26.9992 C   0  0  0  0  0  0  0  0  0  0  0  0
    6.5028   -4.3268   26.1375 N   0  0  0  0  0  0  0  0  0  0  0  0
    5.5799   -4.0337   25.0407 C   0  0  0  0  0  0  0  0  0  0  0  0
    4.5396   -4.0529   25.4018 H   0  0  0  0  0  0  0  0  0  0  0  0
    5.6824   -4.7994   24.2570 H   0  0  0  0  0  0  0  0  0  0  0  0
    5.7979   -2.6529   24.3853 C   0  0  0  0  0  0  0  0  0  0  0  0
    5.1886   -2.6612   23.4830 H   0  0  0  0  0  0  0  0  0  0  0  0
    5.4512   -1.8611   25.0706 H   0  0  0  0  0  0  0  0  0  0  0  0
    7.1953   -2.4105   24.0149 N   0  0  0  0  0  0  0  0  0  0  0  0
    7.5020   -1.7596   22.8664 C   0  0  0  0  0  0  0  0  0  0  0  0
    6.6164   -1.2609   22.0382 N   0  0  0  0  0  0  0  0  0  0  0  0
    7.3335   -0.7090   20.9884 N   0  0  0  0  0  0  0  0  0  0  0  0
    6.6627   -0.0267   19.9310 C   0  0  0  0  0  0  0  0  0  0  0  0
    7.1832    0.0244   18.6167 C   0  0  0  0  0  0  0  0  0  0  0  0
    8.1407   -0.4351   18.3910 H   0  0  0  0  0  0  0  0  0  0  0  0
    6.5678    0.6410   17.6018 N   0  0  0  0  0  0  0  0  0  0  0  0
    5.4132    1.2721   17.8636 C   0  0  0  0  0  0  0  0  0  0  0  0
    4.9524    1.7810   17.0226 H   0  0  0  0  0  0  0  0  0  0  0  0
    4.8227    1.2931   19.1338 C   0  0  0  0  0  0  0  0  0  0  0  0
    3.8899    1.8287   19.2772 H   0  0  0  0  0  0  0  0  0  0  0  0
    5.4494    0.6263   20.1905 C   0  0  0  0  0  0  0  0  0  0  0  0
    5.0432    0.5832   21.2016 H   0  0  0  0  0  0  0  0  0  0  0  0
    8.7095   -0.8359   21.1475 C   0  0  0  0  0  0  0  0  0  0  0  0
    9.5762   -0.4294   20.4040 O   0  0  0  0  0  0  0  0  0  0  0  0
    8.9067   -1.5928   22.4232 C   0  0  0  0  0  0  0  0  0  0  0  0
    9.4096   -2.5400   22.2100 H   0  0  0  0  0  0  0  0  0  0  0  0
    9.5428   -1.0321   23.1131 H   0  0  0  0  0  0  0  0  0  0  0  0
    8.2051   -2.8805   24.9901 C   0  0  0  0  0  0  0  0  0  0  0  0
    8.7914   -3.7049   24.5549 H   0  0  0  0  0  0  0  0  0  0  0  0
    8.8976   -2.0672   25.2484 H   0  0  0  0  0  0  0  0  0  0  0  0
    7.5954   -3.3677   26.3343 C   0  0  0  0  0  0  0  0  0  0  0  0
    8.3836   -3.8404   26.9255 H   0  0  0  0  0  0  0  0  0  0  0  0
    7.2259   -2.5002   26.9062 H   0  0  0  0  0  0  0  0  0  0  0  0
    5.4265   -6.4533   26.6253 C   0  0  0  0  0  0  0  0  0  0  0  0
    4.9850   -6.4314   25.6408 H   0  0  0  0  0  0  0  0  0  0  0  0
    5.2185   -7.4944   27.5238 C   0  0  0  0  0  0  0  0  0  0  0  0
    4.5752   -8.3380   27.2648 H   0  0  0  0  0  0  0  0  0  0  0  0
    5.8528   -7.4263   28.7712 C   0  0  0  0  0  0  0  0  0  0  0  0
    5.7482   -8.2007   29.5215 H   0  0  0  0  0  0  0  0  0  0  0  0
  1  2  1  0
  2  3  2  0
  3  4  1  0
  4  5  1  0
  5  6  1  0
  6  7  1  0
  6  8  1  0
  6  9  1  0
  9 10  1  0
  9 11  1  0
  9 12  1  0
 12 13  1  0
 13 14  2  0
 14 15  1  0
 15 16  1  0
 16 17  2  0
 17 18  1  0
 17 19  1  0
 19 20  2  0
 20 21  1  0
 20 22  1  0
 22 23  1  0
 22 24  2  0
 24 25  1  0
 15 26  1  0
 26 27  2  0
 26 28  1  0
 28 29  1  0
 28 30  1  0
 12 31  1  0
 31 32  1  0
 31 33  1  0
 31 34  1  0
 34 35  1  0
 34 36  1  0
  4 37  2  0
 37 38  1  0
 37 39  1  0
 39 40  1  0
 39 41  2  0
 41 42  1  0
 41  2  1  0
 34  5  1  0
 28 13  1  0
 24 16  1  0
M  END
>  <cnnaffinity>  (1) 
-5.1651

>  <filename>  (1) 
O=C1CC(N2CCN(c3ccccn3)CC2)=NN1c1cccnc1

$$$$
