
     RDKit          3D

 33 35  0  0  0  0  0  0  0  0999 V2000
    4.9998    1.8080   16.9376 H   0  0  0  0  0  0  0  0  0  0  0  0
    5.4468    1.3088   17.7939 C   0  0  0  0  0  0  0  0  0  0  0  0
    6.6072    0.6718   17.5673 N   0  0  0  0  0  0  0  0  0  0  0  0
    7.1731    0.0462   18.6087 C   0  0  0  0  0  0  0  0  0  0  0  0
    8.1126   -0.4669   18.4026 H   0  0  0  0  0  0  0  0  0  0  0  0
    6.6280   -0.0083   19.9071 C   0  0  0  0  0  0  0  0  0  0  0  0
    7.3086   -0.7741   20.9959 C   0  0  0  0  0  0  0  0  0  0  0  0
    8.7353   -0.7060   21.1763 C   0  0  0  0  0  0  0  0  0  0  0  0
    9.3134   -0.0744   20.5025 H   0  0  0  0  0  0  0  0  0  0  0  0
    9.3846   -1.3979   22.1883 C   0  0  0  0  0  0  0  0  0  0  0  0
   10.7634   -1.3843   22.3630 N   0  0  0  0  0  0  0  0  0  0  0  0
   11.0920   -1.8268   23.2128 H   0  0  0  0  0  0  0  0  0  0  0  0
   11.6749   -0.4559   21.7248 C   0  0  0  0  0  0  0  0  0  0  0  0
   11.7324   -0.7104   20.6585 H   0  0  0  0  0  0  0  0  0  0  0  0
   11.2795    0.5713   21.7740 H   0  0  0  0  0  0  0  0  0  0  0  0
   13.0483   -0.5025   22.3685 C   0  0  0  0  0  0  0  0  0  0  0  0
   13.5372   -1.4712   22.2630 H   0  0  0  0  0  0  0  0  0  0  0  0
   13.3526    0.2744   23.6297 C   0  0  0  0  0  0  0  0  0  0  0  0
   14.1211   -0.0606   24.3082 H   0  0  0  0  0  0  0  0  0  0  0  0
   12.5526    0.8182   24.1220 H   0  0  0  0  0  0  0  0  0  0  0  0
   13.8834    0.7460   22.3247 C   0  0  0  0  0  0  0  0  0  0  0  0
   13.4104    1.6453   21.9465 H   0  0  0  0  0  0  0  0  0  0  0  0
   14.9564    0.6652   22.1682 H   0  0  0  0  0  0  0  0  0  0  0  0
    8.5453   -2.2428   23.1338 C   0  0  0  0  0  0  0  0  0  0  0  0
    8.9060   -2.8962   24.1031 O   0  0  0  0  0  0  0  0  0  0  0  0
    7.1858   -2.2639   22.8384 N   0  0  0  0  0  0  0  0  0  0  0  0
    6.7031   -2.8207   23.5281 H   0  0  0  0  0  0  0  0  0  0  0  0
    6.5741   -1.5680   21.8306 C   0  0  0  0  0  0  0  0  0  0  0  0
    5.5021   -1.6953   21.7160 H   0  0  0  0  0  0  0  0  0  0  0  0
    5.4117    0.6699   20.1135 C   0  0  0  0  0  0  0  0  0  0  0  0
    4.9568    0.6993   21.1047 H   0  0  0  0  0  0  0  0  0  0  0  0
    4.8168    1.3405   19.0431 C   0  0  0  0  0  0  0  0  0  0  0  0
    3.8841    1.8828   19.1626 H   0  0  0  0  0  0  0  0  0  0  0  0
  1  2  1  0
  2  3  2  0
  3  4  1  0
  4  5  1  0
  4  6  2  0
  6  7  1  0
  7  8  1  0
  8  9  1  0
  8 10  2  0
 10 11  1  0
 11 12  1  0
 11 13  1  0
 13 14  1  0
 13 15  1  0
 13 16  1  0
 16 17  1  0
 16 18  1  0
 18 19  1  0
 18 20  1  0
 18 21  1  0
 21 22  1  0
 21 23  1  0
 10 24  1  0
 24 25  2  0
 24 26  1  0
 26 27  1  0
 26 28  1  0
 28 29  1  0
  6 30  1  0
 30 31  1  0
 30 32  2  0
 32 33  1  0
 32  2  1  0
 28  7  2  0
 21 16  1  0
M  END
>  <cnnaffinity>  (1) 
-4.82056

>  <filename>  (1) 
O=c1[nH]cc(-c2cccnc2)cc1NCC1CC1

$$$$
