
     RDKit          3D

 37 39  0  0  0  0  0  0  0  0999 V2000
    8.0404    3.0932   25.2137 O   0  0  0  0  0  0  0  0  0  0  0  0
    8.4324    2.6848   24.1418 C   0  0  0  0  0  0  0  0  0  0  0  0
    7.8492    1.5272   23.3998 C   0  0  0  0  0  0  0  0  0  0  0  0
    8.4804    1.5824   22.0241 C   0  0  0  0  0  0  0  0  0  0  0  0
    8.7261    0.2402   21.5551 N   0  0  0  0  0  0  0  0  0  0  0  0
    7.5184   -0.8062   21.1998 S   0  0  0  0  0  0  0  0  0  0  0  0
    8.3012   -1.8532   20.5757 O   0  0  0  0  0  0  0  0  0  0  0  0
    6.6424   -0.9986   22.3340 O   0  0  0  0  0  0  0  0  0  0  0  0
    6.6341    0.0391   19.9745 C   0  0  0  0  0  0  0  0  0  0  0  0
    5.4102    0.6714   20.2065 C   0  0  0  0  0  0  0  0  0  0  0  0
    4.8169    1.3075   19.1205 C   0  0  0  0  0  0  0  0  0  0  0  0
    5.4635    1.2753   17.8793 C   0  0  0  0  0  0  0  0  0  0  0  0
    6.6309    0.6427   17.6818 N   0  0  0  0  0  0  0  0  0  0  0  0
    7.2091    0.0307   18.7130 C   0  0  0  0  0  0  0  0  0  0  0  0
    8.1418   -0.4887   18.4962 H   0  0  0  0  0  0  0  0  0  0  0  0
    5.0094    1.7539   17.0089 H   0  0  0  0  0  0  0  0  0  0  0  0
    3.8770    1.8368   19.2313 H   0  0  0  0  0  0  0  0  0  0  0  0
    4.9448    0.6694   21.1945 H   0  0  0  0  0  0  0  0  0  0  0  0
    9.4114   -0.0408   20.8714 H   0  0  0  0  0  0  0  0  0  0  0  0
    9.7747    2.3783   22.2372 C   0  0  0  0  0  0  0  0  0  0  0  0
    9.4799    3.2068   23.4046 N   0  0  0  0  0  0  0  0  0  0  0  0
   10.2398    4.3338   23.7910 C   0  0  0  0  0  0  0  0  0  0  0  0
   11.6054    4.3951   23.4707 C   0  0  0  0  0  0  0  0  0  0  0  0
   12.3648    5.5084   23.8391 C   0  0  0  0  0  0  0  0  0  0  0  0
   11.7640    6.5752   24.5148 C   0  0  0  0  0  0  0  0  0  0  0  0
   10.3985    6.5234   24.8196 C   0  0  0  0  0  0  0  0  0  0  0  0
    9.6348    5.4071   24.4697 C   0  0  0  0  0  0  0  0  0  0  0  0
    8.5831    5.3485   24.7243 H   0  0  0  0  0  0  0  0  0  0  0  0
    9.9200    7.3522   25.3394 H   0  0  0  0  0  0  0  0  0  0  0  0
   12.3519    7.4429   24.7996 H   0  0  0  0  0  0  0  0  0  0  0  0
   13.4248    5.5429   23.5959 H   0  0  0  0  0  0  0  0  0  0  0  0
   12.0581    3.5663   22.9357 H   0  0  0  0  0  0  0  0  0  0  0  0
   10.6020    1.6850   22.4340 H   0  0  0  0  0  0  0  0  0  0  0  0
   10.0236    2.9760   21.3583 H   0  0  0  0  0  0  0  0  0  0  0  0
    7.8365    2.1592   21.3448 H   0  0  0  0  0  0  0  0  0  0  0  0
    8.1287    0.6103   23.9188 H   0  0  0  0  0  0  0  0  0  0  0  0
    6.7624    1.5850   23.3998 H   0  0  0  0  0  0  0  0  0  0  0  0
  1  2  2  0
  2  3  1  0
  3  4  1  0
  4  5  1  0
  5  6  1  0
  6  7  2  0
  6  8  2  0
  6  9  1  0
  9 10  2  0
 10 11  1  0
 11 12  2  0
 12 13  1  0
 13 14  2  0
 14 15  1  0
 12 16  1  0
 11 17  1  0
 10 18  1  0
  5 19  1  0
  4 20  1  0
 20 21  1  0
 21 22  1  0
 22 23  2  0
 23 24  1  0
 24 25  2  0
 25 26  1  0
 26 27  2  0
 27 28  1  0
 26 29  1  0
 25 30  1  0
 24 31  1  0
 23 32  1  0
 20 33  1  0
 20 34  1  0
  4 35  1  0
  3 36  1  0
  3 37  1  0
 21  2  1  0
 27 22  1  0
 14  9  1  0
M  END
>  <cnnaffinity>  (1) 
-5.05955

>  <filename>  (1) 
O=C1CC(NS(=O)(=O)c2cccnc2)CN1c1ccccc1

$$$$
