
     RDKit          3D

 34 36  0  0  0  0  0  0  0  0999 V2000
    4.9412    1.7971   16.9328 H   0  0  0  0  0  0  0  0  0  0  0  0
    5.4046    1.3174   17.7949 C   0  0  0  0  0  0  0  0  0  0  0  0
    6.5633    0.6779   17.5659 N   0  0  0  0  0  0  0  0  0  0  0  0
    7.1422    0.0780   18.6152 C   0  0  0  0  0  0  0  0  0  0  0  0
    8.0708   -0.4524   18.4030 H   0  0  0  0  0  0  0  0  0  0  0  0
    6.6418    0.0928   19.9329 C   0  0  0  0  0  0  0  0  0  0  0  0
    7.3765   -0.6010   21.0473 C   0  0  0  0  0  0  0  0  0  0  0  0
    7.5724   -2.0210   20.9426 C   0  0  0  0  0  0  0  0  0  0  0  0
    7.0985   -2.5217   20.0973 H   0  0  0  0  0  0  0  0  0  0  0  0
    8.2757   -2.7158   21.8765 C   0  0  0  0  0  0  0  0  0  0  0  0
    8.4333   -3.7840   21.8370 H   0  0  0  0  0  0  0  0  0  0  0  0
    8.8260   -2.0449   23.0495 C   0  0  0  0  0  0  0  0  0  0  0  0
    9.4365   -2.5845   23.9523 O   0  0  0  0  0  0  0  0  0  0  0  0
    8.5822   -0.6797   23.0980 N   0  0  0  0  0  0  0  0  0  0  0  0
    8.7923   -0.3006   24.0111 H   0  0  0  0  0  0  0  0  0  0  0  0
    7.8497    0.0464   22.1787 C   0  0  0  0  0  0  0  0  0  0  0  0
    7.6238    1.4871   22.4783 C   0  0  0  0  0  0  0  0  0  0  0  0
    8.2025    2.4478   21.6212 C   0  0  0  0  0  0  0  0  0  0  0  0
    8.8223    2.1216   20.7909 H   0  0  0  0  0  0  0  0  0  0  0  0
    7.9876    3.8061   21.8392 C   0  0  0  0  0  0  0  0  0  0  0  0
    8.4320    4.5529   21.1964 H   0  0  0  0  0  0  0  0  0  0  0  0
    7.1638    4.2279   22.8762 C   0  0  0  0  0  0  0  0  0  0  0  0
    6.9693    5.2813   23.0303 H   0  0  0  0  0  0  0  0  0  0  0  0
    6.5848    3.2965   23.7298 C   0  0  0  0  0  0  0  0  0  0  0  0
    5.9373    3.6308   24.5339 H   0  0  0  0  0  0  0  0  0  0  0  0
    6.8222    1.9287   23.5625 C   0  0  0  0  0  0  0  0  0  0  0  0
    6.2296    1.0049   24.6246 C   0  0  0  0  0  0  0  0  0  0  0  0
    6.0911   -0.2740   24.2483 F   0  0  0  0  0  0  0  0  0  0  0  0
    6.9995    1.0060   25.7337 F   0  0  0  0  0  0  0  0  0  0  0  0
    5.0034    1.4144   25.0140 F   0  0  0  0  0  0  0  0  0  0  0  0
    5.4280    0.7660   20.1385 C   0  0  0  0  0  0  0  0  0  0  0  0
    4.9940    0.8063   21.1396 H   0  0  0  0  0  0  0  0  0  0  0  0
    4.7905    1.3710   19.0506 C   0  0  0  0  0  0  0  0  0  0  0  0
    3.8397    1.8858   19.1615 H   0  0  0  0  0  0  0  0  0  0  0  0
  1  2  1  0
  2  3  2  0
  3  4  1  0
  4  5  1  0
  4  6  2  0
  6  7  1  0
  7  8  1  0
  8  9  1  0
  8 10  2  0
 10 11  1  0
 10 12  1  0
 12 13  2  0
 12 14  1  0
 14 15  1  0
 14 16  1  0
 16 17  1  0
 17 18  2  0
 18 19  1  0
 18 20  1  0
 20 21  1  0
 20 22  2  0
 22 23  1  0
 22 24  1  0
 24 25  1  0
 24 26  2  0
 26 27  1  0
 27 28  1  0
 27 29  1  0
 27 30  1  0
  6 31  1  0
 31 32  1  0
 31 33  2  0
 33 34  1  0
 33  2  1  0
 16  7  2  0
 26 17  1  0
M  END
>  <cnnaffinity>  (1) 
-4.86682

>  <filename>  (1) 
O=c1ccc(-c2cccnc2)c(-c2ccccc2C(F)(F)F)[nH]1

$$$$
