
     RDKit          3D

 41 44  0  0  0  0  0  0  0  0999 V2000
    4.9692   -6.0616   24.9346 O   0  0  0  0  0  0  0  0  0  0  0  0
    5.7158   -5.1090   24.7913 C   0  0  0  0  0  0  0  0  0  0  0  0
    5.2369   -3.9575   24.1948 N   0  0  0  0  0  0  0  0  0  0  0  0
    5.8657   -2.7605   24.0306 N   0  0  0  0  0  0  0  0  0  0  0  0
    7.1129   -2.6503   24.3715 C   0  0  0  0  0  0  0  0  0  0  0  0
    7.6993   -1.2674   24.2104 C   0  0  0  0  0  0  0  0  0  0  0  0
    7.7931   -0.9193   22.7622 C   0  0  0  0  0  0  0  0  0  0  0  0
    6.9018   -0.2115   22.1109 N   0  0  0  0  0  0  0  0  0  0  0  0
    7.2975   -0.3106   20.8211 C   0  0  0  0  0  0  0  0  0  0  0  0
    6.5708    0.2850   19.7100 C   0  0  0  0  0  0  0  0  0  0  0  0
    5.3394    0.9400   19.8589 C   0  0  0  0  0  0  0  0  0  0  0  0
    4.7568    1.4875   18.7192 C   0  0  0  0  0  0  0  0  0  0  0  0
    5.4225    1.3626   17.4934 C   0  0  0  0  0  0  0  0  0  0  0  0
    6.5885    0.7182   17.3417 N   0  0  0  0  0  0  0  0  0  0  0  0
    7.1438    0.1908   18.4340 C   0  0  0  0  0  0  0  0  0  0  0  0
    8.0925   -0.3281   18.3013 H   0  0  0  0  0  0  0  0  0  0  0  0
    4.9999    1.7875   16.5882 H   0  0  0  0  0  0  0  0  0  0  0  0
    3.8165    2.0255   18.7628 H   0  0  0  0  0  0  0  0  0  0  0  0
    4.8674    1.0255   20.8411 H   0  0  0  0  0  0  0  0  0  0  0  0
    8.3936   -1.0238   20.6444 N   0  0  0  0  0  0  0  0  0  0  0  0
    8.7147   -1.4156   21.8947 N   0  0  0  0  0  0  0  0  0  0  0  0
    9.9111   -2.2215   22.0648 C   0  0  0  0  0  0  0  0  0  0  0  0
   11.1398   -1.4768   22.5493 C   0  0  0  0  0  0  0  0  0  0  0  0
   10.8893   -0.8895   23.7620 F   0  0  0  0  0  0  0  0  0  0  0  0
   11.5240   -0.4978   21.6983 F   0  0  0  0  0  0  0  0  0  0  0  0
   11.9855   -2.1575   22.6800 H   0  0  0  0  0  0  0  0  0  0  0  0
   10.1280   -2.6639   21.0914 H   0  0  0  0  0  0  0  0  0  0  0  0
    9.7069   -3.0261   22.7725 H   0  0  0  0  0  0  0  0  0  0  0  0
    7.0110   -0.5416   24.6506 H   0  0  0  0  0  0  0  0  0  0  0  0
    8.6716   -1.1689   24.6967 H   0  0  0  0  0  0  0  0  0  0  0  0
    7.8828   -3.8073   24.8821 C   0  0  0  0  0  0  0  0  0  0  0  0
    9.2773   -3.8053   25.1300 C   0  0  0  0  0  0  0  0  0  0  0  0
    9.9123   -4.9273   25.6539 C   0  0  0  0  0  0  0  0  0  0  0  0
    9.1741   -6.0810   25.9623 C   0  0  0  0  0  0  0  0  0  0  0  0
    7.8064   -6.0974   25.7557 C   0  0  0  0  0  0  0  0  0  0  0  0
    7.1614   -5.0043   25.1582 C   0  0  0  0  0  0  0  0  0  0  0  0
    7.1949   -6.9425   26.0583 H   0  0  0  0  0  0  0  0  0  0  0  0
    9.6836   -6.9646   26.3357 H   0  0  0  0  0  0  0  0  0  0  0  0
   10.9826   -4.9327   25.8340 H   0  0  0  0  0  0  0  0  0  0  0  0
    9.8753   -2.9279   24.8916 H   0  0  0  0  0  0  0  0  0  0  0  0
    4.2710   -4.0389   23.9064 H   0  0  0  0  0  0  0  0  0  0  0  0
  1  2  2  0
  2  3  1  0
  3  4  1  0
  4  5  2  0
  5  6  1  0
  6  7  1  0
  7  8  2  0
  8  9  1  0
  9 10  1  0
 10 11  2  0
 11 12  1  0
 12 13  2  0
 13 14  1  0
 14 15  2  0
 15 16  1  0
 13 17  1  0
 12 18  1  0
 11 19  1  0
  9 20  2  0
 20 21  1  0
 21 22  1  0
 22 23  1  0
 23 24  1  0
 23 25  1  0
 23 26  1  0
 22 27  1  0
 22 28  1  0
  6 29  1  0
  6 30  1  0
  5 31  1  0
 31 32  2  0
 32 33  1  0
 33 34  2  0
 34 35  1  0
 35 36  2  0
 35 37  1  0
 34 38  1  0
 33 39  1  0
 32 40  1  0
  3 41  1  0
 36  2  1  0
 21  7  1  0
 36 31  1  0
 15 10  1  0
M  END
>  <cnnaffinity>  (1) 
-6.24339

>  <filename>  (1) 
O=c1[nH]nc(Cc2nc(-c3cccnc3)nn2CC(F)F)c2ccccc12

$$$$
