
     RDKit          3D

 30 32  0  0  0  0  0  0  0  0999 V2000
   10.2743    1.5251   23.3205 H   0  0  0  0  0  0  0  0  0  0  0  0
    9.3779    1.3087   23.0401 O   0  0  0  0  0  0  0  0  0  0  0  0
    8.5121    1.8315   23.9430 C   0  0  0  0  0  0  0  0  0  0  0  0
    8.9420    2.8303   24.8280 C   0  0  0  0  0  0  0  0  0  0  0  0
    9.9610    3.1937   24.7467 H   0  0  0  0  0  0  0  0  0  0  0  0
    8.0502    3.3596   25.7611 C   0  0  0  0  0  0  0  0  0  0  0  0
    8.5614    4.6115   26.8516 Cl  0  0  0  0  0  0  0  0  0  0  0  0
    6.7381    2.8946   25.8390 C   0  0  0  0  0  0  0  0  0  0  0  0
    6.0678    3.3311   26.5690 H   0  0  0  0  0  0  0  0  0  0  0  0
    6.3177    1.8994   24.9494 C   0  0  0  0  0  0  0  0  0  0  0  0
    5.3133    1.4923   24.9918 H   0  0  0  0  0  0  0  0  0  0  0  0
    7.1704    1.3998   23.9735 C   0  0  0  0  0  0  0  0  0  0  0  0
    6.5575    0.5327   23.0487 O   0  0  0  0  0  0  0  0  0  0  0  0
    7.3570   -0.3809   22.4277 N   0  0  0  0  0  0  0  0  0  0  0  0
    7.5416   -0.5500   21.0440 C   0  0  0  0  0  0  0  0  0  0  0  0
    6.7709    0.1178   19.9850 C   0  0  0  0  0  0  0  0  0  0  0  0
    7.2542    0.0970   18.6609 C   0  0  0  0  0  0  0  0  0  0  0  0
    8.2026   -0.3844   18.4292 H   0  0  0  0  0  0  0  0  0  0  0  0
    6.6295    0.6541   17.6186 N   0  0  0  0  0  0  0  0  0  0  0  0
    5.4639    1.2749   17.8544 C   0  0  0  0  0  0  0  0  0  0  0  0
    4.9855    1.7420   16.9934 H   0  0  0  0  0  0  0  0  0  0  0  0
    4.8803    1.3367   19.1237 C   0  0  0  0  0  0  0  0  0  0  0  0
    3.9386    1.8563   19.2505 H   0  0  0  0  0  0  0  0  0  0  0  0
    5.5366    0.7549   20.2084 C   0  0  0  0  0  0  0  0  0  0  0  0
    5.1146    0.7929   21.2080 H   0  0  0  0  0  0  0  0  0  0  0  0
    8.4563   -1.5307   20.9679 C   0  0  0  0  0  0  0  0  0  0  0  0
    8.9567   -1.9822   20.1239 H   0  0  0  0  0  0  0  0  0  0  0  0
    8.7744   -2.0062   22.2137 O   0  0  0  0  0  0  0  0  0  0  0  0
    8.0708   -1.3048   23.1606 C   0  0  0  0  0  0  0  0  0  0  0  0
    8.0911   -1.4954   24.3450 O   0  0  0  0  0  0  0  0  0  0  0  0
  1  2  1  0
  2  3  1  0
  3  4  2  0
  4  5  1  0
  4  6  1  0
  6  7  1  0
  6  8  2  0
  8  9  1  0
  8 10  1  0
 10 11  1  0
 10 12  2  0
 12 13  1  0
 13 14  1  0
 14 15  1  0
 15 16  1  0
 16 17  2  0
 17 18  1  0
 17 19  1  0
 19 20  2  0
 20 21  1  0
 20 22  1  0
 22 23  1  0
 22 24  2  0
 24 25  1  0
 15 26  2  0
 26 27  1  0
 26 28  1  0
 28 29  1  0
 29 30  2  0
 12  3  1  0
 29 14  1  0
 24 16  1  0
M  END
>  <cnnaffinity>  (1) 
-5.0684

>  <filename>  (1) 
O=c1occ(-c2cccnc2)n1Oc1ccc(Cl)cc1O

$$$$
