
     RDKit          3D

 43 46  0  0  0  0  0  0  0  0999 V2000
    5.8924    2.9123   22.4107 O   0  0  0  0  0  0  0  0  0  0  0  0
    6.0539    3.5709   23.4124 C   0  0  0  0  0  0  0  0  0  0  0  0
    5.3244    4.8099   23.8102 C   0  0  0  0  0  0  0  0  0  0  0  0
    4.3180    5.4759   23.0921 C   0  0  0  0  0  0  0  0  0  0  0  0
    3.7264    6.6065   23.6544 C   0  0  0  0  0  0  0  0  0  0  0  0
    4.1301    7.0801   24.9170 C   0  0  0  0  0  0  0  0  0  0  0  0
    5.1345    6.4301   25.6395 C   0  0  0  0  0  0  0  0  0  0  0  0
    5.7167    5.2922   25.0562 C   0  0  0  0  0  0  0  0  0  0  0  0
    6.9860    4.2431   25.7018 S   0  0  0  0  0  0  0  0  0  0  0  0
    6.5174    3.5294   26.8754 O   0  0  0  0  0  0  0  0  0  0  0  0
    8.2584    4.9390   25.7428 O   0  0  0  0  0  0  0  0  0  0  0  0
    6.9544    3.2182   24.3838 N   0  0  0  0  0  0  0  0  0  0  0  0
    7.7810    2.0130   24.3108 C   0  0  0  0  0  0  0  0  0  0  0  0
    8.7477    2.0699   23.1441 C   0  0  0  0  0  0  0  0  0  0  0  0
    9.7619    3.0339   23.1661 C   0  0  0  0  0  0  0  0  0  0  0  0
   10.6855    3.1075   22.1225 C   0  0  0  0  0  0  0  0  0  0  0  0
   11.9299    4.3226   22.1657 Cl  0  0  0  0  0  0  0  0  0  0  0  0
   10.6013    2.2493   21.0288 C   0  0  0  0  0  0  0  0  0  0  0  0
    9.5926    1.2799   20.9899 C   0  0  0  0  0  0  0  0  0  0  0  0
    8.6774    1.1760   22.0474 C   0  0  0  0  0  0  0  0  0  0  0  0
    7.7260    0.2007   22.1265 O   0  0  0  0  0  0  0  0  0  0  0  0
    7.4259   -0.6583   21.0276 C   0  0  0  0  0  0  0  0  0  0  0  0
    6.6770    0.0275   19.9048 C   0  0  0  0  0  0  0  0  0  0  0  0
    5.4541    0.6720   20.1457 C   0  0  0  0  0  0  0  0  0  0  0  0
    4.8030    1.3125   19.0885 C   0  0  0  0  0  0  0  0  0  0  0  0
    5.3980    1.2898   17.8243 C   0  0  0  0  0  0  0  0  0  0  0  0
    6.5563    0.6661   17.5686 N   0  0  0  0  0  0  0  0  0  0  0  0
    7.1742    0.0651   18.5943 C   0  0  0  0  0  0  0  0  0  0  0  0
    8.1177   -0.4248   18.3433 H   0  0  0  0  0  0  0  0  0  0  0  0
    4.9286    1.7986   16.9828 H   0  0  0  0  0  0  0  0  0  0  0  0
    3.8669    1.8450   19.2334 H   0  0  0  0  0  0  0  0  0  0  0  0
    5.0216    0.6780   21.1458 H   0  0  0  0  0  0  0  0  0  0  0  0
    8.3330   -1.1554   20.6575 H   0  0  0  0  0  0  0  0  0  0  0  0
    6.7987   -1.4234   21.4974 H   0  0  0  0  0  0  0  0  0  0  0  0
    9.4928    0.6058   20.1465 H   0  0  0  0  0  0  0  0  0  0  0  0
   11.3080    2.3665   20.2129 H   0  0  0  0  0  0  0  0  0  0  0  0
    9.8413    3.7340   23.9972 H   0  0  0  0  0  0  0  0  0  0  0  0
    7.1179    1.1456   24.2081 H   0  0  0  0  0  0  0  0  0  0  0  0
    8.3457    1.9245   25.2510 H   0  0  0  0  0  0  0  0  0  0  0  0
    5.4244    6.8211   26.6146 H   0  0  0  0  0  0  0  0  0  0  0  0
    3.6577    7.9680   25.3357 H   0  0  0  0  0  0  0  0  0  0  0  0
    2.9433    7.1286   23.1093 H   0  0  0  0  0  0  0  0  0  0  0  0
    4.0138    5.1048   22.1158 H   0  0  0  0  0  0  0  0  0  0  0  0
  1  2  2  0
  2  3  1  0
  3  4  2  0
  4  5  1  0
  5  6  2  0
  6  7  1  0
  7  8  2  0
  8  9  1  0
  9 10  2  0
  9 11  2  0
  9 12  1  0
 12 13  1  0
 13 14  1  0
 14 15  2  0
 15 16  1  0
 16 17  1  0
 16 18  2  0
 18 19  1  0
 19 20  2  0
 20 21  1  0
 21 22  1  0
 22 23  1  0
 23 24  2  0
 24 25  1  0
 25 26  2  0
 26 27  1  0
 27 28  2  0
 28 29  1  0
 26 30  1  0
 25 31  1  0
 24 32  1  0
 22 33  1  0
 22 34  1  0
 19 35  1  0
 18 36  1  0
 15 37  1  0
 13 38  1  0
 13 39  1  0
  7 40  1  0
  6 41  1  0
  5 42  1  0
  4 43  1  0
 12  2  1  0
 20 14  1  0
 28 23  1  0
  8  3  1  0
M  END
>  <cnnaffinity>  (1) 
-5.80887

>  <filename>  (1) 
O=C1c2ccccc2S(=O)(=O)N1Cc1cc(Cl)ccc1OCc1cccnc1

$$$$
