
     RDKit          3D

 38 40  0  0  0  0  0  0  0  0999 V2000
    5.1277    1.9470   16.9301 H   0  0  0  0  0  0  0  0  0  0  0  0
    5.4931    1.4295   17.8176 C   0  0  0  0  0  0  0  0  0  0  0  0
    6.6178    0.7143   17.6629 N   0  0  0  0  0  0  0  0  0  0  0  0
    7.0923    0.0515   18.7249 C   0  0  0  0  0  0  0  0  0  0  0  0
    7.9977   -0.5324   18.5704 H   0  0  0  0  0  0  0  0  0  0  0  0
    6.4578    0.0487   19.9788 C   0  0  0  0  0  0  0  0  0  0  0  0
    6.9816   -0.7258   21.0614 N   0  0  0  0  0  0  0  0  0  0  0  0
    7.4317    0.0146   22.1408 N   0  0  0  0  0  0  0  0  0  0  0  0
    8.0497   -0.6183   23.1044 C   0  0  0  0  0  0  0  0  0  0  0  0
    8.4084    0.1709   24.1731 N   0  0  0  0  0  0  0  0  0  0  0  0
    8.2919    1.1276   23.8548 H   0  0  0  0  0  0  0  0  0  0  0  0
    9.5473   -0.0958   25.0292 C   0  0  0  0  0  0  0  0  0  0  0  0
    9.5581    0.6833   25.8050 H   0  0  0  0  0  0  0  0  0  0  0  0
    9.3804   -1.0369   25.5700 H   0  0  0  0  0  0  0  0  0  0  0  0
   10.9065   -0.1401   24.3035 C   0  0  0  0  0  0  0  0  0  0  0  0
   11.6729   -0.3968   25.0455 H   0  0  0  0  0  0  0  0  0  0  0  0
   10.8910   -0.9504   23.5602 H   0  0  0  0  0  0  0  0  0  0  0  0
   11.2347    1.1656   23.6106 C   0  0  0  0  0  0  0  0  0  0  0  0
   11.0995    1.2762   22.2196 C   0  0  0  0  0  0  0  0  0  0  0  0
   10.8087    0.3907   21.6559 H   0  0  0  0  0  0  0  0  0  0  0  0
   11.3065    2.4966   21.5692 C   0  0  0  0  0  0  0  0  0  0  0  0
   11.2158    2.5680   20.4877 H   0  0  0  0  0  0  0  0  0  0  0  0
   11.6315    3.6353   22.3135 C   0  0  0  0  0  0  0  0  0  0  0  0
   11.7610    4.5942   21.8119 H   0  0  0  0  0  0  0  0  0  0  0  0
   11.7722    3.5417   23.7032 C   0  0  0  0  0  0  0  0  0  0  0  0
   12.0234    4.4237   24.2865 H   0  0  0  0  0  0  0  0  0  0  0  0
   11.5727    2.3134   24.3454 C   0  0  0  0  0  0  0  0  0  0  0  0
   11.6411    2.2271   25.4260 H   0  0  0  0  0  0  0  0  0  0  0  0
    8.2728   -2.0463   23.0798 C   0  0  0  0  0  0  0  0  0  0  0  0
    8.8253   -2.5032   23.8992 H   0  0  0  0  0  0  0  0  0  0  0  0
    7.7495   -2.7765   22.0565 C   0  0  0  0  0  0  0  0  0  0  0  0
    7.8412   -3.8517   21.9644 H   0  0  0  0  0  0  0  0  0  0  0  0
    6.9511   -2.1599   20.9962 C   0  0  0  0  0  0  0  0  0  0  0  0
    6.3359   -2.7686   20.1361 O   0  0  0  0  0  0  0  0  0  0  0  0
    5.3038    0.8210   20.1425 C   0  0  0  0  0  0  0  0  0  0  0  0
    4.8141    0.8617   21.1130 H   0  0  0  0  0  0  0  0  0  0  0  0
    4.8133    1.5272   19.0354 C   0  0  0  0  0  0  0  0  0  0  0  0
    3.9389    2.1646   19.1031 H   0  0  0  0  0  0  0  0  0  0  0  0
  1  2  1  0
  2  3  2  0
  3  4  1  0
  4  5  1  0
  4  6  2  0
  6  7  1  0
  7  8  1  0
  8  9  2  0
  9 10  1  0
 10 11  1  0
 10 12  1  0
 12 13  1  0
 12 14  1  0
 12 15  1  0
 15 16  1  0
 15 17  1  0
 15 18  1  0
 18 19  2  0
 19 20  1  0
 19 21  1  0
 21 22  1  0
 21 23  2  0
 23 24  1  0
 23 25  1  0
 25 26  1  0
 25 27  2  0
 27 28  1  0
  9 29  1  0
 29 30  1  0
 29 31  2  0
 31 32  1  0
 31 33  1  0
 33 34  2  0
  6 35  1  0
 35 36  1  0
 35 37  2  0
 37 38  1  0
 37  2  1  0
 33  7  1  0
 27 18  1  0
M  END
>  <cnnaffinity>  (1) 
-5.28484

>  <filename>  (1) 
O=c1ccc(NCCc2ccccc2)nn1-c1cccnc1

$$$$
