
     RDKit          3D

 31 33  0  0  0  0  0  0  0  0999 V2000
    5.7214   -1.7197   22.0293 H   0  0  0  0  0  0  0  0  0  0  0  0
    6.7530   -1.4279   21.9028 C   0  0  0  0  0  0  0  0  0  0  0  0
    7.2515   -0.7714   20.8468 C   0  0  0  0  0  0  0  0  0  0  0  0
    6.5276   -0.0743   19.7691 C   0  0  0  0  0  0  0  0  0  0  0  0
    7.0738    0.0298   18.4737 C   0  0  0  0  0  0  0  0  0  0  0  0
    8.0305   -0.4485   18.2772 H   0  0  0  0  0  0  0  0  0  0  0  0
    6.5087    0.7038   17.4670 N   0  0  0  0  0  0  0  0  0  0  0  0
    5.3608    1.3477   17.7270 C   0  0  0  0  0  0  0  0  0  0  0  0
    4.9304    1.9025   16.8949 H   0  0  0  0  0  0  0  0  0  0  0  0
    4.7314    1.3240   18.9763 C   0  0  0  0  0  0  0  0  0  0  0  0
    3.8216    1.8947   19.1235 H   0  0  0  0  0  0  0  0  0  0  0  0
    5.3134    0.5898   20.0098 C   0  0  0  0  0  0  0  0  0  0  0  0
    4.8718    0.5693   21.0063 H   0  0  0  0  0  0  0  0  0  0  0  0
    8.7468   -0.7509   20.9797 C   0  0  0  0  0  0  0  0  0  0  0  0
    9.5875   -0.4906   20.1506 O   0  0  0  0  0  0  0  0  0  0  0  0
    8.9859   -1.0906   22.3302 N   0  0  0  0  0  0  0  0  0  0  0  0
   10.1865   -1.7673   22.5963 O   0  0  0  0  0  0  0  0  0  0  0  0
   11.3683   -1.0394   22.5009 C   0  0  0  0  0  0  0  0  0  0  0  0
   11.5084    0.3369   22.6874 C   0  0  0  0  0  0  0  0  0  0  0  0
   10.6259    0.9271   22.9177 H   0  0  0  0  0  0  0  0  0  0  0  0
   12.7959    0.8973   22.5763 C   0  0  0  0  0  0  0  0  0  0  0  0
   12.9262    1.9667   22.7023 H   0  0  0  0  0  0  0  0  0  0  0  0
   13.9169    0.1066   22.2932 C   0  0  0  0  0  0  0  0  0  0  0  0
   14.9070    0.5578   22.1975 H   0  0  0  0  0  0  0  0  0  0  0  0
   13.7514   -1.2715   22.1245 C   0  0  0  0  0  0  0  0  0  0  0  0
   14.6003   -1.9070   21.8933 H   0  0  0  0  0  0  0  0  0  0  0  0
   12.4809   -1.8377   22.2422 C   0  0  0  0  0  0  0  0  0  0  0  0
   12.3020   -2.8971   22.1810 H   0  0  0  0  0  0  0  0  0  0  0  0
    7.8379   -1.8484   22.8408 C   0  0  0  0  0  0  0  0  0  0  0  0
    7.6213   -1.6308   23.8924 H   0  0  0  0  0  0  0  0  0  0  0  0
    8.0449   -2.9246   22.7511 H   0  0  0  0  0  0  0  0  0  0  0  0
  1  2  1  0
  2  3  2  0
  3  4  1  0
  4  5  2  0
  5  6  1  0
  5  7  1  0
  7  8  2  0
  8  9  1  0
  8 10  1  0
 10 11  1  0
 10 12  2  0
 12 13  1  0
  3 14  1  0
 14 15  2  0
 14 16  1  0
 16 17  1  0
 17 18  1  0
 18 19  2  0
 19 20  1  0
 19 21  1  0
 21 22  1  0
 21 23  2  0
 23 24  1  0
 23 25  1  0
 25 26  1  0
 25 27  2  0
 27 28  1  0
 16 29  1  0
 29 30  1  0
 29 31  1  0
 29  2  1  0
 12  4  1  0
 27 18  1  0
M  END
>  <cnnaffinity>  (1) 
-5.32968

>  <filename>  (1) 
O=C1C(c2cccnc2)=CCN1Oc1ccccc1

$$$$
