
     RDKit          3D

 37 39  0  0  0  0  0  0  0  0999 V2000
    4.9235    1.8222   16.9943 H   0  0  0  0  0  0  0  0  0  0  0  0
    5.3841    1.2931   17.8251 C   0  0  0  0  0  0  0  0  0  0  0  0
    6.5382    0.6600   17.5539 N   0  0  0  0  0  0  0  0  0  0  0  0
    7.1587    0.0400   18.5657 C   0  0  0  0  0  0  0  0  0  0  0  0
    8.1126   -0.4354   18.3431 H   0  0  0  0  0  0  0  0  0  0  0  0
    6.6485   -0.0116   19.8799 C   0  0  0  0  0  0  0  0  0  0  0  0
    7.3512   -0.6888   20.9445 N   0  0  0  0  0  0  0  0  0  0  0  0
    6.7133   -1.7394   21.5787 C   0  0  0  0  0  0  0  0  0  0  0  0
    5.7068   -1.9806   21.2543 H   0  0  0  0  0  0  0  0  0  0  0  0
    7.3211   -2.4645   22.5589 C   0  0  0  0  0  0  0  0  0  0  0  0
    6.7098   -3.6004   23.1627 N   0  0  0  0  0  0  0  0  0  0  0  0
    6.6406   -3.5988   24.1704 H   0  0  0  0  0  0  0  0  0  0  0  0
    5.9411   -4.5487   22.5732 C   0  0  0  0  0  0  0  0  0  0  0  0
    5.8046   -4.8622   20.9510 S   0  0  0  0  0  0  0  0  0  0  0  0
    5.2005   -5.3019   23.4494 N   0  0  0  0  0  0  0  0  0  0  0  0
    4.6360   -5.9264   22.8884 H   0  0  0  0  0  0  0  0  0  0  0  0
    5.5716   -5.7966   24.7332 C   0  0  0  0  0  0  0  0  0  0  0  0
    6.9065   -5.9216   25.1553 C   0  0  0  0  0  0  0  0  0  0  0  0
    7.7108   -5.7193   24.4563 H   0  0  0  0  0  0  0  0  0  0  0  0
    7.1852   -6.4358   26.4282 C   0  0  0  0  0  0  0  0  0  0  0  0
    8.2175   -6.5525   26.7506 H   0  0  0  0  0  0  0  0  0  0  0  0
    6.1484   -6.8229   27.2832 C   0  0  0  0  0  0  0  0  0  0  0  0
    6.3710   -7.2163   28.2724 H   0  0  0  0  0  0  0  0  0  0  0  0
    4.8239   -6.7290   26.8442 C   0  0  0  0  0  0  0  0  0  0  0  0
    4.0141   -7.0591   27.4891 H   0  0  0  0  0  0  0  0  0  0  0  0
    4.5391   -6.2361   25.5689 C   0  0  0  0  0  0  0  0  0  0  0  0
    3.5235   -6.2060   25.1878 H   0  0  0  0  0  0  0  0  0  0  0  0
    8.6249   -2.0859   23.0009 C   0  0  0  0  0  0  0  0  0  0  0  0
    9.0883   -2.6714   23.7959 H   0  0  0  0  0  0  0  0  0  0  0  0
    9.2737   -1.0504   22.4014 C   0  0  0  0  0  0  0  0  0  0  0  0
   10.2720   -0.7279   22.6642 H   0  0  0  0  0  0  0  0  0  0  0  0
    8.6849   -0.2787   21.3140 C   0  0  0  0  0  0  0  0  0  0  0  0
    9.2588    0.6327   20.7375 O   0  0  0  0  0  0  0  0  0  0  0  0
    5.4302    0.6295   20.1371 C   0  0  0  0  0  0  0  0  0  0  0  0
    5.0236    0.6090   21.1479 H   0  0  0  0  0  0  0  0  0  0  0  0
    4.7896    1.3076   19.0919 C   0  0  0  0  0  0  0  0  0  0  0  0
    3.8633    1.8554   19.2500 H   0  0  0  0  0  0  0  0  0  0  0  0
  1  2  1  0
  2  3  2  0
  3  4  1  0
  4  5  1  0
  4  6  2  0
  6  7  1  0
  7  8  1  0
  8  9  1  0
  8 10  2  0
 10 11  1  0
 11 12  1  0
 11 13  1  0
 13 14  2  0
 13 15  1  0
 15 16  1  0
 15 17  1  0
 17 18  2  0
 18 19  1  0
 18 20  1  0
 20 21  1  0
 20 22  2  0
 22 23  1  0
 22 24  1  0
 24 25  1  0
 24 26  2  0
 26 27  1  0
 10 28  1  0
 28 29  1  0
 28 30  2  0
 30 31  1  0
 30 32  1  0
 32 33  2  0
  6 34  1  0
 34 35  1  0
 34 36  2  0
 36 37  1  0
 36  2  1  0
 32  7  1  0
 26 17  1  0
M  END
>  <cnnaffinity>  (1) 
-5.66348

>  <filename>  (1) 
O=c1ccc(NC(=S)Nc2ccccc2)cn1-c1cccnc1

$$$$
