
     RDKit          3D

 36 39  0  0  0  0  0  0  0  0999 V2000
    5.1454    1.6654   16.9186 H   0  0  0  0  0  0  0  0  0  0  0  0
    5.6085    1.2256   17.7979 C   0  0  0  0  0  0  0  0  0  0  0  0
    6.8035    0.6436   17.6055 N   0  0  0  0  0  0  0  0  0  0  0  0
    7.4047    0.1190   18.6798 C   0  0  0  0  0  0  0  0  0  0  0  0
    8.3849   -0.3307   18.5318 H   0  0  0  0  0  0  0  0  0  0  0  0
    6.8284    0.1084   19.9563 C   0  0  0  0  0  0  0  0  0  0  0  0
    7.5391   -0.5616   21.0618 C   0  0  0  0  0  0  0  0  0  0  0  0
    8.8355   -0.3588   21.1514 N   0  0  0  0  0  0  0  0  0  0  0  0
    9.5272   -1.0248   22.1265 N   0  0  0  0  0  0  0  0  0  0  0  0
   10.9410   -0.8247   22.1491 C   0  0  0  0  0  0  0  0  0  0  0  0
   11.7394   -1.9480   22.0648 C   0  0  0  0  0  0  0  0  0  0  0  0
   11.2721   -2.9229   22.0342 H   0  0  0  0  0  0  0  0  0  0  0  0
   13.1492   -1.8338   22.0546 C   0  0  0  0  0  0  0  0  0  0  0  0
   13.7650   -2.7249   21.9437 H   0  0  0  0  0  0  0  0  0  0  0  0
   13.7350   -0.6133   22.2732 C   0  0  0  0  0  0  0  0  0  0  0  0
   14.8140   -0.5237   22.3340 H   0  0  0  0  0  0  0  0  0  0  0  0
   12.9403    0.5587   22.4602 C   0  0  0  0  0  0  0  0  0  0  0  0
   13.5507    1.7998   22.8050 C   0  0  0  0  0  0  0  0  0  0  0  0
   14.6309    1.8189   22.9229 H   0  0  0  0  0  0  0  0  0  0  0  0
   12.7997    2.9403   22.9359 C   0  0  0  0  0  0  0  0  0  0  0  0
   13.2777    3.8707   23.2283 H   0  0  0  0  0  0  0  0  0  0  0  0
   11.4024    2.9113   22.6779 C   0  0  0  0  0  0  0  0  0  0  0  0
   10.8370    3.8415   22.7208 H   0  0  0  0  0  0  0  0  0  0  0  0
   10.7732    1.7294   22.3435 C   0  0  0  0  0  0  0  0  0  0  0  0
    9.7191    1.7342   22.0779 H   0  0  0  0  0  0  0  0  0  0  0  0
   11.5122    0.4940   22.2885 C   0  0  0  0  0  0  0  0  0  0  0  0
    8.9459   -1.9739   23.0317 C   0  0  0  0  0  0  0  0  0  0  0  0
    9.6113   -2.6068   23.8381 O   0  0  0  0  0  0  0  0  0  0  0  0
    7.5081   -2.1006   22.9041 C   0  0  0  0  0  0  0  0  0  0  0  0
    7.0593   -2.7779   23.6179 H   0  0  0  0  0  0  0  0  0  0  0  0
    6.8253   -1.4181   21.9550 C   0  0  0  0  0  0  0  0  0  0  0  0
    5.7501   -1.5280   21.8229 H   0  0  0  0  0  0  0  0  0  0  0  0
    5.5775    0.7080   20.1425 C   0  0  0  0  0  0  0  0  0  0  0  0
    5.1152    0.7366   21.1321 H   0  0  0  0  0  0  0  0  0  0  0  0
    4.9608    1.2897   19.0386 C   0  0  0  0  0  0  0  0  0  0  0  0
    4.0019    1.7885   19.1318 H   0  0  0  0  0  0  0  0  0  0  0  0
  1  2  1  0
  2  3  2  0
  3  4  1  0
  4  5  1  0
  4  6  2  0
  6  7  1  0
  7  8  2  0
  8  9  1  0
  9 10  1  0
 10 11  2  0
 11 12  1  0
 11 13  1  0
 13 14  1  0
 13 15  2  0
 15 16  1  0
 15 17  1  0
 17 18  2  0
 18 19  1  0
 18 20  1  0
 20 21  1  0
 20 22  2  0
 22 23  1  0
 22 24  1  0
 24 25  1  0
 24 26  2  0
  9 27  1  0
 27 28  2  0
 27 29  1  0
 29 30  1  0
 29 31  2  0
 31 32  1  0
  6 33  1  0
 33 34  1  0
 33 35  2  0
 35 36  1  0
 35  2  1  0
 31  7  1  0
 26 10  1  0
 26 17  1  0
M  END
>  <cnnaffinity>  (1) 
-6.08188

>  <filename>  (1) 
O=c1ccc(-c2cccnc2)nn1-c1cccc2ccccc12

$$$$
