
     RDKit          3D

 34 36  0  0  0  0  0  0  0  0999 V2000
    4.9396    1.8089   16.9558 H   0  0  0  0  0  0  0  0  0  0  0  0
    5.3906    1.2958   17.8003 C   0  0  0  0  0  0  0  0  0  0  0  0
    6.5522    0.6686   17.5559 N   0  0  0  0  0  0  0  0  0  0  0  0
    7.1502    0.0577   18.5827 C   0  0  0  0  0  0  0  0  0  0  0  0
    8.1051   -0.4200   18.3609 H   0  0  0  0  0  0  0  0  0  0  0  0
    6.6375    0.0455   19.8939 C   0  0  0  0  0  0  0  0  0  0  0  0
    7.3815   -0.5764   20.9979 C   0  0  0  0  0  0  0  0  0  0  0  0
    7.5023   -0.0419   22.2543 C   0  0  0  0  0  0  0  0  0  0  0  0
    7.0528    0.9190   22.4735 H   0  0  0  0  0  0  0  0  0  0  0  0
    8.2030   -0.7411   23.2617 C   0  0  0  0  0  0  0  0  0  0  0  0
    8.3115   -0.2835   24.2432 H   0  0  0  0  0  0  0  0  0  0  0  0
    8.7451   -1.9918   23.0240 C   0  0  0  0  0  0  0  0  0  0  0  0
    9.4837   -2.7605   24.0846 C   0  0  0  0  0  0  0  0  0  0  0  0
   10.0688   -2.0910   24.7255 H   0  0  0  0  0  0  0  0  0  0  0  0
   10.2132   -3.4391   23.6259 H   0  0  0  0  0  0  0  0  0  0  0  0
    8.5271   -3.5838   24.9330 C   0  0  0  0  0  0  0  0  0  0  0  0
    8.0519   -4.8021   24.4179 C   0  0  0  0  0  0  0  0  0  0  0  0
    8.4765   -5.1526   23.4820 H   0  0  0  0  0  0  0  0  0  0  0  0
    7.0383   -5.5161   25.0529 C   0  0  0  0  0  0  0  0  0  0  0  0
    6.5695   -6.3469   24.5528 H   0  0  0  0  0  0  0  0  0  0  0  0
    6.5638   -5.0982   26.2970 C   0  0  0  0  0  0  0  0  0  0  0  0
    5.8394   -5.6990   26.8474 H   0  0  0  0  0  0  0  0  0  0  0  0
    7.0107   -3.8909   26.8324 C   0  0  0  0  0  0  0  0  0  0  0  0
    6.5934   -3.5039   27.7534 H   0  0  0  0  0  0  0  0  0  0  0  0
    7.9643   -3.1375   26.1399 C   0  0  0  0  0  0  0  0  0  0  0  0
    8.3821   -1.5827   26.8139 Cl  0  0  0  0  0  0  0  0  0  0  0  0
    8.4671   -2.6360   21.7374 C   0  0  0  0  0  0  0  0  0  0  0  0
    8.6134   -3.8117   21.4430 O   0  0  0  0  0  0  0  0  0  0  0  0
    7.9943   -1.7812   20.7488 N   0  0  0  0  0  0  0  0  0  0  0  0
    7.7580   -2.3220   19.9326 H   0  0  0  0  0  0  0  0  0  0  0  0
    5.4077    0.6892   20.1241 C   0  0  0  0  0  0  0  0  0  0  0  0
    4.9585    0.6740   21.1192 H   0  0  0  0  0  0  0  0  0  0  0  0
    4.7760    1.3212   19.0559 C   0  0  0  0  0  0  0  0  0  0  0  0
    3.8450    1.8596   19.1928 H   0  0  0  0  0  0  0  0  0  0  0  0
  1  2  1  0
  2  3  2  0
  3  4  1  0
  4  5  1  0
  4  6  2  0
  6  7  1  0
  7  8  2  0
  8  9  1  0
  8 10  1  0
 10 11  1  0
 10 12  2  0
 12 13  1  0
 13 14  1  0
 13 15  1  0
 13 16  1  0
 16 17  2  0
 17 18  1  0
 17 19  1  0
 19 20  1  0
 19 21  2  0
 21 22  1  0
 21 23  1  0
 23 24  1  0
 23 25  2  0
 25 26  1  0
 12 27  1  0
 27 28  2  0
 27 29  1  0
 29 30  1  0
  6 31  1  0
 31 32  1  0
 31 33  2  0
 33 34  1  0
 33  2  1  0
 29  7  1  0
 25 16  1  0
M  END
>  <cnnaffinity>  (1) 
-5.70176

>  <filename>  (1) 
O=c1[nH]c(-c2cccnc2)ccc1Cc1ccccc1Cl

$$$$
