
     RDKit          3D

 32 34  0  0  0  0  0  0  0  0999 V2000
    4.9855    1.8494   16.9057 H   0  0  0  0  0  0  0  0  0  0  0  0
    5.4276    1.3336   17.7559 C   0  0  0  0  0  0  0  0  0  0  0  0
    6.5812    0.6892   17.5124 N   0  0  0  0  0  0  0  0  0  0  0  0
    7.1562    0.0619   18.5443 C   0  0  0  0  0  0  0  0  0  0  0  0
    8.0996   -0.4421   18.3310 H   0  0  0  0  0  0  0  0  0  0  0  0
    6.6156    0.0021   19.8460 C   0  0  0  0  0  0  0  0  0  0  0  0
    7.3263   -0.7241   20.9278 C   0  0  0  0  0  0  0  0  0  0  0  0
    6.6619   -1.6119   21.8209 C   0  0  0  0  0  0  0  0  0  0  0  0
    5.5854   -1.7440   21.7230 H   0  0  0  0  0  0  0  0  0  0  0  0
    7.3777   -2.3033   22.7579 C   0  0  0  0  0  0  0  0  0  0  0  0
    6.9444   -2.9657   23.4893 H   0  0  0  0  0  0  0  0  0  0  0  0
    8.8228   -2.1951   22.8917 C   0  0  0  0  0  0  0  0  0  0  0  0
    9.4660   -2.8022   23.7286 O   0  0  0  0  0  0  0  0  0  0  0  0
    9.4300   -1.2901   21.9477 N   0  0  0  0  0  0  0  0  0  0  0  0
   10.7956   -0.9830   21.9121 N   0  0  0  0  0  0  0  0  0  0  0  0
   11.3853   -1.7278   21.5623 H   0  0  0  0  0  0  0  0  0  0  0  0
   11.3967   -0.2805   22.9515 C   0  0  0  0  0  0  0  0  0  0  0  0
   10.7207    0.1513   24.0923 C   0  0  0  0  0  0  0  0  0  0  0  0
    9.6597    0.0004   24.1934 H   0  0  0  0  0  0  0  0  0  0  0  0
   11.4666    0.7226   25.1185 C   0  0  0  0  0  0  0  0  0  0  0  0
   10.9745    1.0337   26.0387 H   0  0  0  0  0  0  0  0  0  0  0  0
   12.7849    0.9434   25.0517 N   0  0  0  0  0  0  0  0  0  0  0  0
   13.4049    0.5908   23.9212 C   0  0  0  0  0  0  0  0  0  0  0  0
   14.4696    0.8095   23.8677 H   0  0  0  0  0  0  0  0  0  0  0  0
   12.7642   -0.0127   22.8439 C   0  0  0  0  0  0  0  0  0  0  0  0
   13.2795   -0.2462   21.9221 H   0  0  0  0  0  0  0  0  0  0  0  0
    8.6738   -0.5610   21.0600 C   0  0  0  0  0  0  0  0  0  0  0  0
    9.2394    0.1745   20.5000 H   0  0  0  0  0  0  0  0  0  0  0  0
    5.4079    0.6747   20.0715 C   0  0  0  0  0  0  0  0  0  0  0  0
    4.9777    0.6862   21.0746 H   0  0  0  0  0  0  0  0  0  0  0  0
    4.8059    1.3548   19.0104 C   0  0  0  0  0  0  0  0  0  0  0  0
    3.8810    1.9072   19.1408 H   0  0  0  0  0  0  0  0  0  0  0  0
  1  2  1  0
  2  3  2  0
  3  4  1  0
  4  5  1  0
  4  6  2  0
  6  7  1  0
  7  8  1  0
  8  9  1  0
  8 10  2  0
 10 11  1  0
 10 12  1  0
 12 13  2  0
 12 14  1  0
 14 15  1  0
 15 16  1  0
 15 17  1  0
 17 18  2  0
 18 19  1  0
 18 20  1  0
 20 21  1  0
 20 22  2  0
 22 23  1  0
 23 24  1  0
 23 25  2  0
 25 26  1  0
 14 27  1  0
 27 28  1  0
  6 29  1  0
 29 30  1  0
 29 31  2  0
 31 32  1  0
 31  2  1  0
 27  7  2  0
 25 17  1  0
M  END
>  <cnnaffinity>  (1) 
-5.41271

>  <filename>  (1) 
O=c1ccc(-c2cccnc2)cn1Nc1ccncc1

$$$$
