
     RDKit          3D

 40 43  0  0  0  0  0  0  0  0999 V2000
   -1.0139   -3.5734   25.3155 O   0  0  0  0  0  0  0  0  0  0  0  0
    0.1690   -3.6001   25.0471 C   0  0  0  0  0  0  0  0  0  0  0  0
    1.1743   -2.5410   25.5073 C   0  0  0  0  0  0  0  0  0  0  0  0
    2.3969   -2.4661   24.7489 O   0  0  0  0  0  0  0  0  0  0  0  0
    2.9551   -3.6926   24.4285 C   0  0  0  0  0  0  0  0  0  0  0  0
    4.3486   -3.8482   24.2304 C   0  0  0  0  0  0  0  0  0  0  0  0
    5.2390   -2.7592   24.4074 N   0  0  0  0  0  0  0  0  0  0  0  0
    6.5936   -2.8202   24.5718 C   0  0  0  0  0  0  0  0  0  0  0  0
    7.2221   -3.8527   24.7006 O   0  0  0  0  0  0  0  0  0  0  0  0
    7.3388   -1.5120   24.5059 C   0  0  0  0  0  0  0  0  0  0  0  0
    7.7615   -1.4026   23.0801 C   0  0  0  0  0  0  0  0  0  0  0  0
    8.8506   -1.9594   22.4873 C   0  0  0  0  0  0  0  0  0  0  0  0
    8.8447   -1.5999   20.8055 S   0  0  0  0  0  0  0  0  0  0  0  0
    7.3264   -0.7548   21.0198 C   0  0  0  0  0  0  0  0  0  0  0  0
    6.6230   -0.0504   19.9443 C   0  0  0  0  0  0  0  0  0  0  0  0
    5.4097    0.6312   20.1657 C   0  0  0  0  0  0  0  0  0  0  0  0
    4.8256    1.3026   19.0939 C   0  0  0  0  0  0  0  0  0  0  0  0
    5.4673    1.2746   17.8506 C   0  0  0  0  0  0  0  0  0  0  0  0
    6.6215    0.6293   17.6304 N   0  0  0  0  0  0  0  0  0  0  0  0
    7.1804   -0.0108   18.6587 C   0  0  0  0  0  0  0  0  0  0  0  0
    8.1224   -0.5146   18.4413 H   0  0  0  0  0  0  0  0  0  0  0  0
    5.0365    1.7847   16.9917 H   0  0  0  0  0  0  0  0  0  0  0  0
    3.8989    1.8551   19.2055 H   0  0  0  0  0  0  0  0  0  0  0  0
    4.9525    0.6407   21.1565 H   0  0  0  0  0  0  0  0  0  0  0  0
    6.8893   -0.7789   22.2433 N   0  0  0  0  0  0  0  0  0  0  0  0
    9.6074   -2.5814   22.9424 H   0  0  0  0  0  0  0  0  0  0  0  0
    8.1991   -1.6012   25.1704 H   0  0  0  0  0  0  0  0  0  0  0  0
    6.7239   -0.6560   24.7846 H   0  0  0  0  0  0  0  0  0  0  0  0
    4.8426   -1.8394   24.2890 H   0  0  0  0  0  0  0  0  0  0  0  0
    4.8512   -5.0908   23.8315 C   0  0  0  0  0  0  0  0  0  0  0  0
    3.9963   -6.1862   23.7159 C   0  0  0  0  0  0  0  0  0  0  0  0
    4.7022   -7.7468   23.4596 Cl  0  0  0  0  0  0  0  0  0  0  0  0
    2.6189   -6.0573   23.8706 C   0  0  0  0  0  0  0  0  0  0  0  0
    2.1090   -4.8047   24.2034 C   0  0  0  0  0  0  0  0  0  0  0  0
    0.7281   -4.6339   24.3599 N   0  0  0  0  0  0  0  0  0  0  0  0
    0.0806   -5.3791   24.1562 H   0  0  0  0  0  0  0  0  0  0  0  0
    1.9582   -6.9135   23.7780 H   0  0  0  0  0  0  0  0  0  0  0  0
    5.9047   -5.1896   23.6230 H   0  0  0  0  0  0  0  0  0  0  0  0
    1.4143   -2.7652   26.5513 H   0  0  0  0  0  0  0  0  0  0  0  0
    0.6801   -1.5748   25.4471 H   0  0  0  0  0  0  0  0  0  0  0  0
  1  2  2  0
  2  3  1  0
  3  4  1  0
  4  5  1  0
  5  6  2  0
  6  7  1  0
  7  8  1  0
  8  9  2  0
  8 10  1  0
 10 11  1  0
 11 12  2  0
 12 13  1  0
 13 14  1  0
 14 15  1  0
 15 16  2  0
 16 17  1  0
 17 18  2  0
 18 19  1  0
 19 20  2  0
 20 21  1  0
 18 22  1  0
 17 23  1  0
 16 24  1  0
 14 25  2  0
 12 26  1  0
 10 27  1  0
 10 28  1  0
  7 29  1  0
  6 30  1  0
 30 31  2  0
 31 32  1  0
 31 33  1  0
 33 34  2  0
 34 35  1  0
 35 36  1  0
 33 37  1  0
 30 38  1  0
  3 39  1  0
  3 40  1  0
 35  2  1  0
 34  5  1  0
 25 11  1  0
 20 15  1  0
M  END
>  <cnnaffinity>  (1) 
-5.48723

>  <filename>  (1) 
O=C1COc2c(cc(Cl)cc2NC(=O)Cc2csc(-c3cccnc3)n2)N1

$$$$
