
     RDKit          3D

 23 24  0  0  0  0  0  0  0  0999 V2000
   11.7860   -3.3411   23.2433 H   0  0  0  0  0  0  0  0  0  0  0  0
   10.7910   -2.9505   23.0781 C   0  0  0  0  0  0  0  0  0  0  0  0
    9.6113   -3.1339   23.6797 C   0  0  0  0  0  0  0  0  0  0  0  0
    9.2977   -3.7297   24.5288 H   0  0  0  0  0  0  0  0  0  0  0  0
    8.6033   -2.3166   22.9708 C   0  0  0  0  0  0  0  0  0  0  0  0
    7.4218   -2.1934   23.2175 O   0  0  0  0  0  0  0  0  0  0  0  0
    9.2654   -1.6531   21.9441 N   0  0  0  0  0  0  0  0  0  0  0  0
    8.7573   -0.5599   21.2498 C   0  0  0  0  0  0  0  0  0  0  0  0
    9.6271    0.7678   20.8816 S   0  0  0  0  0  0  0  0  0  0  0  0
    7.4623   -0.7872   20.9311 N   0  0  0  0  0  0  0  0  0  0  0  0
    6.9761   -1.3087   21.6570 H   0  0  0  0  0  0  0  0  0  0  0  0
    6.7487   -0.1171   19.9117 C   0  0  0  0  0  0  0  0  0  0  0  0
    7.2298   -0.0391   18.5838 C   0  0  0  0  0  0  0  0  0  0  0  0
    8.1746   -0.5255   18.3368 H   0  0  0  0  0  0  0  0  0  0  0  0
    6.5944    0.6154   17.6079 N   0  0  0  0  0  0  0  0  0  0  0  0
    5.4481    1.2433   17.9198 C   0  0  0  0  0  0  0  0  0  0  0  0
    4.9711    1.7884   17.1075 H   0  0  0  0  0  0  0  0  0  0  0  0
    4.8867    1.2142   19.1992 C   0  0  0  0  0  0  0  0  0  0  0  0
    3.9683    1.7559   19.3884 H   0  0  0  0  0  0  0  0  0  0  0  0
    5.5438    0.5142   20.2188 C   0  0  0  0  0  0  0  0  0  0  0  0
    5.1708    0.4912   21.2438 H   0  0  0  0  0  0  0  0  0  0  0  0
   10.6204   -1.9995   21.9488 C   0  0  0  0  0  0  0  0  0  0  0  0
   11.4681   -1.6146   21.1973 O   0  0  0  0  0  0  0  0  0  0  0  0
  1  2  1  0
  2  3  2  0
  3  4  1  0
  3  5  1  0
  5  6  2  0
  5  7  1  0
  7  8  1  0
  8  9  2  0
  8 10  1  0
 10 11  1  0
 10 12  1  0
 12 13  2  0
 13 14  1  0
 13 15  1  0
 15 16  2  0
 16 17  1  0
 16 18  1  0
 18 19  1  0
 18 20  2  0
 20 21  1  0
  7 22  1  0
 22 23  2  0
 22  2  1  0
 20 12  1  0
M  END
>  <cnnaffinity>  (1) 
-4.97328

>  <filename>  (1) 
O=C1C=CC(=O)N1C(=S)Nc1cccnc1

$$$$
