
     RDKit          3D

 33 36  0  0  0  0  0  0  0  0999 V2000
    4.9192    1.8149   17.0008 H   0  0  0  0  0  0  0  0  0  0  0  0
    5.3951    1.3041   17.8368 C   0  0  0  0  0  0  0  0  0  0  0  0
    6.5541    0.6931   17.5494 N   0  0  0  0  0  0  0  0  0  0  0  0
    7.1765    0.0636   18.5524 C   0  0  0  0  0  0  0  0  0  0  0  0
    8.1231   -0.4256   18.3413 H   0  0  0  0  0  0  0  0  0  0  0  0
    6.6953    0.0041   19.8743 C   0  0  0  0  0  0  0  0  0  0  0  0
    7.4600   -0.7004   20.8795 N   0  0  0  0  0  0  0  0  0  0  0  0
    7.3978   -2.0833   21.0134 C   0  0  0  0  0  0  0  0  0  0  0  0
    6.6041   -2.8112   20.4662 O   0  0  0  0  0  0  0  0  0  0  0  0
    8.4688   -2.5946   21.9619 C   0  0  0  0  0  0  0  0  0  0  0  0
    7.9503   -3.2132   22.6958 H   0  0  0  0  0  0  0  0  0  0  0  0
    9.1816   -3.2217   21.4233 H   0  0  0  0  0  0  0  0  0  0  0  0
    9.3209   -1.1759   22.6963 S   0  0  0  0  0  0  0  0  0  0  0  0
    8.1824    0.0445   21.9168 C   0  0  2  0  0  0  0  0  0  0  0  0
    8.8072    0.7967   21.4249 H   0  0  0  0  0  0  0  0  0  0  0  0
    7.2621    0.7543   22.8880 C   0  0  0  0  0  0  0  0  0  0  0  0
    6.5719    0.1555   23.8868 C   0  0  0  0  0  0  0  0  0  0  0  0
    6.5976   -0.8965   24.1468 H   0  0  0  0  0  0  0  0  0  0  0  0
    5.5763    1.2389   24.7994 S   0  0  0  0  0  0  0  0  0  0  0  0
    6.0591    2.5863   23.8043 C   0  0  0  0  0  0  0  0  0  0  0  0
    5.6172    3.9200   23.8984 C   0  0  0  0  0  0  0  0  0  0  0  0
    4.9156    4.2196   24.6716 H   0  0  0  0  0  0  0  0  0  0  0  0
    6.0952    4.8394   22.9742 C   0  0  0  0  0  0  0  0  0  0  0  0
    5.7571    5.8690   23.0283 H   0  0  0  0  0  0  0  0  0  0  0  0
    7.0024    4.4587   21.9689 C   0  0  0  0  0  0  0  0  0  0  0  0
    7.3500    5.1985   21.2506 H   0  0  0  0  0  0  0  0  0  0  0  0
    7.4430    3.1454   21.8893 C   0  0  0  0  0  0  0  0  0  0  0  0
    8.1420    2.8460   21.1171 H   0  0  0  0  0  0  0  0  0  0  0  0
    6.9747    2.1834   22.8108 C   0  0  0  0  0  0  0  0  0  0  0  0
    5.4821    0.6346   20.1631 C   0  0  0  0  0  0  0  0  0  0  0  0
    5.1100    0.6089   21.1894 H   0  0  0  0  0  0  0  0  0  0  0  0
    4.8214    1.2981   19.1151 C   0  0  0  0  0  0  0  0  0  0  0  0
    3.8867    1.8224   19.2646 H   0  0  0  0  0  0  0  0  0  0  0  0
  1  2  1  0
  2  3  2  0
  3  4  1  0
  4  5  1  0
  4  6  2  0
  6  7  1  0
  7  8  1  0
  8  9  2  0
  8 10  1  0
 10 11  1  0
 10 12  1  0
 10 13  1  0
 13 14  1  0
 14 15  1  6
 14 16  1  0
 16 17  2  0
 17 18  1  0
 17 19  1  0
 19 20  1  0
 20 21  2  0
 21 22  1  0
 21 23  1  0
 23 24  1  0
 23 25  2  0
 25 26  1  0
 25 27  1  0
 27 28  1  0
 27 29  2  0
  6 30  1  0
 30 31  1  0
 30 32  2  0
 32 33  1  0
 32  2  1  0
 14  7  1  0
 29 16  1  0
 29 20  1  0
M  END
>  <cnnaffinity>  (1) 
-5.03449

>  <filename>  (1) 
O=C1CS[C@H](c2csc3ccccc23)N1c1cccnc1

$$$$
