
     RDKit          3D

 36 39  0  0  0  0  0  0  0  0999 V2000
    5.5955   -2.0290   20.1976 O   0  0  0  0  0  0  0  0  0  0  0  0
    6.5912   -1.5818   20.7005 C   0  0  0  0  0  0  0  0  0  0  0  0
    7.2977   -2.1167   21.9119 C   0  0  0  0  0  0  0  0  0  0  0  0
    6.7325   -2.8045   22.9342 C   0  0  0  0  0  0  0  0  0  0  0  0
    7.4448   -3.4650   24.0154 C   0  0  0  0  0  0  0  0  0  0  0  0
    6.8603   -3.8756   25.1040 N   0  0  0  0  0  0  0  0  0  0  0  0
    7.7768   -4.4795   25.9190 C   0  0  0  0  0  0  0  0  0  0  0  0
    9.0535   -4.5492   25.4466 C   0  0  0  0  0  0  0  0  0  0  0  0
   10.2096   -5.1477   26.2051 C   0  0  0  0  0  0  0  0  0  0  0  0
    9.8665   -5.1390   27.7036 C   0  0  0  0  0  0  0  0  0  0  0  0
    8.4899   -5.7922   27.9469 C   0  0  0  0  0  0  0  0  0  0  0  0
    7.3688   -4.9671   27.2789 C   0  0  0  0  0  0  0  0  0  0  0  0
    6.4419   -5.5380   27.1635 H   0  0  0  0  0  0  0  0  0  0  0  0
    7.1029   -4.0877   27.8805 H   0  0  0  0  0  0  0  0  0  0  0  0
    8.4924   -6.7932   27.4941 H   0  0  0  0  0  0  0  0  0  0  0  0
    8.2877   -5.9508   29.0113 H   0  0  0  0  0  0  0  0  0  0  0  0
   10.6658   -5.6084   28.2791 H   0  0  0  0  0  0  0  0  0  0  0  0
    9.8400   -4.0983   28.0292 H   0  0  0  0  0  0  0  0  0  0  0  0
   10.3857   -6.1900   25.8899 H   0  0  0  0  0  0  0  0  0  0  0  0
   11.1380   -4.6031   25.9924 H   0  0  0  0  0  0  0  0  0  0  0  0
    9.1634   -3.7800   23.9163 S   0  0  0  0  0  0  0  0  0  0  0  0
    5.6552   -2.8820   23.0253 H   0  0  0  0  0  0  0  0  0  0  0  0
    8.9603   -1.5367   21.8741 S   0  0  0  0  0  0  0  0  0  0  0  0
    8.4964   -0.1910   20.8372 C   0  0  0  0  0  0  0  0  0  0  0  0
    9.3373    1.1977   20.7679 S   0  0  0  0  0  0  0  0  0  0  0  0
    7.3195   -0.4788   20.1734 N   0  0  0  0  0  0  0  0  0  0  0  0
    6.7163    0.3970   19.1837 C   0  0  0  0  0  0  0  0  0  0  0  0
    5.5264    1.0536   19.5071 C   0  0  0  0  0  0  0  0  0  0  0  0
    4.8489    1.7525   18.5036 C   0  0  0  0  0  0  0  0  0  0  0  0
    5.4167    1.8028   17.2292 C   0  0  0  0  0  0  0  0  0  0  0  0
    6.5915    1.2279   16.9199 N   0  0  0  0  0  0  0  0  0  0  0  0
    7.2409    0.5657   17.8879 C   0  0  0  0  0  0  0  0  0  0  0  0
    8.2069    0.1377   17.6237 H   0  0  0  0  0  0  0  0  0  0  0  0
    4.9102    2.3330   16.4251 H   0  0  0  0  0  0  0  0  0  0  0  0
    3.9077    2.2548   18.7060 H   0  0  0  0  0  0  0  0  0  0  0  0
    5.1546    0.9928   20.5262 H   0  0  0  0  0  0  0  0  0  0  0  0
  1  2  2  0
  2  3  1  0
  3  4  2  3
  4  5  1  0
  5  6  2  0
  6  7  1  0
  7  8  2  0
  8  9  1  0
  9 10  1  0
 10 11  1  0
 11 12  1  0
 12 13  1  0
 12 14  1  0
 11 15  1  0
 11 16  1  0
 10 17  1  0
 10 18  1  0
  9 19  1  0
  9 20  1  0
  8 21  1  0
  4 22  1  0
  3 23  1  0
 23 24  1  0
 24 25  2  0
 24 26  1  0
 26 27  1  0
 27 28  2  0
 28 29  1  0
 29 30  2  0
 30 31  1  0
 31 32  2  0
 32 33  1  0
 30 34  1  0
 29 35  1  0
 28 36  1  0
 26  2  1  0
 32 27  1  0
 21  5  1  0
 12  7  1  0
M  END
>  <cnnaffinity>  (1) 
-5.72417

>  <filename>  (1) 
O=C1C(=Cc2nc3c(s2)CCCC3)SC(=S)N1c1cccnc1

$$$$
