
     RDKit          3D

 29 31  0  0  0  0  0  0  0  0999 V2000
    4.9717    1.8974   16.9111 H   0  0  0  0  0  0  0  0  0  0  0  0
    5.4743    1.3574   17.7113 C   0  0  0  0  0  0  0  0  0  0  0  0
    6.6609    0.7675   17.4741 N   0  0  0  0  0  0  0  0  0  0  0  0
    7.2709    0.1047   18.4787 C   0  0  0  0  0  0  0  0  0  0  0  0
    8.2247   -0.3636   18.2568 H   0  0  0  0  0  0  0  0  0  0  0  0
    6.7191   -0.0165   19.7630 C   0  0  0  0  0  0  0  0  0  0  0  0
    7.4066   -0.7505   20.8317 C   0  0  0  0  0  0  0  0  0  0  0  0
    6.8228   -1.2399   21.9657 C   0  0  0  0  0  0  0  0  0  0  0  0
    5.7691   -1.1655   22.1785 H   0  0  0  0  0  0  0  0  0  0  0  0
    7.7927   -1.8157   22.7964 N   0  0  0  0  0  0  0  0  0  0  0  0
    7.5231   -2.5480   23.9609 C   0  0  0  0  0  0  0  0  0  0  0  0
    6.2173   -2.9930   24.1917 C   0  0  0  0  0  0  0  0  0  0  0  0
    5.4646   -2.7456   23.4538 H   0  0  0  0  0  0  0  0  0  0  0  0
    5.8932   -3.7511   25.3221 C   0  0  0  0  0  0  0  0  0  0  0  0
    4.8735   -4.0931   25.4647 H   0  0  0  0  0  0  0  0  0  0  0  0
    6.8968   -4.0889   26.2351 C   0  0  0  0  0  0  0  0  0  0  0  0
    6.6869   -4.6954   27.1104 H   0  0  0  0  0  0  0  0  0  0  0  0
    8.2080   -3.6735   26.0062 C   0  0  0  0  0  0  0  0  0  0  0  0
    9.6005   -4.1837   27.1963 Br  0  0  0  0  0  0  0  0  0  0  0  0
    8.5164   -2.9008   24.8852 C   0  0  0  0  0  0  0  0  0  0  0  0
    9.5467   -2.5955   24.7543 H   0  0  0  0  0  0  0  0  0  0  0  0
    9.0098   -1.6561   22.1629 C   0  0  0  0  0  0  0  0  0  0  0  0
   10.1346   -1.9329   22.5618 O   0  0  0  0  0  0  0  0  0  0  0  0
    8.7520   -1.0777   20.9416 N   0  0  0  0  0  0  0  0  0  0  0  0
    9.4922   -0.6800   20.3826 H   0  0  0  0  0  0  0  0  0  0  0  0
    5.4862    0.5991   20.0045 C   0  0  0  0  0  0  0  0  0  0  0  0
    5.0308    0.5570   20.9906 H   0  0  0  0  0  0  0  0  0  0  0  0
    4.8683    1.2918   18.9652 C   0  0  0  0  0  0  0  0  0  0  0  0
    3.9224    1.7927   19.1189 H   0  0  0  0  0  0  0  0  0  0  0  0
  1  2  1  0
  2  3  2  0
  3  4  1  0
  4  5  1  0
  4  6  2  0
  6  7  1  0
  7  8  2  0
  8  9  1  0
  8 10  1  0
 10 11  1  0
 11 12  2  0
 12 13  1  0
 12 14  1  0
 14 15  1  0
 14 16  2  0
 16 17  1  0
 16 18  1  0
 18 19  1  0
 18 20  2  0
 20 21  1  0
 10 22  1  0
 22 23  2  0
 22 24  1  0
 24 25  1  0
  6 26  1  0
 26 27  1  0
 26 28  2  0
 28 29  1  0
 28  2  1  0
 24  7  1  0
 20 11  1  0
M  END
>  <cnnaffinity>  (1) 
-5.52801

>  <filename>  (1) 
O=c1[nH]c(-c2cccnc2)cn1-c1cccc(Br)c1

$$$$
