
     RDKit          3D

 27 29  0  0  0  0  0  0  0  0999 V2000
   13.0176    0.2721   24.2546 H   0  0  0  0  0  0  0  0  0  0  0  0
   12.5237   -0.0914   23.3595 C   0  0  0  0  0  0  0  0  0  0  0  0
   13.0545   -0.5468   22.2742 N   0  0  0  0  0  0  0  0  0  0  0  0
   11.9729   -0.9975   21.5365 C   0  0  0  0  0  0  0  0  0  0  0  0
   12.0986   -1.4765   20.5796 H   0  0  0  0  0  0  0  0  0  0  0  0
   10.8319   -0.7750   22.2356 C   0  0  0  0  0  0  0  0  0  0  0  0
    9.4710   -1.0674   22.0706 N   0  0  0  0  0  0  0  0  0  0  0  0
    8.7053   -0.4338   21.1012 C   0  0  0  0  0  0  0  0  0  0  0  0
    9.2334    0.2757   20.4729 H   0  0  0  0  0  0  0  0  0  0  0  0
    7.3616   -0.6538   20.9573 C   0  0  0  0  0  0  0  0  0  0  0  0
    6.5968    0.0056   19.8572 C   0  0  0  0  0  0  0  0  0  0  0  0
    7.1145    0.0243   18.5438 C   0  0  0  0  0  0  0  0  0  0  0  0
    8.0327   -0.5184   18.3244 H   0  0  0  0  0  0  0  0  0  0  0  0
    6.5566    0.6591   17.5045 N   0  0  0  0  0  0  0  0  0  0  0  0
    5.4170    1.3284   17.7416 C   0  0  0  0  0  0  0  0  0  0  0  0
    4.9935    1.8678   16.8944 H   0  0  0  0  0  0  0  0  0  0  0  0
    4.7835    1.3453   18.9904 C   0  0  0  0  0  0  0  0  0  0  0  0
    3.8600    1.9032   19.1077 H   0  0  0  0  0  0  0  0  0  0  0  0
    5.3676    0.6581   20.0607 C   0  0  0  0  0  0  0  0  0  0  0  0
    4.8886    0.6502   21.0434 H   0  0  0  0  0  0  0  0  0  0  0  0
    6.7208   -1.5488   21.8755 C   0  0  0  0  0  0  0  0  0  0  0  0
    5.6551   -1.7420   21.7638 H   0  0  0  0  0  0  0  0  0  0  0  0
    7.4404   -2.1861   22.8344 C   0  0  0  0  0  0  0  0  0  0  0  0
    7.0127   -2.8790   23.5439 H   0  0  0  0  0  0  0  0  0  0  0  0
    8.8835   -2.0345   22.9643 C   0  0  0  0  0  0  0  0  0  0  0  0
    9.5543   -2.6792   23.7358 O   0  0  0  0  0  0  0  0  0  0  0  0
   11.1820   -0.1884   23.4164 O   0  0  0  0  0  0  0  0  0  0  0  0
  1  2  1  0
  2  3  2  0
  3  4  1  0
  4  5  1  0
  4  6  2  0
  6  7  1  0
  7  8  1  0
  8  9  1  0
  8 10  2  0
 10 11  1  0
 11 12  2  0
 12 13  1  0
 12 14  1  0
 14 15  2  0
 15 16  1  0
 15 17  1  0
 17 18  1  0
 17 19  2  0
 19 20  1  0
 10 21  1  0
 21 22  1  0
 21 23  2  0
 23 24  1  0
 23 25  1  0
 25 26  2  0
  6 27  1  0
 27  2  1  0
 25  7  1  0
 19 11  1  0
M  END
>  <cnnaffinity>  (1) 
-4.49186

>  <filename>  (1) 
O=c1ccc(-c2cccnc2)cn1-c1cnco1

$$$$
