
     RDKit          3D

 38 40  0  0  0  0  0  0  0  0999 V2000
    5.0029    1.8014   16.9716 H   0  0  0  0  0  0  0  0  0  0  0  0
    5.4732    1.2928   17.8101 C   0  0  0  0  0  0  0  0  0  0  0  0
    6.6612    0.7101   17.5574 N   0  0  0  0  0  0  0  0  0  0  0  0
    7.2663    0.0758   18.5645 C   0  0  0  0  0  0  0  0  0  0  0  0
    8.2400   -0.3687   18.3616 H   0  0  0  0  0  0  0  0  0  0  0  0
    6.6927   -0.0568   19.8440 C   0  0  0  0  0  0  0  0  0  0  0  0
    7.3605   -0.8204   20.8298 N   0  0  0  0  0  0  0  0  0  0  0  0
    8.7325   -0.7593   20.8844 N   0  0  0  0  0  0  0  0  0  0  0  0
    9.1160   -1.5260   21.8552 C   0  0  0  0  0  0  0  0  0  0  0  0
   10.5708   -1.7576   22.0846 C   0  0  0  0  0  0  0  0  0  0  0  0
   10.7127   -2.4472   22.9246 H   0  0  0  0  0  0  0  0  0  0  0  0
   10.9690   -2.2593   21.1965 H   0  0  0  0  0  0  0  0  0  0  0  0
   11.3790   -0.4697   22.3458 C   0  0  0  0  0  0  0  0  0  0  0  0
   11.1249    0.2621   21.5643 H   0  0  0  0  0  0  0  0  0  0  0  0
   12.8916   -0.7493   22.2309 C   0  0  0  0  0  0  0  0  0  0  0  0
   13.1326   -1.6786   22.7425 H   0  0  0  0  0  0  0  0  0  0  0  0
   13.1383   -0.9762   21.1843 H   0  0  0  0  0  0  0  0  0  0  0  0
   13.7876    0.3810   22.7677 C   0  0  0  0  0  0  0  0  0  0  0  0
   14.8105    0.0087   22.8776 H   0  0  0  0  0  0  0  0  0  0  0  0
   13.8311    1.1907   22.0379 H   0  0  0  0  0  0  0  0  0  0  0  0
   13.3090    0.9963   24.0924 C   0  0  0  0  0  0  0  0  0  0  0  0
   13.8810    1.9061   24.2882 H   0  0  0  0  0  0  0  0  0  0  0  0
   13.4891    0.3022   24.9261 H   0  0  0  0  0  0  0  0  0  0  0  0
   11.8230    1.3618   24.0490 C   0  0  0  0  0  0  0  0  0  0  0  0
   11.5017    1.7956   25.0029 H   0  0  0  0  0  0  0  0  0  0  0  0
   11.6611    2.1442   23.2912 H   0  0  0  0  0  0  0  0  0  0  0  0
   10.9756    0.1386   23.7021 C   0  0  0  0  0  0  0  0  0  0  0  0
   11.0906   -0.6227   24.4917 H   0  0  0  0  0  0  0  0  0  0  0  0
    9.9120    0.4105   23.6806 H   0  0  0  0  0  0  0  0  0  0  0  0
    7.9622   -2.0741   22.6474 C   0  0  0  0  0  0  0  0  0  0  0  0
    8.0104   -3.1362   22.8946 H   0  0  0  0  0  0  0  0  0  0  0  0
    7.7852   -1.5157   23.5784 H   0  0  0  0  0  0  0  0  0  0  0  0
    6.8144   -1.7433   21.7213 C   0  0  0  0  0  0  0  0  0  0  0  0
    5.6930   -2.1966   21.7311 O   0  0  0  0  0  0  0  0  0  0  0  0
    5.4835    0.5962   20.1200 C   0  0  0  0  0  0  0  0  0  0  0  0
    5.0622    0.5697   21.1261 H   0  0  0  0  0  0  0  0  0  0  0  0
    4.8657    1.2845   19.0707 C   0  0  0  0  0  0  0  0  0  0  0  0
    3.9341    1.8218   19.2209 H   0  0  0  0  0  0  0  0  0  0  0  0
  1  2  1  0
  2  3  2  0
  3  4  1  0
  4  5  1  0
  4  6  2  0
  6  7  1  0
  7  8  1  0
  8  9  2  0
  9 10  1  0
 10 11  1  0
 10 12  1  0
 10 13  1  0
 13 14  1  0
 13 15  1  0
 15 16  1  0
 15 17  1  0
 15 18  1  0
 18 19  1  0
 18 20  1  0
 18 21  1  0
 21 22  1  0
 21 23  1  0
 21 24  1  0
 24 25  1  0
 24 26  1  0
 24 27  1  0
 27 28  1  0
 27 29  1  0
  9 30  1  0
 30 31  1  0
 30 32  1  0
 30 33  1  0
 33 34  2  0
  6 35  1  0
 35 36  1  0
 35 37  2  0
 37 38  1  0
 37  2  1  0
 33  7  1  0
 27 13  1  0
M  END
>  <cnnaffinity>  (1) 
-5.49055

>  <filename>  (1) 
O=C1CC(CC2CCCCC2)=NN1c1cccnc1

$$$$
