
     RDKit          3D

 30 32  0  0  0  0  0  0  0  0999 V2000
    8.9060   -1.2590   19.6259 H   0  0  0  0  0  0  0  0  0  0  0  0
    8.3483   -0.9996   20.5133 C   0  0  0  0  0  0  0  0  0  0  0  0
    7.2684   -0.1961   20.5705 C   0  0  0  0  0  0  0  0  0  0  0  0
    6.6208    0.4834   19.4313 C   0  0  0  0  0  0  0  0  0  0  0  0
    7.1497    0.3620   18.1226 C   0  0  0  0  0  0  0  0  0  0  0  0
    8.0710   -0.2000   17.9540 H   0  0  0  0  0  0  0  0  0  0  0  0
    6.5855    0.8987   17.0385 N   0  0  0  0  0  0  0  0  0  0  0  0
    5.4529    1.5995   17.2118 C   0  0  0  0  0  0  0  0  0  0  0  0
    5.0041    1.9994   16.3053 H   0  0  0  0  0  0  0  0  0  0  0  0
    4.8639    1.8158   18.4598 C   0  0  0  0  0  0  0  0  0  0  0  0
    3.9586    2.4128   18.5254 H   0  0  0  0  0  0  0  0  0  0  0  0
    5.4666    1.2742   19.5955 C   0  0  0  0  0  0  0  0  0  0  0  0
    5.0725    1.4577   20.5955 H   0  0  0  0  0  0  0  0  0  0  0  0
    6.8479   -0.0997   22.0229 C   0  0  0  0  0  0  0  0  0  0  0  0
    5.9036    0.4818   22.5249 O   0  0  0  0  0  0  0  0  0  0  0  0
    7.7941   -0.8452   22.7280 N   0  0  0  0  0  0  0  0  0  0  0  0
    7.7707   -1.0604   24.1284 C   0  0  0  0  0  0  0  0  0  0  0  0
    6.6026   -1.5664   24.7323 C   0  0  0  0  0  0  0  0  0  0  0  0
    5.7367   -1.7265   24.1030 H   0  0  0  0  0  0  0  0  0  0  0  0
    6.5589   -1.8402   26.1008 C   0  0  0  0  0  0  0  0  0  0  0  0
    5.6588   -2.2539   26.5527 H   0  0  0  0  0  0  0  0  0  0  0  0
    7.6836   -1.5986   26.8921 C   0  0  0  0  0  0  0  0  0  0  0  0
    7.6568   -1.7980   27.9562 H   0  0  0  0  0  0  0  0  0  0  0  0
    8.8628   -1.1224   26.3147 C   0  0  0  0  0  0  0  0  0  0  0  0
    9.7574   -0.9685   26.9122 H   0  0  0  0  0  0  0  0  0  0  0  0
    8.9080   -0.8489   24.9436 C   0  0  0  0  0  0  0  0  0  0  0  0
   10.3988   -0.2098   24.2923 Cl  0  0  0  0  0  0  0  0  0  0  0  0
    8.7168   -1.5427   21.8451 C   0  0  0  0  0  0  0  0  0  0  0  0
    9.7653   -1.3569   22.1055 H   0  0  0  0  0  0  0  0  0  0  0  0
    8.5593   -2.6301   21.8970 H   0  0  0  0  0  0  0  0  0  0  0  0
  1  2  1  0
  2  3  2  0
  3  4  1  0
  4  5  2  0
  5  6  1  0
  5  7  1  0
  7  8  2  0
  8  9  1  0
  8 10  1  0
 10 11  1  0
 10 12  2  0
 12 13  1  0
  3 14  1  0
 14 15  2  0
 14 16  1  0
 16 17  1  0
 17 18  2  0
 18 19  1  0
 18 20  1  0
 20 21  1  0
 20 22  2  0
 22 23  1  0
 22 24  1  0
 24 25  1  0
 24 26  2  0
 26 27  1  0
 16 28  1  0
 28 29  1  0
 28 30  1  0
 28  2  1  0
 12  4  1  0
 26 17  1  0
M  END
>  <cnnaffinity>  (1) 
-5.10633

>  <filename>  (1) 
O=C1C(c2cccnc2)=CCN1c1ccccc1Cl

$$$$
