
     RDKit          3D

 35 38  0  0  0  0  0  0  0  0999 V2000
    4.9327    1.9788   16.8156 H   0  0  0  0  0  0  0  0  0  0  0  0
    5.3825    1.4453   17.6492 C   0  0  0  0  0  0  0  0  0  0  0  0
    6.5385    0.8158   17.3816 N   0  0  0  0  0  0  0  0  0  0  0  0
    7.1362    0.1582   18.3833 C   0  0  0  0  0  0  0  0  0  0  0  0
    8.0719   -0.3554   18.1564 H   0  0  0  0  0  0  0  0  0  0  0  0
    6.6018    0.0818   19.6830 C   0  0  0  0  0  0  0  0  0  0  0  0
    7.2733   -0.6383   20.7386 N   0  0  0  0  0  0  0  0  0  0  0  0
    8.5167   -0.2114   21.1764 C   0  0  0  0  0  0  0  0  0  0  0  0
    8.9300    0.6286   20.6232 H   0  0  0  0  0  0  0  0  0  0  0  0
    9.1621   -0.8197   22.2098 C   0  0  0  0  0  0  0  0  0  0  0  0
   10.1396   -0.4642   22.5234 H   0  0  0  0  0  0  0  0  0  0  0  0
    8.5351   -1.9114   22.8965 C   0  0  0  0  0  0  0  0  0  0  0  0
    9.2272   -2.6797   23.9670 C   0  0  0  0  0  0  0  0  0  0  0  0
   10.4331   -3.3384   23.7076 C   0  0  0  0  0  0  0  0  0  0  0  0
   10.9672   -3.1475   22.7796 H   0  0  0  0  0  0  0  0  0  0  0  0
   10.9461   -4.2998   24.6037 C   0  0  0  0  0  0  0  0  0  0  0  0
   11.8243   -4.8531   24.3138 H   0  0  0  0  0  0  0  0  0  0  0  0
   10.3268   -4.5879   25.8127 C   0  0  0  0  0  0  0  0  0  0  0  0
   10.6908   -5.3671   26.4840 H   0  0  0  0  0  0  0  0  0  0  0  0
    9.1691   -3.8599   26.1132 C   0  0  0  0  0  0  0  0  0  0  0  0
    8.6085   -2.9045   25.2277 C   0  0  0  0  0  0  0  0  0  0  0  0
    7.4254   -2.4149   25.8866 C   0  0  0  0  0  0  0  0  0  0  0  0
    6.7403   -1.6793   25.4862 H   0  0  0  0  0  0  0  0  0  0  0  0
    7.2950   -3.0817   27.0691 C   0  0  0  0  0  0  0  0  0  0  0  0
    6.4839   -3.0691   27.7883 H   0  0  0  0  0  0  0  0  0  0  0  0
    8.3530   -3.9582   27.2102 N   0  0  0  0  0  0  0  0  0  0  0  0
    8.6276   -4.4513   28.0439 H   0  0  0  0  0  0  0  0  0  0  0  0
    7.2919   -2.3111   22.4983 C   0  0  0  0  0  0  0  0  0  0  0  0
    6.7604   -3.1254   22.9664 H   0  0  0  0  0  0  0  0  0  0  0  0
    6.5977   -1.7369   21.3780 C   0  0  0  0  0  0  0  0  0  0  0  0
    5.5336   -2.1725   20.9803 O   0  0  0  0  0  0  0  0  0  0  0  0
    5.3765    0.7083   19.9410 C   0  0  0  0  0  0  0  0  0  0  0  0
    4.9350    0.6314   20.9347 H   0  0  0  0  0  0  0  0  0  0  0  0
    4.7645    1.4185   18.9045 C   0  0  0  0  0  0  0  0  0  0  0  0
    3.8254    1.9402   19.0532 H   0  0  0  0  0  0  0  0  0  0  0  0
  1  2  1  0
  2  3  2  0
  3  4  1  0
  4  5  1  0
  4  6  2  0
  6  7  1  0
  7  8  1  0
  8  9  1  0
  8 10  2  0
 10 11  1  0
 10 12  1  0
 12 13  1  0
 13 14  2  0
 14 15  1  0
 14 16  1  0
 16 17  1  0
 16 18  2  0
 18 19  1  0
 18 20  1  0
 20 21  2  0
 21 22  1  0
 22 23  1  0
 22 24  2  0
 24 25  1  0
 24 26  1  0
 26 27  1  0
 12 28  2  0
 28 29  1  0
 28 30  1  0
 30 31  2  0
  6 32  1  0
 32 33  1  0
 32 34  2  0
 34 35  1  0
 34  2  1  0
 30  7  1  0
 21 13  1  0
 26 20  1  0
M  END
>  <cnnaffinity>  (1) 
-5.2789

>  <filename>  (1) 
O=c1cc(-c2cccc3[nH]ccc23)ccn1-c1cccnc1

$$$$
