
     RDKit          3D

 27 29  0  0  0  0  0  0  0  0999 V2000
    4.9229    1.8056   16.9834 H   0  0  0  0  0  0  0  0  0  0  0  0
    5.3951    1.3015   17.8239 C   0  0  0  0  0  0  0  0  0  0  0  0
    6.5598    0.6821   17.5640 N   0  0  0  0  0  0  0  0  0  0  0  0
    7.1541    0.0518   18.5819 C   0  0  0  0  0  0  0  0  0  0  0  0
    8.1152   -0.4161   18.3561 H   0  0  0  0  0  0  0  0  0  0  0  0
    6.6438   -0.0015   19.8965 C   0  0  0  0  0  0  0  0  0  0  0  0
    7.3435   -0.7125   20.9609 C   0  0  0  0  0  0  0  0  0  0  0  0
    7.6068   -0.2673   22.2291 C   0  0  0  0  0  0  0  0  0  0  0  0
    7.3646    1.0625   22.7471 C   0  0  0  0  0  0  0  0  0  0  0  0
    7.5232    2.2257   22.0438 C   0  0  0  0  0  0  0  0  0  0  0  0
    7.8273    2.3377   21.0068 H   0  0  0  0  0  0  0  0  0  0  0  0
    7.1564    3.6044   22.9923 S   0  0  0  0  0  0  0  0  0  0  0  0
    6.7708    2.6228   24.3538 C   0  0  0  0  0  0  0  0  0  0  0  0
    6.4649    3.0948   25.2757 H   0  0  0  0  0  0  0  0  0  0  0  0
    6.9301    1.3041   24.0934 C   0  0  0  0  0  0  0  0  0  0  0  0
    6.7670    0.4844   24.7860 H   0  0  0  0  0  0  0  0  0  0  0  0
    8.2202   -1.3927   23.0085 C   0  0  0  0  0  0  0  0  0  0  0  0
    8.6179   -1.4860   24.1564 O   0  0  0  0  0  0  0  0  0  0  0  0
    8.2898   -2.4323   22.1335 N   0  0  0  0  0  0  0  0  0  0  0  0
    8.7657   -3.2496   22.4667 H   0  0  0  0  0  0  0  0  0  0  0  0
    7.8571   -2.1102   20.8024 C   0  0  0  0  0  0  0  0  0  0  0  0
    8.6998   -2.0902   20.1000 H   0  0  0  0  0  0  0  0  0  0  0  0
    7.0843   -2.8060   20.4415 H   0  0  0  0  0  0  0  0  0  0  0  0
    5.4211    0.6475   20.1375 C   0  0  0  0  0  0  0  0  0  0  0  0
    5.0043    0.6369   21.1444 H   0  0  0  0  0  0  0  0  0  0  0  0
    4.7953    1.3112   19.0860 C   0  0  0  0  0  0  0  0  0  0  0  0
    3.8680    1.8466   19.2384 H   0  0  0  0  0  0  0  0  0  0  0  0
  1  2  1  0
  2  3  2  0
  3  4  1  0
  4  5  1  0
  4  6  2  0
  6  7  1  0
  7  8  2  0
  8  9  1  0
  9 10  2  0
 10 11  1  0
 10 12  1  0
 12 13  1  0
 13 14  1  0
 13 15  2  0
 15 16  1  0
  8 17  1  0
 17 18  2  0
 17 19  1  0
 19 20  1  0
 19 21  1  0
 21 22  1  0
 21 23  1  0
  6 24  1  0
 24 25  1  0
 24 26  2  0
 26 27  1  0
 26  2  1  0
 21  7  1  0
 15  9  1  0
M  END
>  <cnnaffinity>  (1) 
-4.52478

>  <filename>  (1) 
O=C1NCC(c2cccnc2)=C1c1ccsc1

$$$$
