
     RDKit          3D

 36 38  0  0  0  0  0  0  0  0999 V2000
    7.5629    1.2880   22.3371 O   0  0  0  0  0  0  0  0  0  0  0  0
    7.7198    0.0932   22.1710 C   0  0  0  0  0  0  0  0  0  0  0  0
    8.4867   -0.7338   23.2343 C   0  0  0  0  0  0  0  0  0  0  0  0
    8.4083   -2.1982   23.1164 N   0  0  0  0  0  0  0  0  0  0  0  0
    8.7903   -3.0265   24.1657 C   0  0  0  0  0  0  0  0  0  0  0  0
   10.0123   -3.5469   24.1151 N   0  0  0  0  0  0  0  0  0  0  0  0
   10.4657   -4.1861   25.1979 C   0  0  0  0  0  0  0  0  0  0  0  0
    9.6930   -4.3933   26.3436 C   0  0  0  0  0  0  0  0  0  0  0  0
   10.3993   -5.1052   27.7586 Cl  0  0  0  0  0  0  0  0  0  0  0  0
    8.3569   -3.9898   26.3365 C   0  0  0  0  0  0  0  0  0  0  0  0
    7.8975   -3.2805   25.2192 C   0  0  0  0  0  0  0  0  0  0  0  0
    6.5198   -2.6969   25.1060 C   0  0  0  0  0  0  0  0  0  0  0  0
    6.5104   -1.4049   25.5182 F   0  0  0  0  0  0  0  0  0  0  0  0
    5.6389   -3.3616   25.8790 F   0  0  0  0  0  0  0  0  0  0  0  0
    6.0156   -2.7137   23.8625 F   0  0  0  0  0  0  0  0  0  0  0  0
    7.6992   -4.2460   27.1654 H   0  0  0  0  0  0  0  0  0  0  0  0
   11.4871   -4.5520   25.1521 H   0  0  0  0  0  0  0  0  0  0  0  0
    8.4943   -2.6685   21.7410 C   0  0  0  0  0  0  0  0  0  0  0  0
    7.2924   -2.0634   21.0080 C   0  0  0  0  0  0  0  0  0  0  0  0
    7.3558   -0.5918   21.0121 N   0  0  0  0  0  0  0  0  0  0  0  0
    6.6786    0.0820   19.9375 C   0  0  0  0  0  0  0  0  0  0  0  0
    5.4507    0.7160   20.1653 C   0  0  0  0  0  0  0  0  0  0  0  0
    4.7980    1.3228   19.0863 C   0  0  0  0  0  0  0  0  0  0  0  0
    5.4060    1.2828   17.8258 C   0  0  0  0  0  0  0  0  0  0  0  0
    6.5693    0.6524   17.5839 N   0  0  0  0  0  0  0  0  0  0  0  0
    7.1798    0.0593   18.6183 C   0  0  0  0  0  0  0  0  0  0  0  0
    8.1226   -0.4485   18.4039 H   0  0  0  0  0  0  0  0  0  0  0  0
    4.9503    1.7819   16.9755 H   0  0  0  0  0  0  0  0  0  0  0  0
    3.8497    1.8346   19.2123 H   0  0  0  0  0  0  0  0  0  0  0  0
    5.0409    0.7234   21.1753 H   0  0  0  0  0  0  0  0  0  0  0  0
    6.3867   -2.4105   21.5180 H   0  0  0  0  0  0  0  0  0  0  0  0
    7.2192   -2.4000   19.9799 H   0  0  0  0  0  0  0  0  0  0  0  0
    9.4456   -2.3787   21.2603 H   0  0  0  0  0  0  0  0  0  0  0  0
    8.4194   -3.7590   21.7039 H   0  0  0  0  0  0  0  0  0  0  0  0
    8.1146   -0.3822   24.1975 H   0  0  0  0  0  0  0  0  0  0  0  0
    9.5235   -0.3752   23.1447 H   0  0  0  0  0  0  0  0  0  0  0  0
  1  2  2  0
  2  3  1  0
  3  4  1  0
  4  5  1  0
  5  6  2  0
  6  7  1  0
  7  8  2  0
  8  9  1  0
  8 10  1  0
 10 11  2  0
 11 12  1  0
 12 13  1  0
 12 14  1  0
 12 15  1  0
 10 16  1  0
  7 17  1  0
  4 18  1  0
 18 19  1  0
 19 20  1  0
 20 21  1  0
 21 22  2  0
 22 23  1  0
 23 24  2  0
 24 25  1  0
 25 26  2  0
 26 27  1  0
 24 28  1  0
 23 29  1  0
 22 30  1  0
 19 31  1  0
 19 32  1  0
 18 33  1  0
 18 34  1  0
  3 35  1  0
  3 36  1  0
 20  2  1  0
 26 21  1  0
 11  5  1  0
M  END
>  <cnnaffinity>  (1) 
-5.13412

>  <filename>  (1) 
O=C1CN(c2ncc(Cl)cc2C(F)(F)F)CCN1c1cccnc1

$$$$
