
     RDKit          3D

 32 34  0  0  0  0  0  0  0  0999 V2000
    9.0786   -3.2325   22.3160 H   0  0  0  0  0  0  0  0  0  0  0  0
    8.5240   -2.3217   22.1491 C   0  0  0  0  0  0  0  0  0  0  0  0
    8.0808   -1.4458   23.0651 C   0  0  0  0  0  0  0  0  0  0  0  0
    8.2943   -1.4030   24.5075 C   0  0  0  0  0  0  0  0  0  0  0  0
    8.7988   -0.2536   24.9696 N   0  0  0  0  0  0  0  0  0  0  0  0
    9.1851   -0.1704   26.2378 C   0  0  0  0  0  0  0  0  0  0  0  0
    9.6219    0.7841   26.5350 H   0  0  0  0  0  0  0  0  0  0  0  0
    9.0670   -1.2315   27.1436 C   0  0  0  0  0  0  0  0  0  0  0  0
    9.3934   -1.0874   28.1643 H   0  0  0  0  0  0  0  0  0  0  0  0
    8.4985   -2.4207   26.7048 C   0  0  0  0  0  0  0  0  0  0  0  0
    8.3664   -3.2722   27.3745 H   0  0  0  0  0  0  0  0  0  0  0  0
    8.0831   -2.4935   25.3714 C   0  0  0  0  0  0  0  0  0  0  0  0
    7.4586   -3.7419   24.8537 C   0  0  0  0  0  0  0  0  0  0  0  0
    6.9131   -4.4793   25.8345 F   0  0  0  0  0  0  0  0  0  0  0  0
    6.4892   -3.5100   23.9566 F   0  0  0  0  0  0  0  0  0  0  0  0
    8.3815   -4.5200   24.2440 F   0  0  0  0  0  0  0  0  0  0  0  0
    7.3631   -0.3416   22.4048 C   0  0  0  0  0  0  0  0  0  0  0  0
    6.8493    0.6352   22.9033 O   0  0  0  0  0  0  0  0  0  0  0  0
    7.3825   -0.6597   21.0221 N   0  0  0  0  0  0  0  0  0  0  0  0
    6.6883    0.0033   19.9691 C   0  0  0  0  0  0  0  0  0  0  0  0
    7.1886    0.0324   18.6361 C   0  0  0  0  0  0  0  0  0  0  0  0
    8.1333   -0.4491   18.3896 H   0  0  0  0  0  0  0  0  0  0  0  0
    6.5809    0.6433   17.6108 N   0  0  0  0  0  0  0  0  0  0  0  0
    5.4206    1.2686   17.8614 C   0  0  0  0  0  0  0  0  0  0  0  0
    4.9609    1.7779   17.0175 H   0  0  0  0  0  0  0  0  0  0  0  0
    4.8239    1.2875   19.1262 C   0  0  0  0  0  0  0  0  0  0  0  0
    3.8875    1.8197   19.2662 H   0  0  0  0  0  0  0  0  0  0  0  0
    5.4620    0.6492   20.1969 C   0  0  0  0  0  0  0  0  0  0  0  0
    5.0364    0.6577   21.1960 H   0  0  0  0  0  0  0  0  0  0  0  0
    8.0848   -1.9131   20.7957 C   0  0  0  0  0  0  0  0  0  0  0  0
    7.4055   -2.6714   20.3865 H   0  0  0  0  0  0  0  0  0  0  0  0
    8.9438   -1.7848   20.1234 H   0  0  0  0  0  0  0  0  0  0  0  0
  1  2  1  0
  2  3  2  0
  3  4  1  0
  4  5  2  0
  5  6  1  0
  6  7  1  0
  6  8  2  0
  8  9  1  0
  8 10  1  0
 10 11  1  0
 10 12  2  0
 12 13  1  0
 13 14  1  0
 13 15  1  0
 13 16  1  0
  3 17  1  0
 17 18  2  0
 17 19  1  0
 19 20  1  0
 20 21  2  0
 21 22  1  0
 21 23  1  0
 23 24  2  0
 24 25  1  0
 24 26  1  0
 26 27  1  0
 26 28  2  0
 28 29  1  0
 19 30  1  0
 30 31  1  0
 30 32  1  0
 30  2  1  0
 12  4  1  0
 28 20  1  0
M  END
>  <cnnaffinity>  (1) 
-5.39265

>  <filename>  (1) 
O=C1C(c2ncccc2C(F)(F)F)=CCN1c1cccnc1

$$$$
