
     RDKit          3D

 31 33  0  0  0  0  0  0  0  0999 V2000
    4.9200    1.8014   16.9811 H   0  0  0  0  0  0  0  0  0  0  0  0
    5.3966    1.3017   17.8210 C   0  0  0  0  0  0  0  0  0  0  0  0
    6.5617    0.6922   17.5551 N   0  0  0  0  0  0  0  0  0  0  0  0
    7.1737    0.0744   18.5726 C   0  0  0  0  0  0  0  0  0  0  0  0
    8.1227   -0.4103   18.3373 H   0  0  0  0  0  0  0  0  0  0  0  0
    6.6628    0.0095   19.8826 C   0  0  0  0  0  0  0  0  0  0  0  0
    7.3967   -0.7027   21.0048 C   0  0  2  0  0  0  0  0  0  0  0  0
    8.2351   -1.2698   20.5736 H   0  0  0  0  0  0  0  0  0  0  0  0
    6.5298   -1.7504   21.7336 C   0  0  0  0  0  0  0  0  0  0  0  0
    5.9549   -2.7188   21.2831 O   0  0  0  0  0  0  0  0  0  0  0  0
    6.5200   -1.4266   23.0463 N   0  0  0  0  0  0  0  0  0  0  0  0
    5.7766   -1.8907   23.5462 H   0  0  0  0  0  0  0  0  0  0  0  0
    7.0818   -0.1437   23.4030 C   0  0  0  0  0  0  0  0  0  0  0  0
    7.7049   -0.2556   24.2997 H   0  0  0  0  0  0  0  0  0  0  0  0
    6.3131    0.6058   23.6470 H   0  0  0  0  0  0  0  0  0  0  0  0
    7.8733    0.2773   22.1336 C   0  0  1  0  0  0  0  0  0  0  0  0
    7.6567    1.3214   21.8755 H   0  0  0  0  0  0  0  0  0  0  0  0
    9.3680    0.2140   22.3393 C   0  0  0  0  0  0  0  0  0  0  0  0
    9.8413   -0.9627   22.7723 N   0  0  0  0  0  0  0  0  0  0  0  0
   11.1620   -1.1088   22.9012 C   0  0  0  0  0  0  0  0  0  0  0  0
   11.5107   -2.1082   23.1550 H   0  0  0  0  0  0  0  0  0  0  0  0
   12.0561   -0.0545   22.6811 C   0  0  0  0  0  0  0  0  0  0  0  0
   13.3660   -0.2359   22.9061 F   0  0  0  0  0  0  0  0  0  0  0  0
   11.5902    1.1773   22.2272 C   0  0  0  0  0  0  0  0  0  0  0  0
   12.2937    1.9819   22.0108 H   0  0  0  0  0  0  0  0  0  0  0  0
   10.2047    1.3024   22.0425 C   0  0  0  0  0  0  0  0  0  0  0  0
    9.7627    2.2135   21.6472 H   0  0  0  0  0  0  0  0  0  0  0  0
    5.4469    0.6566   20.1355 C   0  0  0  0  0  0  0  0  0  0  0  0
    5.0143    0.6361   21.1392 H   0  0  0  0  0  0  0  0  0  0  0  0
    4.8025    1.3157   19.0882 C   0  0  0  0  0  0  0  0  0  0  0  0
    3.8700    1.8435   19.2428 H   0  0  0  0  0  0  0  0  0  0  0  0
  1  2  1  0
  2  3  2  0
  3  4  1  0
  4  5  1  0
  4  6  2  0
  6  7  1  0
  7  8  1  6
  7  9  1  0
  9 10  2  0
  9 11  1  0
 11 12  1  0
 11 13  1  0
 13 14  1  0
 13 15  1  0
 13 16  1  0
 16 17  1  6
 16 18  1  0
 18 19  2  0
 19 20  1  0
 20 21  1  0
 20 22  2  0
 22 23  1  0
 22 24  1  0
 24 25  1  0
 24 26  2  0
 26 27  1  0
  6 28  1  0
 28 29  1  0
 28 30  2  0
 30 31  1  0
 30  2  1  0
 16  7  1  0
 26 18  1  0
M  END
>  <cnnaffinity>  (1) 
-5.62152

>  <filename>  (1) 
O=C1NC[C@@H](c2ccc(F)cn2)[C@@H]1c1cccnc1

$$$$
