
     RDKit          3D

 31 33  0  0  0  0  0  0  0  0999 V2000
    4.9232    1.8047   16.9769 H   0  0  0  0  0  0  0  0  0  0  0  0
    5.3819    1.2998   17.8255 C   0  0  0  0  0  0  0  0  0  0  0  0
    6.5383    0.6702   17.5660 N   0  0  0  0  0  0  0  0  0  0  0  0
    7.1478    0.0527   18.5815 C   0  0  0  0  0  0  0  0  0  0  0  0
    8.1114   -0.4067   18.3816 H   0  0  0  0  0  0  0  0  0  0  0  0
    6.6294   -0.0018   19.8882 C   0  0  0  0  0  0  0  0  0  0  0  0
    7.3651   -0.6701   20.8997 N   0  0  0  0  0  0  0  0  0  0  0  0
    8.7718   -0.6670   21.1202 C   0  0  0  0  0  0  0  0  0  0  0  0
    9.5960   -0.0680   20.4569 O   0  0  0  0  0  0  0  0  0  0  0  0
    8.9250   -1.5236   22.2816 C   0  0  0  0  0  0  0  0  0  0  0  0
    9.8870   -1.7328   22.7073 H   0  0  0  0  0  0  0  0  0  0  0  0
    7.7053   -1.9503   22.7127 C   0  0  0  0  0  0  0  0  0  0  0  0
    7.3240   -2.8799   23.8362 C   0  0  0  0  0  0  0  0  0  0  0  0
    6.4466   -3.8482   23.5199 N   0  0  0  0  0  0  0  0  0  0  0  0
    6.1813   -4.7999   24.4154 C   0  0  0  0  0  0  0  0  0  0  0  0
    5.4895   -5.5705   24.0749 H   0  0  0  0  0  0  0  0  0  0  0  0
    6.7409   -4.8282   25.7010 C   0  0  0  0  0  0  0  0  0  0  0  0
    6.4672   -5.6224   26.3882 H   0  0  0  0  0  0  0  0  0  0  0  0
    7.6002   -3.7994   26.0756 C   0  0  0  0  0  0  0  0  0  0  0  0
    8.0495   -3.7680   27.0750 H   0  0  0  0  0  0  0  0  0  0  0  0
    7.8566   -2.7892   25.1384 C   0  0  0  0  0  0  0  0  0  0  0  0
    8.7545   -1.6463   25.4861 C   0  0  0  0  0  0  0  0  0  0  0  0
    9.9952   -1.8807   25.0024 F   0  0  0  0  0  0  0  0  0  0  0  0
    8.8602   -1.4731   26.8125 F   0  0  0  0  0  0  0  0  0  0  0  0
    8.3600   -0.4758   24.9628 F   0  0  0  0  0  0  0  0  0  0  0  0
    6.7552   -1.4061   21.8895 N   0  0  0  0  0  0  0  0  0  0  0  0
    5.7633   -1.6032   21.8638 H   0  0  0  0  0  0  0  0  0  0  0  0
    5.4159    0.6482   20.1524 C   0  0  0  0  0  0  0  0  0  0  0  0
    5.0171    0.6470   21.1667 H   0  0  0  0  0  0  0  0  0  0  0  0
    4.7912    1.3161   19.0957 C   0  0  0  0  0  0  0  0  0  0  0  0
    3.8639    1.8542   19.2426 H   0  0  0  0  0  0  0  0  0  0  0  0
  1  2  1  0
  2  3  2  0
  3  4  1  0
  4  5  1  0
  4  6  2  0
  6  7  1  0
  7  8  1  0
  8  9  2  0
  8 10  1  0
 10 11  1  0
 10 12  2  0
 12 13  1  0
 13 14  2  0
 14 15  1  0
 15 16  1  0
 15 17  2  0
 17 18  1  0
 17 19  1  0
 19 20  1  0
 19 21  2  0
 21 22  1  0
 22 23  1  0
 22 24  1  0
 22 25  1  0
 12 26  1  0
 26 27  1  0
  6 28  1  0
 28 29  1  0
 28 30  2  0
 30 31  1  0
 30  2  1  0
 26  7  1  0
 21 13  1  0
M  END
>  <cnnaffinity>  (1) 
-5.57822

>  <filename>  (1) 
O=c1cc(-c2ncccc2C(F)(F)F)[nH]n1-c1cccnc1

$$$$
