
     RDKit          3D

 39 42  0  0  0  0  0  0  0  0999 V2000
    5.8125   -1.2338   22.2130 H   0  0  0  0  0  0  0  0  0  0  0  0
    6.8747   -1.1953   22.0325 C   0  0  0  0  0  0  0  0  0  0  0  0
    7.4275   -0.6625   20.9376 C   0  0  0  0  0  0  0  0  0  0  0  0
    6.6874    0.0318   19.8688 C   0  0  0  0  0  0  0  0  0  0  0  0
    7.1743    0.0858   18.5453 C   0  0  0  0  0  0  0  0  0  0  0  0
    8.1196   -0.3987   18.2992 H   0  0  0  0  0  0  0  0  0  0  0  0
    6.5544    0.6938   17.5283 N   0  0  0  0  0  0  0  0  0  0  0  0
    5.3927    1.3113   17.7946 C   0  0  0  0  0  0  0  0  0  0  0  0
    4.9186    1.8231   16.9612 H   0  0  0  0  0  0  0  0  0  0  0  0
    4.7995    1.3199   19.0619 C   0  0  0  0  0  0  0  0  0  0  0  0
    3.8592    1.8438   19.2140 H   0  0  0  0  0  0  0  0  0  0  0  0
    5.4501    0.6697   20.1102 C   0  0  0  0  0  0  0  0  0  0  0  0
    5.0217    0.6806   21.1128 H   0  0  0  0  0  0  0  0  0  0  0  0
    8.9200   -0.9466   20.9318 C   0  0  0  0  0  0  0  0  0  0  0  0
    9.1627   -1.6723   20.1433 H   0  0  0  0  0  0  0  0  0  0  0  0
    9.5039   -0.0433   20.7212 H   0  0  0  0  0  0  0  0  0  0  0  0
    9.2009   -1.5154   22.3508 C   0  0  0  0  0  0  0  0  0  0  0  0
    9.6375   -0.7268   22.9764 H   0  0  0  0  0  0  0  0  0  0  0  0
    9.9109   -2.3495   22.3468 H   0  0  0  0  0  0  0  0  0  0  0  0
    7.8171   -1.9294   22.9317 C   0  0  2  0  0  0  0  0  0  0  0  0
    7.7068   -1.6108   23.9746 H   0  0  0  0  0  0  0  0  0  0  0  0
    7.5617   -3.4615   22.9536 C   0  0  0  0  0  0  0  0  0  0  0  0
    7.6113   -3.8756   21.9417 H   0  0  0  0  0  0  0  0  0  0  0  0
    8.3199   -3.9430   23.5779 H   0  0  0  0  0  0  0  0  0  0  0  0
    6.2555   -3.8031   23.5059 N   0  0  0  0  0  0  0  0  0  0  0  0
    5.9560   -3.7036   24.8593 C   0  0  0  0  0  0  0  0  0  0  0  0
    6.7640   -3.4450   25.7206 O   0  0  0  0  0  0  0  0  0  0  0  0
    4.4939   -3.9737   24.9932 C   0  0  0  0  0  0  0  0  0  0  0  0
    3.6515   -3.8974   26.1036 C   0  0  0  0  0  0  0  0  0  0  0  0
    4.0365   -3.6596   27.0925 H   0  0  0  0  0  0  0  0  0  0  0  0
    2.2817   -4.0732   25.8916 C   0  0  0  0  0  0  0  0  0  0  0  0
    1.5931   -3.9730   26.7258 H   0  0  0  0  0  0  0  0  0  0  0  0
    1.7801   -4.3908   24.6122 C   0  0  0  0  0  0  0  0  0  0  0  0
    0.7074   -4.5084   24.4764 H   0  0  0  0  0  0  0  0  0  0  0  0
    2.6438   -4.5516   23.5269 C   0  0  0  0  0  0  0  0  0  0  0  0
    2.2608   -4.8540   22.5532 H   0  0  0  0  0  0  0  0  0  0  0  0
    3.9961   -4.2555   23.7218 C   0  0  0  0  0  0  0  0  0  0  0  0
    5.1188   -4.0648   22.7491 C   0  0  0  0  0  0  0  0  0  0  0  0
    5.0895   -4.1075   21.5402 O   0  0  0  0  0  0  0  0  0  0  0  0
  1  2  1  0
  2  3  2  0
  3  4  1  0
  4  5  2  0
  5  6  1  0
  5  7  1  0
  7  8  2  0
  8  9  1  0
  8 10  1  0
 10 11  1  0
 10 12  2  0
 12 13  1  0
  3 14  1  0
 14 15  1  0
 14 16  1  0
 14 17  1  0
 17 18  1  0
 17 19  1  0
 17 20  1  0
 20 21  1  1
 20 22  1  0
 22 23  1  0
 22 24  1  0
 22 25  1  0
 25 26  1  0
 26 27  2  0
 26 28  1  0
 28 29  2  0
 29 30  1  0
 29 31  1  0
 31 32  1  0
 31 33  2  0
 33 34  1  0
 33 35  1  0
 35 36  1  0
 35 37  2  0
 37 38  1  0
 38 39  2  0
 20  2  1  0
 38 25  1  0
 12  4  1  0
 37 28  1  0
M  END
>  <cnnaffinity>  (1) 
-5.52239

>  <filename>  (1) 
O=C1c2ccccc2C(=O)N1C[C@@H]1C=C(c2cccnc2)CC1

$$$$
