
     RDKit          3D

 43 47  0  0  0  0  0  0  0  0999 V2000
   10.0911    6.1644   24.5414 O   0  0  0  0  0  0  0  0  0  0  0  0
    9.5315    5.0829   24.6280 C   0  0  0  0  0  0  0  0  0  0  0  0
    9.4072    4.0734   23.6130 C   0  0  0  0  0  0  0  0  0  0  0  0
    8.7844    2.8834   23.8759 C   0  0  0  0  0  0  0  0  0  0  0  0
    8.7426    1.8671   22.8705 N   0  0  0  0  0  0  0  0  0  0  0  0
    7.7117    0.9845   22.7169 N   0  0  0  0  0  0  0  0  0  0  0  0
    8.0565    0.3286   21.6298 C   0  0  0  0  0  0  0  0  0  0  0  0
    7.2228   -0.7264   20.9726 C   0  0  0  0  0  0  0  0  0  0  0  0
    6.4709   -0.1261   19.8000 C   0  0  0  0  0  0  0  0  0  0  0  0
    5.2944    0.5913   20.0314 C   0  0  0  0  0  0  0  0  0  0  0  0
    4.7328    1.3194   18.9813 C   0  0  0  0  0  0  0  0  0  0  0  0
    5.3761    1.3032   17.7387 C   0  0  0  0  0  0  0  0  0  0  0  0
    6.5015    0.6151   17.4922 N   0  0  0  0  0  0  0  0  0  0  0  0
    7.0290   -0.0729   18.5117 C   0  0  0  0  0  0  0  0  0  0  0  0
    7.9758   -0.5818   18.3233 H   0  0  0  0  0  0  0  0  0  0  0  0
    4.9767    1.8726   16.9020 H   0  0  0  0  0  0  0  0  0  0  0  0
    3.8411    1.9196   19.1219 H   0  0  0  0  0  0  0  0  0  0  0  0
    4.8578    0.6000   21.0327 H   0  0  0  0  0  0  0  0  0  0  0  0
    7.9029   -1.5183   20.6421 H   0  0  0  0  0  0  0  0  0  0  0  0
    6.5380   -1.1387   21.7183 H   0  0  0  0  0  0  0  0  0  0  0  0
    9.2313    0.7109   21.0641 N   0  0  0  0  0  0  0  0  0  0  0  0
    9.6630    1.6403   21.8802 C   0  0  0  0  0  0  0  0  0  0  0  0
   11.0181    2.1979   21.8992 C   0  0  0  0  0  0  0  0  0  0  0  0
   11.5762    3.0147   20.9168 C   0  0  0  0  0  0  0  0  0  0  0  0
   12.7077    3.8028   21.1843 C   0  0  0  0  0  0  0  0  0  0  0  0
   13.4444    3.5861   22.3416 C   0  0  0  0  0  0  0  0  0  0  0  0
   14.5426    4.3077   22.5960 F   0  0  0  0  0  0  0  0  0  0  0  0
   13.0174    2.5587   23.1958 C   0  0  0  0  0  0  0  0  0  0  0  0
   11.7800    1.9361   23.0540 C   0  0  0  0  0  0  0  0  0  0  0  0
   11.6558    1.0149   24.1637 C   0  0  0  0  0  0  0  0  0  0  0  0
   12.8366    1.0864   24.8005 C   0  0  0  0  0  0  0  0  0  0  0  0
   13.6694    2.0003   24.2289 O   0  0  0  0  0  0  0  0  0  0  0  0
   13.2730    0.5559   25.6364 H   0  0  0  0  0  0  0  0  0  0  0  0
   10.7833    0.4214   24.4169 H   0  0  0  0  0  0  0  0  0  0  0  0
   13.0435    4.5572   20.4861 H   0  0  0  0  0  0  0  0  0  0  0  0
   11.1117    3.0773   19.9484 H   0  0  0  0  0  0  0  0  0  0  0  0
    8.1866    2.6424   25.1624 C   0  0  0  0  0  0  0  0  0  0  0  0
    8.2880    3.5971   26.1281 C   0  0  0  0  0  0  0  0  0  0  0  0
    8.9366    4.7652   25.8484 N   0  0  0  0  0  0  0  0  0  0  0  0
    9.0634    5.5426   26.4787 H   0  0  0  0  0  0  0  0  0  0  0  0
    7.8780    3.4830   27.1310 H   0  0  0  0  0  0  0  0  0  0  0  0
    7.6368    1.7280   25.3519 H   0  0  0  0  0  0  0  0  0  0  0  0
    9.8170    4.3460   22.6556 H   0  0  0  0  0  0  0  0  0  0  0  0
  1  2  2  0
  2  3  1  0
  3  4  2  0
  4  5  1  0
  5  6  1  0
  6  7  2  0
  7  8  1  0
  8  9  1  0
  9 10  2  0
 10 11  1  0
 11 12  2  0
 12 13  1  0
 13 14  2  0
 14 15  1  0
 12 16  1  0
 11 17  1  0
 10 18  1  0
  8 19  1  0
  8 20  1  0
  7 21  1  0
 21 22  2  0
 22 23  1  0
 23 24  2  0
 24 25  1  0
 25 26  2  0
 26 27  1  0
 26 28  1  0
 28 29  2  0
 29 30  1  0
 30 31  2  0
 31 32  1  0
 31 33  1  0
 30 34  1  0
 25 35  1  0
 24 36  1  0
  4 37  1  0
 37 38  2  0
 38 39  1  0
 39 40  1  0
 38 41  1  0
 37 42  1  0
  3 43  1  0
 39  2  1  0
 22  5  1  0
 29 23  1  0
 14  9  1  0
 32 28  1  0
M  END
>  <cnnaffinity>  (1) 
-6.25743

>  <filename>  (1) 
O=c1cc(-n2nc(Cc3cccnc3)nc2-c2ccc(F)c3occc23)cc[nH]1

$$$$
