
     RDKit          3D

 27 29  0  0  0  0  0  0  0  0999 V2000
    3.8330    0.7303   25.2818 H   0  0  0  0  0  0  0  0  0  0  0  0
    4.8796    0.8740   25.0386 C   0  0  0  0  0  0  0  0  0  0  0  0
    5.8691    0.9015   25.9730 N   0  0  0  0  0  0  0  0  0  0  0  0
    6.9469    1.0585   25.2395 C   0  0  0  0  0  0  0  0  0  0  0  0
    7.9700    1.1421   25.5924 H   0  0  0  0  0  0  0  0  0  0  0  0
    6.6332    1.1234   23.9299 N   0  0  0  0  0  0  0  0  0  0  0  0
    7.5247    1.1446   22.7790 C   0  0  0  0  0  0  0  0  0  0  0  0
    8.4519    1.6206   23.1031 H   0  0  0  0  0  0  0  0  0  0  0  0
    7.0541    1.7676   22.0201 H   0  0  0  0  0  0  0  0  0  0  0  0
    7.8134   -0.1537   22.1927 N   0  0  0  0  0  0  0  0  0  0  0  0
    7.3515   -0.6941   20.9751 C   0  0  0  0  0  0  0  0  0  0  0  0
    6.6442    0.0674   19.9191 C   0  0  0  0  0  0  0  0  0  0  0  0
    7.1458    0.0881   18.5991 C   0  0  0  0  0  0  0  0  0  0  0  0
    8.0858   -0.4058   18.3558 H   0  0  0  0  0  0  0  0  0  0  0  0
    6.5396    0.6910   17.5677 N   0  0  0  0  0  0  0  0  0  0  0  0
    5.3795    1.3142   17.8197 C   0  0  0  0  0  0  0  0  0  0  0  0
    4.9179    1.8197   16.9771 H   0  0  0  0  0  0  0  0  0  0  0  0
    4.7735    1.3463   19.0786 C   0  0  0  0  0  0  0  0  0  0  0  0
    3.8260    1.8618   19.2010 H   0  0  0  0  0  0  0  0  0  0  0  0
    5.4198    0.7266   20.1515 C   0  0  0  0  0  0  0  0  0  0  0  0
    4.9828    0.7261   21.1546 H   0  0  0  0  0  0  0  0  0  0  0  0
    7.6811   -1.9943   21.0211 C   0  0  0  0  0  0  0  0  0  0  0  0
    7.4303   -2.8282   20.3882 H   0  0  0  0  0  0  0  0  0  0  0  0
    8.3474   -2.2885   22.1831 O   0  0  0  0  0  0  0  0  0  0  0  0
    8.4227   -1.1494   22.9360 C   0  0  0  0  0  0  0  0  0  0  0  0
    8.9216   -1.0672   24.0293 O   0  0  0  0  0  0  0  0  0  0  0  0
    5.2904    1.0280   23.7926 N   0  0  0  0  0  0  0  0  0  0  0  0
  1  2  1  0
  2  3  1  0
  3  4  2  0
  4  5  1  0
  4  6  1  0
  6  7  1  0
  7  8  1  0
  7  9  1  0
  7 10  1  0
 10 11  1  0
 11 12  1  0
 12 13  2  0
 13 14  1  0
 13 15  1  0
 15 16  2  0
 16 17  1  0
 16 18  1  0
 18 19  1  0
 18 20  2  0
 20 21  1  0
 11 22  2  0
 22 23  1  0
 22 24  1  0
 24 25  1  0
 25 26  2  0
  6 27  1  0
 27  2  2  0
 25 10  1  0
 20 12  1  0
M  END
>  <cnnaffinity>  (1) 
-4.52049

>  <filename>  (1) 
O=c1occ(-c2cccnc2)n1Cn1cncn1

$$$$
