
     RDKit          3D

 29 31  0  0  0  0  0  0  0  0999 V2000
    4.9222    1.7983   16.9943 H   0  0  0  0  0  0  0  0  0  0  0  0
    5.3918    1.2908   17.8315 C   0  0  0  0  0  0  0  0  0  0  0  0
    6.5477    0.6643   17.5583 N   0  0  0  0  0  0  0  0  0  0  0  0
    7.1715    0.0550   18.5714 C   0  0  0  0  0  0  0  0  0  0  0  0
    8.1274   -0.4166   18.3615 H   0  0  0  0  0  0  0  0  0  0  0  0
    6.6704    0.0148   19.8891 C   0  0  0  0  0  0  0  0  0  0  0  0
    7.3729   -0.6451   20.9334 N   0  0  0  0  0  0  0  0  0  0  0  0
    6.7745   -1.4150   21.9241 C   0  0  0  0  0  0  0  0  0  0  0  0
    5.7080   -1.5733   21.9617 H   0  0  0  0  0  0  0  0  0  0  0  0
    7.7331   -1.9063   22.7410 C   0  0  0  0  0  0  0  0  0  0  0  0
    7.6290   -2.7296   23.9534 C   0  0  0  0  0  0  0  0  0  0  0  0
    8.3973   -2.4126   25.0946 C   0  0  0  0  0  0  0  0  0  0  0  0
    9.0847   -1.5721   25.0321 H   0  0  0  0  0  0  0  0  0  0  0  0
    8.2701   -3.1246   26.2883 C   0  0  0  0  0  0  0  0  0  0  0  0
    8.8759   -2.8519   27.1493 H   0  0  0  0  0  0  0  0  0  0  0  0
    7.3620   -4.1880   26.3700 C   0  0  0  0  0  0  0  0  0  0  0  0
    7.2488   -4.7517   27.2953 H   0  0  0  0  0  0  0  0  0  0  0  0
    6.5974   -4.5382   25.2550 C   0  0  0  0  0  0  0  0  0  0  0  0
    5.8815   -5.3553   25.2857 H   0  0  0  0  0  0  0  0  0  0  0  0
    6.7397   -3.8238   24.0611 C   0  0  0  0  0  0  0  0  0  0  0  0
    5.7705   -4.3747   22.7169 Cl  0  0  0  0  0  0  0  0  0  0  0  0
    8.9363   -1.4113   22.2508 N   0  0  0  0  0  0  0  0  0  0  0  0
    9.8792   -1.5704   22.5399 H   0  0  0  0  0  0  0  0  0  0  0  0
    8.7654   -0.6438   21.1335 C   0  0  0  0  0  0  0  0  0  0  0  0
    9.6519   -0.1141   20.5008 O   0  0  0  0  0  0  0  0  0  0  0  0
    5.4498    0.6466   20.1552 C   0  0  0  0  0  0  0  0  0  0  0  0
    5.0366    0.6394   21.1681 H   0  0  0  0  0  0  0  0  0  0  0  0
    4.8082    1.3062   19.1033 C   0  0  0  0  0  0  0  0  0  0  0  0
    3.8784    1.8365   19.2627 H   0  0  0  0  0  0  0  0  0  0  0  0
  1  2  1  0
  2  3  2  0
  3  4  1  0
  4  5  1  0
  4  6  2  0
  6  7  1  0
  7  8  1  0
  8  9  1  0
  8 10  2  0
 10 11  1  0
 11 12  2  0
 12 13  1  0
 12 14  1  0
 14 15  1  0
 14 16  2  0
 16 17  1  0
 16 18  1  0
 18 19  1  0
 18 20  2  0
 20 21  1  0
 10 22  1  0
 22 23  1  0
 22 24  1  0
 24 25  2  0
  6 26  1  0
 26 27  1  0
 26 28  2  0
 28 29  1  0
 28  2  1  0
 24  7  1  0
 20 11  1  0
M  END
>  <cnnaffinity>  (1) 
-5.51867

>  <filename>  (1) 
O=c1[nH]c(-c2ccccc2Cl)cn1-c1cccnc1

$$$$
