
     RDKit          3D

 34 36  0  0  0  0  0  0  0  0999 V2000
    7.5862   -4.4672   24.0532 H   0  0  0  0  0  0  0  0  0  0  0  0
    6.5761   -4.0756   24.2110 C   0  0  0  0  0  0  0  0  0  0  0  0
    6.2322   -2.9138   23.6325 C   0  0  0  0  0  0  0  0  0  0  0  0
    5.2652   -2.4628   23.8283 H   0  0  0  0  0  0  0  0  0  0  0  0
    7.1316   -2.0913   22.7808 C   0  0  0  0  0  0  0  0  0  0  0  0
    6.5489   -1.4212   21.8194 N   0  0  0  0  0  0  0  0  0  0  0  0
    7.3369   -0.6991   20.9550 N   0  0  0  0  0  0  0  0  0  0  0  0
    6.6588    0.0026   19.9092 C   0  0  0  0  0  0  0  0  0  0  0  0
    7.1759    0.0617   18.6014 C   0  0  0  0  0  0  0  0  0  0  0  0
    8.1150   -0.4366   18.3740 H   0  0  0  0  0  0  0  0  0  0  0  0
    6.5660    0.6751   17.5797 N   0  0  0  0  0  0  0  0  0  0  0  0
    5.4023    1.2948   17.8380 C   0  0  0  0  0  0  0  0  0  0  0  0
    4.9165    1.7810   16.9935 H   0  0  0  0  0  0  0  0  0  0  0  0
    4.8114    1.3131   19.1089 C   0  0  0  0  0  0  0  0  0  0  0  0
    3.8766    1.8428   19.2618 H   0  0  0  0  0  0  0  0  0  0  0  0
    5.4405    0.6473   20.1657 C   0  0  0  0  0  0  0  0  0  0  0  0
    5.0271    0.6067   21.1748 H   0  0  0  0  0  0  0  0  0  0  0  0
    8.7104   -0.6012   21.1134 C   0  0  0  0  0  0  0  0  0  0  0  0
    9.2246    0.0379   20.3928 H   0  0  0  0  0  0  0  0  0  0  0  0
    9.3712   -1.2285   22.0992 C   0  0  0  0  0  0  0  0  0  0  0  0
   10.4430   -1.1583   22.2509 H   0  0  0  0  0  0  0  0  0  0  0  0
    8.6294   -2.0391   23.0590 C   0  0  0  0  0  0  0  0  0  0  0  0
    9.1918   -2.6109   23.9903 O   0  0  0  0  0  0  0  0  0  0  0  0
    5.7006   -4.8826   25.0796 C   0  0  0  0  0  0  0  0  0  0  0  0
    4.3025   -4.7082   25.1146 C   0  0  0  0  0  0  0  0  0  0  0  0
    3.8356   -3.9686   24.4676 H   0  0  0  0  0  0  0  0  0  0  0  0
    3.5056   -5.4927   25.9494 C   0  0  0  0  0  0  0  0  0  0  0  0
    2.4283   -5.3422   25.9581 H   0  0  0  0  0  0  0  0  0  0  0  0
    4.0884   -6.4664   26.7685 C   0  0  0  0  0  0  0  0  0  0  0  0
    3.4658   -7.0753   27.4190 H   0  0  0  0  0  0  0  0  0  0  0  0
    5.4764   -6.6554   26.7448 C   0  0  0  0  0  0  0  0  0  0  0  0
    5.9333   -7.4146   27.3773 H   0  0  0  0  0  0  0  0  0  0  0  0
    6.2729   -5.8717   25.9054 C   0  0  0  0  0  0  0  0  0  0  0  0
    7.3518   -6.0212   25.8956 H   0  0  0  0  0  0  0  0  0  0  0  0
  1  2  1  0
  2  3  2  3
  3  4  1  0
  3  5  1  0
  5  6  2  0
  6  7  1  0
  7  8  1  0
  8  9  2  0
  9 10  1  0
  9 11  1  0
 11 12  2  0
 12 13  1  0
 12 14  1  0
 14 15  1  0
 14 16  2  0
 16 17  1  0
  7 18  1  0
 18 19  1  0
 18 20  2  0
 20 21  1  0
 20 22  1  0
 22 23  2  0
  2 24  1  0
 24 25  2  0
 25 26  1  0
 25 27  1  0
 27 28  1  0
 27 29  2  0
 29 30  1  0
 29 31  1  0
 31 32  1  0
 31 33  2  0
 33 34  1  0
 22  5  1  0
 33 24  1  0
 16  8  1  0
M  END
>  <cnnaffinity>  (1) 
-5.31842

>  <filename>  (1) 
O=c1ccn(-c2cccnc2)nc1C=Cc1ccccc1

$$$$
