
     RDKit          3D

 34 36  0  0  0  0  0  0  0  0999 V2000
    8.5092    0.5493   25.3302 H   0  0  0  0  0  0  0  0  0  0  0  0
    8.4131   -0.5032   25.0806 C   0  0  0  0  0  0  0  0  0  0  0  0
    8.4273   -1.3919   26.0934 C   0  0  0  0  0  0  0  0  0  0  0  0
    8.8292   -1.0466   27.0484 H   0  0  0  0  0  0  0  0  0  0  0  0
    7.9917   -2.8126   26.0990 C   0  0  0  0  0  0  0  0  0  0  0  0
    6.8496   -3.2609   25.4096 C   0  0  0  0  0  0  0  0  0  0  0  0
    6.2548   -2.5400   24.8528 H   0  0  0  0  0  0  0  0  0  0  0  0
    6.4967   -4.6144   25.4222 C   0  0  0  0  0  0  0  0  0  0  0  0
    5.6344   -4.9470   24.8487 H   0  0  0  0  0  0  0  0  0  0  0  0
    7.2556   -5.5318   26.1569 C   0  0  0  0  0  0  0  0  0  0  0  0
    6.9758   -6.5834   26.1726 H   0  0  0  0  0  0  0  0  0  0  0  0
    8.3789   -5.0943   26.8722 C   0  0  0  0  0  0  0  0  0  0  0  0
    8.9656   -5.8003   27.4590 H   0  0  0  0  0  0  0  0  0  0  0  0
    8.7421   -3.7464   26.8373 C   0  0  0  0  0  0  0  0  0  0  0  0
    9.6222   -3.4048   27.3754 H   0  0  0  0  0  0  0  0  0  0  0  0
    8.2855   -0.8257   23.6557 C   0  0  0  0  0  0  0  0  0  0  0  0
    7.6037    0.4410   22.6342 S   0  0  0  0  0  0  0  0  0  0  0  0
    7.3103   -0.4229   21.1328 C   0  0  0  0  0  0  0  0  0  0  0  0
    6.6017    0.2895   20.0300 C   0  0  0  0  0  0  0  0  0  0  0  0
    7.1582    0.2769   18.7354 C   0  0  0  0  0  0  0  0  0  0  0  0
    8.1290   -0.1851   18.5562 H   0  0  0  0  0  0  0  0  0  0  0  0
    6.5748    0.8017   17.6525 N   0  0  0  0  0  0  0  0  0  0  0  0
    5.3662    1.3585   17.8142 C   0  0  0  0  0  0  0  0  0  0  0  0
    4.9074    1.7572   16.9104 H   0  0  0  0  0  0  0  0  0  0  0  0
    4.7129    1.4237   19.0462 C   0  0  0  0  0  0  0  0  0  0  0  0
    3.7388    1.8964   19.0977 H   0  0  0  0  0  0  0  0  0  0  0  0
    5.3457    0.8994   20.1793 C   0  0  0  0  0  0  0  0  0  0  0  0
    4.8720    0.9600   21.1564 H   0  0  0  0  0  0  0  0  0  0  0  0
    7.7308   -1.6793   20.9164 C   0  0  0  0  0  0  0  0  0  0  0  0
    7.5740   -2.1134   19.9464 H   0  0  0  0  0  0  0  0  0  0  0  0
    8.3632   -2.5701   21.8752 C   0  0  0  0  0  0  0  0  0  0  0  0
    8.5926   -3.7343   21.5747 O   0  0  0  0  0  0  0  0  0  0  0  0
    8.7151   -2.0203   23.1710 C   0  0  0  0  0  0  0  0  0  0  0  0
    9.2362   -2.7119   23.8181 H   0  0  0  0  0  0  0  0  0  0  0  0
  1  2  1  0
  2  3  2  3
  3  4  1  0
  3  5  1  0
  5  6  2  0
  6  7  1  0
  6  8  1  0
  8  9  1  0
  8 10  2  0
 10 11  1  0
 10 12  1  0
 12 13  1  0
 12 14  2  0
 14 15  1  0
  2 16  1  0
 16 17  1  0
 17 18  1  0
 18 19  1  0
 19 20  2  0
 20 21  1  0
 20 22  1  0
 22 23  2  0
 23 24  1  0
 23 25  1  0
 25 26  1  0
 25 27  2  0
 27 28  1  0
 18 29  2  0
 29 30  1  0
 29 31  1  0
 31 32  2  0
 31 33  1  0
 33 34  1  0
 14  5  1  0
 33 16  2  0
 27 19  1  0
M  END
>  <cnnaffinity>  (1) 
-5.61661

>  <filename>  (1) 
O=c1cc(C=Cc2ccccc2)sc(-c2cccnc2)c1

$$$$
