
     RDKit          3D

 38 41  0  0  0  0  0  0  0  0999 V2000
    4.9452    1.7878   16.8855 H   0  0  0  0  0  0  0  0  0  0  0  0
    5.4108    1.3378   17.7594 C   0  0  0  0  0  0  0  0  0  0  0  0
    6.5742    0.7029   17.5438 N   0  0  0  0  0  0  0  0  0  0  0  0
    7.1554    0.0962   18.5851 C   0  0  0  0  0  0  0  0  0  0  0  0
    8.0890   -0.4343   18.3910 H   0  0  0  0  0  0  0  0  0  0  0  0
    6.6215    0.1169   19.8895 C   0  0  0  0  0  0  0  0  0  0  0  0
    7.2504   -0.6077   20.9711 N   0  0  0  0  0  0  0  0  0  0  0  0
    7.3445   -1.9935   20.8894 C   0  0  0  0  0  0  0  0  0  0  0  0
    6.8699   -2.4338   20.0094 H   0  0  0  0  0  0  0  0  0  0  0  0
    7.9674   -2.7197   21.8414 C   0  0  0  0  0  0  0  0  0  0  0  0
    8.1022   -4.2101   21.7888 C   0  0  0  0  0  0  0  0  0  0  0  0
    8.9572   -4.5257   22.3981 H   0  0  0  0  0  0  0  0  0  0  0  0
    8.2527   -4.5562   20.7559 H   0  0  0  0  0  0  0  0  0  0  0  0
    6.9362   -4.8784   22.3422 N   0  0  0  0  0  0  0  0  0  0  0  0
    5.7237   -5.0467   21.6795 C   0  0  0  0  0  0  0  0  0  0  0  0
    5.5458   -4.8212   20.5031 O   0  0  0  0  0  0  0  0  0  0  0  0
    4.7609   -5.5719   22.7015 C   0  0  0  0  0  0  0  0  0  0  0  0
    3.4089   -5.9116   22.6165 C   0  0  0  0  0  0  0  0  0  0  0  0
    2.8666   -5.8376   21.6790 H   0  0  0  0  0  0  0  0  0  0  0  0
    2.7745   -6.3690   23.7766 C   0  0  0  0  0  0  0  0  0  0  0  0
    1.7161   -6.6120   23.7284 H   0  0  0  0  0  0  0  0  0  0  0  0
    3.4820   -6.5019   24.9896 C   0  0  0  0  0  0  0  0  0  0  0  0
    2.9613   -6.8727   25.8660 H   0  0  0  0  0  0  0  0  0  0  0  0
    4.8389   -6.1747   25.0647 C   0  0  0  0  0  0  0  0  0  0  0  0
    5.4072   -6.2917   25.9839 H   0  0  0  0  0  0  0  0  0  0  0  0
    5.4550   -5.7105   23.9029 C   0  0  0  0  0  0  0  0  0  0  0  0
    6.8661   -5.3172   23.6625 C   0  0  0  0  0  0  0  0  0  0  0  0
    7.8174   -5.3941   24.4010 O   0  0  0  0  0  0  0  0  0  0  0  0
    8.5838   -2.0351   22.9881 C   0  0  0  0  0  0  0  0  0  0  0  0
    9.2897   -2.5143   23.8455 O   0  0  0  0  0  0  0  0  0  0  0  0
    8.3177   -0.6973   23.0420 N   0  0  0  0  0  0  0  0  0  0  0  0
    8.6638   -0.1984   23.8356 H   0  0  0  0  0  0  0  0  0  0  0  0
    7.6639    0.0703   22.1384 C   0  0  0  0  0  0  0  0  0  0  0  0
    7.4978    1.2452   22.3668 O   0  0  0  0  0  0  0  0  0  0  0  0
    5.4408    0.8298   20.1160 C   0  0  0  0  0  0  0  0  0  0  0  0
    5.0463    0.9205   21.1274 H   0  0  0  0  0  0  0  0  0  0  0  0
    4.8083    1.4219   19.0188 C   0  0  0  0  0  0  0  0  0  0  0  0
    3.8686    1.9487   19.1324 H   0  0  0  0  0  0  0  0  0  0  0  0
  1  2  1  0
  2  3  2  0
  3  4  1  0
  4  5  1  0
  4  6  2  0
  6  7  1  0
  7  8  1  0
  8  9  1  0
  8 10  2  0
 10 11  1  0
 11 12  1  0
 11 13  1  0
 11 14  1  0
 14 15  1  0
 15 16  2  0
 15 17  1  0
 17 18  2  0
 18 19  1  0
 18 20  1  0
 20 21  1  0
 20 22  2  0
 22 23  1  0
 22 24  1  0
 24 25  1  0
 24 26  2  0
 26 27  1  0
 27 28  2  0
 10 29  1  0
 29 30  2  0
 29 31  1  0
 31 32  1  0
 31 33  1  0
 33 34  2  0
  6 35  1  0
 35 36  1  0
 35 37  2  0
 37 38  1  0
 37  2  1  0
 33  7  1  0
 27 14  1  0
 26 17  1  0
M  END
>  <cnnaffinity>  (1) 
-5.02946

>  <filename>  (1) 
O=C1c2ccccc2C(=O)N1Cc1cn(-c2cccnc2)c(=O)[nH]c1=O

$$$$
