
     RDKit          3D

 36 38  0  0  0  0  0  0  0  0999 V2000
    5.6066   -2.4772   20.9183 O   0  0  0  0  0  0  0  0  0  0  0  0
    6.6382   -1.9203   21.2449 C   0  0  0  0  0  0  0  0  0  0  0  0
    7.3829   -2.3510   22.5381 C   0  0  0  0  0  0  0  0  0  0  0  0
    8.3140   -1.3689   23.1208 N   0  0  0  0  0  0  0  0  0  0  0  0
    8.6515   -1.4281   24.4552 C   0  0  0  0  0  0  0  0  0  0  0  0
    8.6812   -2.6321   25.0342 N   0  0  0  0  0  0  0  0  0  0  0  0
    9.0819   -2.7146   26.3163 C   0  0  0  0  0  0  0  0  0  0  0  0
    9.0751   -4.1498   26.8505 C   0  0  0  0  0  0  0  0  0  0  0  0
   10.3062   -4.5733   27.2567 F   0  0  0  0  0  0  0  0  0  0  0  0
    8.2510   -4.2713   27.9337 F   0  0  0  0  0  0  0  0  0  0  0  0
    8.7313   -4.8095   26.0445 H   0  0  0  0  0  0  0  0  0  0  0  0
    9.4398   -1.5830   27.0675 C   0  0  0  0  0  0  0  0  0  0  0  0
    9.3502   -0.3282   26.4590 C   0  0  0  0  0  0  0  0  0  0  0  0
    8.9288   -0.2360   25.1484 C   0  0  0  0  0  0  0  0  0  0  0  0
    8.7463    0.7074   24.6511 H   0  0  0  0  0  0  0  0  0  0  0  0
    9.6278    0.5733   26.9948 H   0  0  0  0  0  0  0  0  0  0  0  0
    9.7869   -1.6265   28.0862 H   0  0  0  0  0  0  0  0  0  0  0  0
    8.8313   -0.2819   22.2880 C   0  0  0  0  0  0  0  0  0  0  0  0
    8.6705   -0.6071   20.8056 C   0  0  0  0  0  0  0  0  0  0  0  0
    7.2749   -0.9333   20.4863 N   0  0  0  0  0  0  0  0  0  0  0  0
    6.5866   -0.1343   19.5137 C   0  0  0  0  0  0  0  0  0  0  0  0
    5.3766    0.5044   19.8196 C   0  0  0  0  0  0  0  0  0  0  0  0
    4.7970    1.3351   18.8539 C   0  0  0  0  0  0  0  0  0  0  0  0
    5.4250    1.4870   17.6139 C   0  0  0  0  0  0  0  0  0  0  0  0
    6.5851    0.8838   17.3061 N   0  0  0  0  0  0  0  0  0  0  0  0
    7.1538    0.1183   18.2441 C   0  0  0  0  0  0  0  0  0  0  0  0
    8.1139   -0.3283   17.9853 H   0  0  0  0  0  0  0  0  0  0  0  0
    4.9876    2.1194   16.8425 H   0  0  0  0  0  0  0  0  0  0  0  0
    3.8795    1.8753   19.0562 H   0  0  0  0  0  0  0  0  0  0  0  0
    4.9296    0.3703   20.8041 H   0  0  0  0  0  0  0  0  0  0  0  0
    8.9774    0.2616   20.2224 H   0  0  0  0  0  0  0  0  0  0  0  0
    9.3376   -1.4363   20.5423 H   0  0  0  0  0  0  0  0  0  0  0  0
    8.3075    0.6605   22.4998 H   0  0  0  0  0  0  0  0  0  0  0  0
    9.8961   -0.1197   22.4997 H   0  0  0  0  0  0  0  0  0  0  0  0
    6.6060   -2.6315   23.2578 H   0  0  0  0  0  0  0  0  0  0  0  0
    7.9039   -3.2852   22.2864 H   0  0  0  0  0  0  0  0  0  0  0  0
  1  2  2  0
  2  3  1  0
  3  4  1  0
  4  5  1  0
  5  6  2  0
  6  7  1  0
  7  8  1  0
  8  9  1  0
  8 10  1  0
  8 11  1  0
  7 12  2  0
 12 13  1  0
 13 14  2  0
 14 15  1  0
 13 16  1  0
 12 17  1  0
  4 18  1  0
 18 19  1  0
 19 20  1  0
 20 21  1  0
 21 22  2  0
 22 23  1  0
 23 24  2  0
 24 25  1  0
 25 26  2  0
 26 27  1  0
 24 28  1  0
 23 29  1  0
 22 30  1  0
 19 31  1  0
 19 32  1  0
 18 33  1  0
 18 34  1  0
  3 35  1  0
  3 36  1  0
 20  2  1  0
 26 21  1  0
 14  5  1  0
M  END
>  <cnnaffinity>  (1) 
-4.87289

>  <filename>  (1) 
O=C1CN(c2cccc(C(F)F)n2)CCN1c1cccnc1

$$$$
