
     RDKit          3D

 26 28  0  0  0  0  0  0  0  0999 V2000
    9.5665    0.5625   19.7761 H   0  0  0  0  0  0  0  0  0  0  0  0
    9.5542    0.5412   20.8670 C   0  0  0  0  0  0  0  0  0  0  0  0
   10.3088    1.4307   21.5556 C   0  0  0  0  0  0  0  0  0  0  0  0
   11.5445    2.4675   20.8473 S   0  0  0  0  0  0  0  0  0  0  0  0
   11.8239    3.3225   22.3785 C   0  0  0  0  0  0  0  0  0  0  0  0
   12.8150    4.5902   22.6401 S   0  0  0  0  0  0  0  0  0  0  0  0
   11.0597    2.7346   23.3322 N   0  0  0  0  0  0  0  0  0  0  0  0
   10.9990    3.0751   24.2758 H   0  0  0  0  0  0  0  0  0  0  0  0
   10.1255    1.7823   22.9932 C   0  0  0  0  0  0  0  0  0  0  0  0
    9.3140    1.3922   23.7936 O   0  0  0  0  0  0  0  0  0  0  0  0
    8.6485   -0.4572   21.4121 C   0  0  0  0  0  0  0  0  0  0  0  0
    8.9942   -1.5741   22.6871 S   0  0  0  0  0  0  0  0  0  0  0  0
    7.5009   -2.3193   22.6411 N   0  0  0  0  0  0  0  0  0  0  0  0
    6.7641   -1.7564   21.7308 C   0  0  0  0  0  0  0  0  0  0  0  0
    5.7497   -2.1140   21.5773 H   0  0  0  0  0  0  0  0  0  0  0  0
    7.3601   -0.7119   20.9599 C   0  0  0  0  0  0  0  0  0  0  0  0
    6.6645    0.0232   19.8885 C   0  0  0  0  0  0  0  0  0  0  0  0
    7.1684    0.0829   18.5745 C   0  0  0  0  0  0  0  0  0  0  0  0
    8.1086   -0.4195   18.3489 H   0  0  0  0  0  0  0  0  0  0  0  0
    6.5544    0.6919   17.5509 N   0  0  0  0  0  0  0  0  0  0  0  0
    5.3908    1.3071   17.8168 C   0  0  0  0  0  0  0  0  0  0  0  0
    4.9141    1.8050   16.9739 H   0  0  0  0  0  0  0  0  0  0  0  0
    4.7983    1.3175   19.0853 C   0  0  0  0  0  0  0  0  0  0  0  0
    3.8661    1.8498   19.2353 H   0  0  0  0  0  0  0  0  0  0  0  0
    5.4367    0.6538   20.1338 C   0  0  0  0  0  0  0  0  0  0  0  0
    5.0173    0.6331   21.1411 H   0  0  0  0  0  0  0  0  0  0  0  0
  1  2  1  0
  2  3  2  3
  3  4  1  0
  4  5  1  0
  5  6  2  0
  5  7  1  0
  7  8  1  0
  7  9  1  0
  9 10  2  0
  2 11  1  0
 11 12  1  0
 12 13  1  0
 13 14  2  0
 14 15  1  0
 14 16  1  0
 16 17  1  0
 17 18  2  0
 18 19  1  0
 18 20  1  0
 20 21  2  0
 21 22  1  0
 21 23  1  0
 23 24  1  0
 23 25  2  0
 25 26  1  0
  9  3  1  0
 16 11  2  0
 25 17  1  0
M  END
>  <cnnaffinity>  (1) 
-5.22918

>  <filename>  (1) 
O=C1NC(=S)SC1=Cc1sncc1-c1cccnc1

$$$$
