
     RDKit          3D

 35 37  0  0  0  0  0  0  0  0999 V2000
    4.9864    1.8408   17.0413 H   0  0  0  0  0  0  0  0  0  0  0  0
    5.4779    1.3047   17.8489 C   0  0  0  0  0  0  0  0  0  0  0  0
    6.6494    0.7250   17.5416 N   0  0  0  0  0  0  0  0  0  0  0  0
    7.2770    0.0543   18.5159 C   0  0  0  0  0  0  0  0  0  0  0  0
    8.2307   -0.4043   18.2600 H   0  0  0  0  0  0  0  0  0  0  0  0
    6.7606   -0.1122   19.8189 C   0  0  0  0  0  0  0  0  0  0  0  0
    7.4469   -0.8741   20.8110 N   0  0  0  0  0  0  0  0  0  0  0  0
    6.8171   -1.7709   21.6676 C   0  0  0  0  0  0  0  0  0  0  0  0
    5.7067   -2.2197   21.5225 O   0  0  0  0  0  0  0  0  0  0  0  0
    7.7755   -2.0806   22.7970 C   0  0  0  0  0  0  0  0  0  0  0  0
    7.4164   -1.5063   23.6552 H   0  0  0  0  0  0  0  0  0  0  0  0
    7.7396   -3.1352   23.0728 H   0  0  0  0  0  0  0  0  0  0  0  0
    9.1395   -1.6005   22.3051 C   0  0  0  0  0  0  0  0  0  0  0  0
    9.7767   -2.4174   21.9655 H   0  0  0  0  0  0  0  0  0  0  0  0
    9.7014   -1.0868   23.0874 H   0  0  0  0  0  0  0  0  0  0  0  0
    8.8553   -0.6648   21.1092 C   0  0  2  0  0  0  0  0  0  0  0  0
    9.4636   -0.9267   20.2365 H   0  0  0  0  0  0  0  0  0  0  0  0
    9.1898    0.6785   21.3496 O   0  0  0  0  0  0  0  0  0  0  0  0
    8.4643    1.4235   22.3340 C   0  0  0  0  0  0  0  0  0  0  0  0
    8.1156    0.7798   23.1547 H   0  0  0  0  0  0  0  0  0  0  0  0
    7.5781    1.8647   21.8573 H   0  0  0  0  0  0  0  0  0  0  0  0
    9.3702    2.5156   22.8923 C   0  0  0  0  0  0  0  0  0  0  0  0
    9.2580    3.8518   22.4796 C   0  0  0  0  0  0  0  0  0  0  0  0
    8.4809    4.1508   21.7792 H   0  0  0  0  0  0  0  0  0  0  0  0
   10.1966    4.7964   22.9224 C   0  0  0  0  0  0  0  0  0  0  0  0
   10.1330    5.8298   22.5820 H   0  0  0  0  0  0  0  0  0  0  0  0
   11.1964    4.5076   23.7690 N   0  0  0  0  0  0  0  0  0  0  0  0
   11.2742    3.2407   24.1999 C   0  0  0  0  0  0  0  0  0  0  0  0
   12.0620    3.0077   24.9127 H   0  0  0  0  0  0  0  0  0  0  0  0
   10.3933    2.2280   23.8137 C   0  0  0  0  0  0  0  0  0  0  0  0
   10.5032    1.2466   24.2717 H   0  0  0  0  0  0  0  0  0  0  0  0
    5.5469    0.5199   20.1291 C   0  0  0  0  0  0  0  0  0  0  0  0
    5.1363    0.4390   21.1369 H   0  0  0  0  0  0  0  0  0  0  0  0
    4.8977    1.2442   19.1225 C   0  0  0  0  0  0  0  0  0  0  0  0
    3.9639    1.7659   19.3122 H   0  0  0  0  0  0  0  0  0  0  0  0
  1  2  1  0
  2  3  2  0
  3  4  1  0
  4  5  1  0
  4  6  2  0
  6  7  1  0
  7  8  1  0
  8  9  2  0
  8 10  1  0
 10 11  1  0
 10 12  1  0
 10 13  1  0
 13 14  1  0
 13 15  1  0
 13 16  1  0
 16 17  1  6
 16 18  1  0
 18 19  1  0
 19 20  1  0
 19 21  1  0
 19 22  1  0
 22 23  2  0
 23 24  1  0
 23 25  1  0
 25 26  1  0
 25 27  2  0
 27 28  1  0
 28 29  1  0
 28 30  2  0
 30 31  1  0
  6 32  1  0
 32 33  1  0
 32 34  2  0
 34 35  1  0
 34  2  1  0
 16  7  1  0
 30 22  1  0
M  END
>  <cnnaffinity>  (1) 
-4.95743

>  <filename>  (1) 
O=C1CC[C@H](OCc2ccncc2)N1c1cccnc1

$$$$
