
     RDKit          3D

 36 39  0  0  0  0  0  0  0  0999 V2000
    4.9199    1.7754   16.9992 H   0  0  0  0  0  0  0  0  0  0  0  0
    5.4057    1.2908   17.8421 C   0  0  0  0  0  0  0  0  0  0  0  0
    6.5703    0.6723   17.5866 N   0  0  0  0  0  0  0  0  0  0  0  0
    7.1707    0.0598   18.6118 C   0  0  0  0  0  0  0  0  0  0  0  0
    8.1142   -0.4304   18.3746 H   0  0  0  0  0  0  0  0  0  0  0  0
    6.6388    0.0070   19.9080 C   0  0  0  0  0  0  0  0  0  0  0  0
    7.3342   -0.7191   20.9940 C   0  0  0  0  0  0  0  0  0  0  0  0
    6.5778   -1.2937   21.9039 N   0  0  0  0  0  0  0  0  0  0  0  0
    7.1781   -1.9373   22.9591 N   0  0  0  0  0  0  0  0  0  0  0  0
    6.2891   -2.5402   23.9262 C   0  0  0  0  0  0  0  0  0  0  0  0
    6.5233   -2.3320   25.3238 C   0  0  0  0  0  0  0  0  0  0  0  0
    7.3676   -1.7327   25.6437 H   0  0  0  0  0  0  0  0  0  0  0  0
    5.6743   -2.8842   26.2533 C   0  0  0  0  0  0  0  0  0  0  0  0
    5.8390   -2.7314   27.3199 H   0  0  0  0  0  0  0  0  0  0  0  0
    4.5595   -3.6800   25.8530 C   0  0  0  0  0  0  0  0  0  0  0  0
    3.6620   -4.2666   26.7973 C   0  0  0  0  0  0  0  0  0  0  0  0
    3.8467   -4.1034   27.8587 H   0  0  0  0  0  0  0  0  0  0  0  0
    2.5913   -5.0196   26.3723 C   0  0  0  0  0  0  0  0  0  0  0  0
    1.9114   -5.4649   27.0957 H   0  0  0  0  0  0  0  0  0  0  0  0
    2.3617   -5.2241   24.9782 C   0  0  0  0  0  0  0  0  0  0  0  0
    1.5104   -5.8223   24.6617 H   0  0  0  0  0  0  0  0  0  0  0  0
    3.2083   -4.6746   24.0442 C   0  0  0  0  0  0  0  0  0  0  0  0
    3.0419   -4.8246   22.9784 H   0  0  0  0  0  0  0  0  0  0  0  0
    4.3342   -3.8943   24.4508 C   0  0  0  0  0  0  0  0  0  0  0  0
    5.2318   -3.3113   23.5052 C   0  0  0  0  0  0  0  0  0  0  0  0
    5.0498   -3.4444   22.4428 H   0  0  0  0  0  0  0  0  0  0  0  0
    8.5944   -2.1077   23.1149 C   0  0  0  0  0  0  0  0  0  0  0  0
    9.0949   -2.7473   24.0252 O   0  0  0  0  0  0  0  0  0  0  0  0
    9.3697   -1.4393   22.0703 C   0  0  0  0  0  0  0  0  0  0  0  0
   10.4441   -1.5377   22.1783 H   0  0  0  0  0  0  0  0  0  0  0  0
    8.7729   -0.7726   21.0500 C   0  0  0  0  0  0  0  0  0  0  0  0
    9.3610   -0.2530   20.2927 H   0  0  0  0  0  0  0  0  0  0  0  0
    5.4228    0.6554   20.1599 C   0  0  0  0  0  0  0  0  0  0  0  0
    5.0013    0.6235   21.1676 H   0  0  0  0  0  0  0  0  0  0  0  0
    4.8031    1.3173   19.1051 C   0  0  0  0  0  0  0  0  0  0  0  0
    3.8707    1.8476   19.2577 H   0  0  0  0  0  0  0  0  0  0  0  0
  1  2  1  0
  2  3  2  0
  3  4  1  0
  4  5  1  0
  4  6  2  0
  6  7  1  0
  7  8  2  0
  8  9  1  0
  9 10  1  0
 10 11  2  0
 11 12  1  0
 11 13  1  0
 13 14  1  0
 13 15  2  0
 15 16  1  0
 16 17  1  0
 16 18  2  0
 18 19  1  0
 18 20  1  0
 20 21  1  0
 20 22  2  0
 22 23  1  0
 22 24  1  0
 24 25  2  0
 25 26  1  0
  9 27  1  0
 27 28  2  0
 27 29  1  0
 29 30  1  0
 29 31  2  0
 31 32  1  0
  6 33  1  0
 33 34  1  0
 33 35  2  0
 35 36  1  0
 35  2  1  0
 31  7  1  0
 25 10  1  0
 24 15  1  0
M  END
>  <cnnaffinity>  (1) 
-5.19183

>  <filename>  (1) 
O=c1ccc(-c2cccnc2)nn1-c1ccc2ccccc2c1

$$$$
