
     RDKit          3D

 33 35  0  0  0  0  0  0  0  0999 V2000
    5.0091    1.8000   17.0420 H   0  0  0  0  0  0  0  0  0  0  0  0
    5.4425    1.2704   17.8889 C   0  0  0  0  0  0  0  0  0  0  0  0
    6.5950    0.6283   17.6488 N   0  0  0  0  0  0  0  0  0  0  0  0
    7.1573   -0.0287   18.6653 C   0  0  0  0  0  0  0  0  0  0  0  0
    8.0848   -0.5502   18.4210 H   0  0  0  0  0  0  0  0  0  0  0  0
    6.6120   -0.1019   19.9605 C   0  0  0  0  0  0  0  0  0  0  0  0
    7.3877   -0.8361   20.9851 C   0  0  0  0  0  0  0  0  0  0  0  0
    6.6385   -1.4805   21.9458 O   0  0  0  0  0  0  0  0  0  0  0  0
    7.2733   -2.1660   22.9455 C   0  0  0  0  0  0  0  0  0  0  0  0
    6.3431   -2.7954   23.9604 C   0  0  0  0  0  0  0  0  0  0  0  0
    5.6398   -2.0346   24.3053 H   0  0  0  0  0  0  0  0  0  0  0  0
    6.9436   -3.0658   24.8361 H   0  0  0  0  0  0  0  0  0  0  0  0
    5.5829   -4.0244   23.4795 C   0  0  0  0  0  0  0  0  0  0  0  0
    4.2014   -3.9493   23.2496 C   0  0  0  0  0  0  0  0  0  0  0  0
    3.6968   -3.0388   23.5602 H   0  0  0  0  0  0  0  0  0  0  0  0
    3.4929   -5.0094   22.6704 C   0  0  0  0  0  0  0  0  0  0  0  0
    2.4257   -4.9163   22.4718 H   0  0  0  0  0  0  0  0  0  0  0  0
    4.1647   -6.1868   22.3291 C   0  0  0  0  0  0  0  0  0  0  0  0
    3.6373   -6.9892   21.8189 H   0  0  0  0  0  0  0  0  0  0  0  0
    5.5232   -6.3321   22.6418 C   0  0  0  0  0  0  0  0  0  0  0  0
    6.0530   -7.2598   22.4289 H   0  0  0  0  0  0  0  0  0  0  0  0
    6.2092   -5.2606   23.2215 C   0  0  0  0  0  0  0  0  0  0  0  0
    7.8835   -5.5091   23.6430 Cl  0  0  0  0  0  0  0  0  0  0  0  0
    8.6139   -2.2084   23.0467 C   0  0  0  0  0  0  0  0  0  0  0  0
    9.1045   -2.7354   23.8507 H   0  0  0  0  0  0  0  0  0  0  0  0
    9.4658   -1.5438   22.0683 C   0  0  0  0  0  0  0  0  0  0  0  0
   10.6827   -1.5525   22.1394 O   0  0  0  0  0  0  0  0  0  0  0  0
    8.7344   -0.8563   21.0150 C   0  0  0  0  0  0  0  0  0  0  0  0
    9.3342   -0.3221   20.2965 H   0  0  0  0  0  0  0  0  0  0  0  0
    5.3999    0.5722   20.1952 C   0  0  0  0  0  0  0  0  0  0  0  0
    4.9476    0.5596   21.1860 H   0  0  0  0  0  0  0  0  0  0  0  0
    4.8163    1.2737   19.1392 C   0  0  0  0  0  0  0  0  0  0  0  0
    3.8892    1.8212   19.2601 H   0  0  0  0  0  0  0  0  0  0  0  0
  1  2  1  0
  2  3  2  0
  3  4  1  0
  4  5  1  0
  4  6  2  0
  6  7  1  0
  7  8  1  0
  8  9  1  0
  9 10  1  0
 10 11  1  0
 10 12  1  0
 10 13  1  0
 13 14  2  0
 14 15  1  0
 14 16  1  0
 16 17  1  0
 16 18  2  0
 18 19  1  0
 18 20  1  0
 20 21  1  0
 20 22  2  0
 22 23  1  0
  9 24  2  0
 24 25  1  0
 24 26  1  0
 26 27  2  0
 26 28  1  0
 28 29  1  0
  6 30  1  0
 30 31  1  0
 30 32  2  0
 32 33  1  0
 32  2  1  0
 28  7  2  0
 22 13  1  0
M  END
>  <cnnaffinity>  (1) 
-5.53937

>  <filename>  (1) 
O=c1cc(Cc2ccccc2Cl)oc(-c2cccnc2)c1

$$$$
