
     RDKit          3D

 32 35  0  0  0  0  0  0  0  0999 V2000
    5.1250    2.2274   16.7583 H   0  0  0  0  0  0  0  0  0  0  0  0
    5.5294    1.5611   17.5195 C   0  0  0  0  0  0  0  0  0  0  0  0
    6.6905    0.9599   17.2137 N   0  0  0  0  0  0  0  0  0  0  0  0
    7.2375    0.1733   18.1470 C   0  0  0  0  0  0  0  0  0  0  0  0
    8.1755   -0.3089   17.8714 H   0  0  0  0  0  0  0  0  0  0  0  0
    6.6706   -0.0755   19.4166 C   0  0  0  0  0  0  0  0  0  0  0  0
    7.3946   -0.8683   20.4381 C   0  0  0  0  0  0  0  0  0  0  0  0
    8.6967   -0.7247   20.7739 C   0  0  0  0  0  0  0  0  0  0  0  0
    9.4113   -0.0365   20.3452 H   0  0  0  0  0  0  0  0  0  0  0  0
    9.0738   -1.5220   21.8483 N   0  0  0  0  0  0  0  0  0  0  0  0
    9.9217   -2.0846   21.7307 H   0  0  0  0  0  0  0  0  0  0  0  0
    7.9386   -2.3091   22.1327 N   0  0  0  0  0  0  0  0  0  0  0  0
    7.7624   -2.8255   23.4371 C   0  0  0  0  0  0  0  0  0  0  0  0
    7.1259   -3.9961   23.6809 C   0  0  0  0  0  0  0  0  0  0  0  0
    6.6562   -4.6113   22.9288 H   0  0  0  0  0  0  0  0  0  0  0  0
    7.1648   -4.4712   25.3409 S   0  0  0  0  0  0  0  0  0  0  0  0
    8.0407   -3.0250   25.7748 C   0  0  0  0  0  0  0  0  0  0  0  0
    8.5108   -2.6677   27.0512 C   0  0  0  0  0  0  0  0  0  0  0  0
    8.3766   -3.3449   27.8893 H   0  0  0  0  0  0  0  0  0  0  0  0
    9.1408   -1.4362   27.1988 C   0  0  0  0  0  0  0  0  0  0  0  0
    9.5311   -1.1307   28.1657 H   0  0  0  0  0  0  0  0  0  0  0  0
    9.2693   -0.5526   26.1082 C   0  0  0  0  0  0  0  0  0  0  0  0
    9.7131    0.4300   26.2472 H   0  0  0  0  0  0  0  0  0  0  0  0
    8.8243   -0.9141   24.8455 C   0  0  0  0  0  0  0  0  0  0  0  0
    8.8982   -0.2336   24.0051 H   0  0  0  0  0  0  0  0  0  0  0  0
    8.2553   -2.1928   24.6535 C   0  0  0  0  0  0  0  0  0  0  0  0
    6.8473   -1.9456   21.2961 C   0  0  0  0  0  0  0  0  0  0  0  0
    5.7607   -2.4901   21.3104 O   0  0  0  0  0  0  0  0  0  0  0  0
    5.4186    0.5037   19.6815 C   0  0  0  0  0  0  0  0  0  0  0  0
    4.9174    0.2933   20.6271 H   0  0  0  0  0  0  0  0  0  0  0  0
    4.8571    1.3608   18.7295 C   0  0  0  0  0  0  0  0  0  0  0  0
    3.9298    1.8933   18.9108 H   0  0  0  0  0  0  0  0  0  0  0  0
  1  2  1  0
  2  3  2  0
  3  4  1  0
  4  5  1  0
  4  6  2  0
  6  7  1  0
  7  8  2  0
  8  9  1  0
  8 10  1  0
 10 11  1  0
 10 12  1  0
 12 13  1  0
 13 14  2  0
 14 15  1  0
 14 16  1  0
 16 17  1  0
 17 18  2  0
 18 19  1  0
 18 20  1  0
 20 21  1  0
 20 22  2  0
 22 23  1  0
 22 24  1  0
 24 25  1  0
 24 26  2  0
 12 27  1  0
 27 28  2  0
  6 29  1  0
 29 30  1  0
 29 31  2  0
 31 32  1  0
 31  2  1  0
 27  7  1  0
 26 13  1  0
 26 17  1  0
M  END
>  <cnnaffinity>  (1) 
-5.36936

>  <filename>  (1) 
O=c1c(-c2cccnc2)c[nH]n1-c1csc2ccccc12

$$$$
