
     RDKit          3D

 29 31  0  0  0  0  0  0  0  0999 V2000
   11.4436   -2.0786   22.4049 H   0  0  0  0  0  0  0  0  0  0  0  0
   10.8916   -1.1322   22.3267 C   0  0  0  0  0  0  0  0  0  0  0  0
   11.5928    0.0068   22.4142 C   0  0  0  0  0  0  0  0  0  0  0  0
   13.3705    0.0814   22.4675 S   0  0  0  0  0  0  0  0  0  0  0  0
   13.3178    1.8759   22.5950 C   0  0  0  0  0  0  0  0  0  0  0  0
   14.2190    2.6503   22.7320 O   0  0  0  0  0  0  0  0  0  0  0  0
   12.0263    2.2891   22.4897 N   0  0  0  0  0  0  0  0  0  0  0  0
   11.8449    3.2689   22.5665 H   0  0  0  0  0  0  0  0  0  0  0  0
   11.0114    1.3827   22.5116 C   0  0  0  0  0  0  0  0  0  0  0  0
    9.8585    1.7245   22.6169 O   0  0  0  0  0  0  0  0  0  0  0  0
    9.4284   -1.2266   22.1355 C   0  0  0  0  0  0  0  0  0  0  0  0
    8.6665   -2.0616   22.9776 C   0  0  0  0  0  0  0  0  0  0  0  0
    9.1544   -2.6132   23.7830 H   0  0  0  0  0  0  0  0  0  0  0  0
    7.3484   -2.2254   22.8606 N   0  0  0  0  0  0  0  0  0  0  0  0
    6.7262   -1.5444   21.8863 C   0  0  0  0  0  0  0  0  0  0  0  0
    5.6540   -1.7105   21.7975 H   0  0  0  0  0  0  0  0  0  0  0  0
    7.3802   -0.7012   20.9734 C   0  0  0  0  0  0  0  0  0  0  0  0
    6.6500    0.0099   19.8966 C   0  0  0  0  0  0  0  0  0  0  0  0
    7.1660    0.0719   18.5866 C   0  0  0  0  0  0  0  0  0  0  0  0
    8.1117   -0.4230   18.3647 H   0  0  0  0  0  0  0  0  0  0  0  0
    6.5566    0.6812   17.5634 N   0  0  0  0  0  0  0  0  0  0  0  0
    5.3934    1.2988   17.8254 C   0  0  0  0  0  0  0  0  0  0  0  0
    4.9175    1.7952   16.9822 H   0  0  0  0  0  0  0  0  0  0  0  0
    4.7997    1.3150   19.0925 C   0  0  0  0  0  0  0  0  0  0  0  0
    3.8701    1.8473   19.2441 H   0  0  0  0  0  0  0  0  0  0  0  0
    5.4298    0.6494   20.1443 C   0  0  0  0  0  0  0  0  0  0  0  0
    5.0136    0.6412   21.1527 H   0  0  0  0  0  0  0  0  0  0  0  0
    8.7623   -0.5506   21.1084 C   0  0  0  0  0  0  0  0  0  0  0  0
    9.3157    0.1104   20.4412 H   0  0  0  0  0  0  0  0  0  0  0  0
  1  2  1  0
  2  3  2  3
  3  4  1  0
  4  5  1  0
  5  6  2  0
  5  7  1  0
  7  8  1  0
  7  9  1  0
  9 10  2  0
  2 11  1  0
 11 12  2  0
 12 13  1  0
 12 14  1  0
 14 15  2  0
 15 16  1  0
 15 17  1  0
 17 18  1  0
 18 19  2  0
 19 20  1  0
 19 21  1  0
 21 22  2  0
 22 23  1  0
 22 24  1  0
 24 25  1  0
 24 26  2  0
 26 27  1  0
 17 28  2  0
 28 29  1  0
  9  3  1  0
 28 11  1  0
 26 18  1  0
M  END
>  <cnnaffinity>  (1) 
-5.59296

>  <filename>  (1) 
O=C1NC(=O)C(=Cc2cncc(-c3cccnc3)c2)S1

$$$$
