
     RDKit          3D

 26 28  0  0  0  0  0  0  0  0999 V2000
   13.8742   -1.5287   22.5771 H   0  0  0  0  0  0  0  0  0  0  0  0
   12.9791   -0.9427   22.4174 C   0  0  0  0  0  0  0  0  0  0  0  0
   11.7656   -1.5793   22.4504 N   0  0  0  0  0  0  0  0  0  0  0  0
   10.8176   -0.7500   22.1078 C   0  0  0  0  0  0  0  0  0  0  0  0
    9.3787   -1.0907   22.0303 C   0  0  0  0  0  0  0  0  0  0  0  0
    8.6661   -0.4991   21.0094 N   0  0  0  0  0  0  0  0  0  0  0  0
    7.3896   -0.7848   20.8560 C   0  0  0  0  0  0  0  0  0  0  0  0
    6.6599   -0.0194   19.8338 C   0  0  0  0  0  0  0  0  0  0  0  0
    7.2328    0.1208   18.5572 C   0  0  0  0  0  0  0  0  0  0  0  0
    8.2127   -0.3029   18.3384 H   0  0  0  0  0  0  0  0  0  0  0  0
    6.6257    0.7457   17.5453 N   0  0  0  0  0  0  0  0  0  0  0  0
    5.4406    1.3238   17.7916 C   0  0  0  0  0  0  0  0  0  0  0  0
    4.9835    1.8470   16.9545 H   0  0  0  0  0  0  0  0  0  0  0  0
    4.8160    1.3022   19.0405 C   0  0  0  0  0  0  0  0  0  0  0  0
    3.8857    1.8368   19.1844 H   0  0  0  0  0  0  0  0  0  0  0  0
    5.4332    0.6114   20.0840 C   0  0  0  0  0  0  0  0  0  0  0  0
    4.9794    0.5678   21.0738 H   0  0  0  0  0  0  0  0  0  0  0  0
    6.6960   -1.8441   21.7012 C   0  0  0  0  0  0  0  0  0  0  0  0
    5.5971   -2.3591   21.5874 O   0  0  0  0  0  0  0  0  0  0  0  0
    7.4999   -2.2820   22.7602 N   0  0  0  0  0  0  0  0  0  0  0  0
    6.9734   -2.9238   23.3419 H   0  0  0  0  0  0  0  0  0  0  0  0
    8.8142   -1.9533   22.9339 C   0  0  0  0  0  0  0  0  0  0  0  0
    9.3755   -2.3916   23.7579 H   0  0  0  0  0  0  0  0  0  0  0  0
   11.3524    0.8560   21.7300 S   0  0  0  0  0  0  0  0  0  0  0  0
   12.9534    0.3834   22.1298 C   0  0  0  0  0  0  0  0  0  0  0  0
   13.7917    1.0674   22.0890 H   0  0  0  0  0  0  0  0  0  0  0  0
  1  2  1  0
  2  3  1  0
  3  4  2  0
  4  5  1  0
  5  6  1  0
  6  7  2  0
  7  8  1  0
  8  9  2  0
  9 10  1  0
  9 11  1  0
 11 12  2  0
 12 13  1  0
 12 14  1  0
 14 15  1  0
 14 16  2  0
 16 17  1  0
  7 18  1  0
 18 19  2  0
 18 20  1  0
 20 21  1  0
 20 22  1  0
 22 23  1  0
  4 24  1  0
 24 25  1  0
 25 26  1  0
 25  2  2  0
 22  5  2  0
 16  8  1  0
M  END
>  <cnnaffinity>  (1) 
-4.72083

>  <filename>  (1) 
O=c1[nH]cc(-c2nccs2)nc1-c1cccnc1

$$$$
