
     RDKit          3D

 34 37  0  0  0  0  0  0  0  0999 V2000
    4.9227    1.8261   16.9269 H   0  0  0  0  0  0  0  0  0  0  0  0
    5.3778    1.3411   17.7889 C   0  0  0  0  0  0  0  0  0  0  0  0
    6.5428    0.7126   17.5673 N   0  0  0  0  0  0  0  0  0  0  0  0
    7.1236    0.1218   18.6132 C   0  0  0  0  0  0  0  0  0  0  0  0
    8.0478   -0.4164   18.4171 H   0  0  0  0  0  0  0  0  0  0  0  0
    6.6102    0.1534   19.9159 C   0  0  0  0  0  0  0  0  0  0  0  0
    7.3698   -0.5532   20.9644 C   0  0  0  0  0  0  0  0  0  0  0  0
    8.0096   -1.6132   20.5600 N   0  0  0  0  0  0  0  0  0  0  0  0
    8.5382   -2.4177   21.5180 C   0  0  0  0  0  0  0  0  0  0  0  0
    8.7818   -3.5934   21.3830 O   0  0  0  0  0  0  0  0  0  0  0  0
    8.8227   -1.8540   22.7682 N   0  0  0  0  0  0  0  0  0  0  0  0
    9.1065   -2.6135   23.3587 H   0  0  0  0  0  0  0  0  0  0  0  0
    8.0775   -0.8132   23.2554 C   0  0  0  0  0  0  0  0  0  0  0  0
    8.1251   -0.5164   24.6838 C   0  0  0  0  0  0  0  0  0  0  0  0
    9.1971   -0.6043   25.5427 C   0  0  0  0  0  0  0  0  0  0  0  0
   10.2050   -0.9516   25.3374 H   0  0  0  0  0  0  0  0  0  0  0  0
    8.8397   -0.1507   26.7921 N   0  0  0  0  0  0  0  0  0  0  0  0
    9.4686    0.0051   27.5638 H   0  0  0  0  0  0  0  0  0  0  0  0
    7.5171    0.2412   26.7818 C   0  0  0  0  0  0  0  0  0  0  0  0
    6.7002    0.7776   27.8004 C   0  0  0  0  0  0  0  0  0  0  0  0
    7.0955    0.9928   28.7945 H   0  0  0  0  0  0  0  0  0  0  0  0
    5.3666    1.0354   27.4870 C   0  0  0  0  0  0  0  0  0  0  0  0
    4.7046    1.4466   28.2457 H   0  0  0  0  0  0  0  0  0  0  0  0
    4.8486    0.7747   26.1908 C   0  0  0  0  0  0  0  0  0  0  0  0
    3.8019    0.9709   25.9697 H   0  0  0  0  0  0  0  0  0  0  0  0
    5.6714    0.2687   25.1945 C   0  0  0  0  0  0  0  0  0  0  0  0
    5.3042    0.0665   24.1961 H   0  0  0  0  0  0  0  0  0  0  0  0
    7.0257    0.0067   25.4780 C   0  0  0  0  0  0  0  0  0  0  0  0
    7.3575   -0.1093   22.3154 C   0  0  0  0  0  0  0  0  0  0  0  0
    6.7928    0.7650   22.5938 H   0  0  0  0  0  0  0  0  0  0  0  0
    5.3730    0.7711   20.1265 C   0  0  0  0  0  0  0  0  0  0  0  0
    4.9002    0.7459   21.1100 H   0  0  0  0  0  0  0  0  0  0  0  0
    4.7469    1.3767   19.0382 C   0  0  0  0  0  0  0  0  0  0  0  0
    3.7944    1.8847   19.1469 H   0  0  0  0  0  0  0  0  0  0  0  0
  1  2  1  0
  2  3  2  0
  3  4  1  0
  4  5  1  0
  4  6  2  0
  6  7  1  0
  7  8  2  0
  8  9  1  0
  9 10  2  0
  9 11  1  0
 11 12  1  0
 11 13  1  0
 13 14  1  0
 14 15  2  0
 15 16  1  0
 15 17  1  0
 17 18  1  0
 17 19  1  0
 19 20  2  0
 20 21  1  0
 20 22  1  0
 22 23  1  0
 22 24  2  0
 24 25  1  0
 24 26  1  0
 26 27  1  0
 26 28  2  0
 13 29  2  0
 29 30  1  0
  6 31  1  0
 31 32  1  0
 31 33  2  0
 33 34  1  0
 33  2  1  0
 29  7  1  0
 28 14  1  0
 28 19  1  0
M  END
>  <cnnaffinity>  (1) 
-5.45776

>  <filename>  (1) 
O=c1nc(-c2cccnc2)cc(-c2c[nH]c3ccccc23)[nH]1

$$$$
