
     RDKit          3D

 34 37  0  0  0  0  0  0  0  0999 V2000
    4.9034    1.8706   17.0759 H   0  0  0  0  0  0  0  0  0  0  0  0
    5.4082    1.2886   17.8440 C   0  0  0  0  0  0  0  0  0  0  0  0
    6.5427    0.6742   17.4723 N   0  0  0  0  0  0  0  0  0  0  0  0
    7.2087   -0.0224   18.4000 C   0  0  0  0  0  0  0  0  0  0  0  0
    8.1421   -0.4860   18.0903 H   0  0  0  0  0  0  0  0  0  0  0  0
    6.7584   -0.1591   19.7328 C   0  0  0  0  0  0  0  0  0  0  0  0
    7.4974   -0.8664   20.7428 N   0  0  0  0  0  0  0  0  0  0  0  0
    8.8058   -0.5642   21.1240 C   0  0  0  0  0  0  0  0  0  0  0  0
    9.5723    0.1365   20.5223 O   0  0  0  0  0  0  0  0  0  0  0  0
    9.0102   -1.3037   22.4607 C   0  0  0  0  0  0  0  0  0  0  0  0
    9.9749   -1.3500   23.1631 O   0  0  0  0  0  0  0  0  0  0  0  0
    7.7751   -1.8702   22.7236 N   0  0  0  0  0  0  0  0  0  0  0  0
    7.5427   -2.8363   23.7028 C   0  0  0  0  0  0  0  0  0  0  0  0
    8.4993   -3.6979   23.8254 N   0  0  0  0  0  0  0  0  0  0  0  0
    8.3941   -4.5738   24.8617 C   0  0  0  0  0  0  0  0  0  0  0  0
    9.4918   -5.4456   25.0608 C   0  0  0  0  0  0  0  0  0  0  0  0
   10.3148   -5.3387   24.3622 H   0  0  0  0  0  0  0  0  0  0  0  0
    9.4818   -6.3242   26.1171 C   0  0  0  0  0  0  0  0  0  0  0  0
   10.3315   -6.9811   26.2768 H   0  0  0  0  0  0  0  0  0  0  0  0
    8.3726   -6.3649   27.0100 C   0  0  0  0  0  0  0  0  0  0  0  0
    8.3725   -7.0610   27.8439 H   0  0  0  0  0  0  0  0  0  0  0  0
    7.2907   -5.5347   26.8322 C   0  0  0  0  0  0  0  0  0  0  0  0
    6.4458   -5.5612   27.5138 H   0  0  0  0  0  0  0  0  0  0  0  0
    7.2714   -4.6136   25.7523 C   0  0  0  0  0  0  0  0  0  0  0  0
    6.2036   -3.6956   25.4986 C   0  0  0  0  0  0  0  0  0  0  0  0
    5.3106   -3.7187   26.1277 H   0  0  0  0  0  0  0  0  0  0  0  0
    6.3345   -2.8118   24.4516 C   0  0  0  0  0  0  0  0  0  0  0  0
    5.5653   -2.1165   24.1527 H   0  0  0  0  0  0  0  0  0  0  0  0
    6.9046   -1.7071   21.6829 C   0  0  0  0  0  0  0  0  0  0  0  0
    5.8166   -2.2161   21.6124 O   0  0  0  0  0  0  0  0  0  0  0  0
    5.5538    0.4455   20.0943 C   0  0  0  0  0  0  0  0  0  0  0  0
    5.1759    0.3102   21.1070 H   0  0  0  0  0  0  0  0  0  0  0  0
    4.8772    1.2011   19.1345 C   0  0  0  0  0  0  0  0  0  0  0  0
    3.9584    1.7210   19.3746 H   0  0  0  0  0  0  0  0  0  0  0  0
  1  2  1  0
  2  3  2  0
  3  4  1  0
  4  5  1  0
  4  6  2  0
  6  7  1  0
  7  8  1  0
  8  9  2  0
  8 10  1  0
 10 11  2  0
 10 12  1  0
 12 13  1  0
 13 14  2  0
 14 15  1  0
 15 16  2  0
 16 17  1  0
 16 18  1  0
 18 19  1  0
 18 20  2  0
 20 21  1  0
 20 22  1  0
 22 23  1  0
 22 24  2  0
 24 25  1  0
 25 26  1  0
 25 27  2  0
 27 28  1  0
 12 29  1  0
 29 30  2  0
  6 31  1  0
 31 32  1  0
 31 33  2  0
 33 34  1  0
 33  2  1  0
 29  7  1  0
 27 13  1  0
 24 15  1  0
M  END
>  <cnnaffinity>  (1) 
-4.91114

>  <filename>  (1) 
O=C1C(=O)N(c2ccc3ccccc3n2)C(=O)N1c1cccnc1

$$$$
