
     RDKit          3D

 22 23  0  0  0  0  0  0  0  0999 V2000
    4.9263    1.7936   17.0334 H   0  0  0  0  0  0  0  0  0  0  0  0
    5.4066    1.2772   17.8609 C   0  0  0  0  0  0  0  0  0  0  0  0
    6.5624    0.6584   17.5701 N   0  0  0  0  0  0  0  0  0  0  0  0
    7.2053    0.0449   18.5670 C   0  0  0  0  0  0  0  0  0  0  0  0
    8.1551   -0.4319   18.3365 H   0  0  0  0  0  0  0  0  0  0  0  0
    6.7121   -0.0126   19.8909 C   0  0  0  0  0  0  0  0  0  0  0  0
    7.4193   -0.6917   20.9439 N   0  0  0  0  0  0  0  0  0  0  0  0
    8.7973   -0.6609   21.1464 C   0  0  0  0  0  0  0  0  0  0  0  0
    9.6026   -0.0566   20.4952 O   0  0  0  0  0  0  0  0  0  0  0  0
    9.0425   -1.5972   22.3474 C   0  0  0  0  0  0  0  0  0  0  0  0
   10.0816   -1.9431   22.8398 O   0  0  0  0  0  0  0  0  0  0  0  0
    7.7872   -1.9923   22.7585 N   0  0  0  0  0  0  0  0  0  0  0  0
    7.5881   -3.1219   23.6472 C   0  0  0  0  0  0  0  0  0  0  0  0
    6.6072   -3.0315   24.1173 H   0  0  0  0  0  0  0  0  0  0  0  0
    8.3721   -3.1042   24.4078 H   0  0  0  0  0  0  0  0  0  0  0  0
    7.6786   -4.6600   22.7666 Cl  0  0  0  0  0  0  0  0  0  0  0  0
    6.8538   -1.6615   21.7851 C   0  0  0  0  0  0  0  0  0  0  0  0
    5.7708   -2.1657   21.6761 O   0  0  0  0  0  0  0  0  0  0  0  0
    5.4906    0.6064   20.1740 C   0  0  0  0  0  0  0  0  0  0  0  0
    5.0757    0.5490   21.1797 H   0  0  0  0  0  0  0  0  0  0  0  0
    4.8327    1.2800   19.1363 C   0  0  0  0  0  0  0  0  0  0  0  0
    3.8992    1.8118   19.2983 H   0  0  0  0  0  0  0  0  0  0  0  0
  1  2  1  0
  2  3  2  0
  3  4  1  0
  4  5  1  0
  4  6  2  0
  6  7  1  0
  7  8  1  0
  8  9  2  0
  8 10  1  0
 10 11  2  0
 10 12  1  0
 12 13  1  0
 13 14  1  0
 13 15  1  0
 13 16  1  0
 12 17  1  0
 17 18  2  0
  6 19  1  0
 19 20  1  0
 19 21  2  0
 21 22  1  0
 21  2  1  0
 17  7  1  0
M  END
>  <cnnaffinity>  (1) 
-4.51669

>  <filename>  (1) 
O=C1C(=O)N(c2cccnc2)C(=O)N1CCl

$$$$
