
     RDKit          3D

 35 38  0  0  0  0  0  0  0  0999 V2000
    4.9384    1.8019   16.9815 H   0  0  0  0  0  0  0  0  0  0  0  0
    5.3989    1.2874   17.8238 C   0  0  0  0  0  0  0  0  0  0  0  0
    6.5614    0.6633   17.5711 N   0  0  0  0  0  0  0  0  0  0  0  0
    7.1526    0.0231   18.5839 C   0  0  0  0  0  0  0  0  0  0  0  0
    8.1168   -0.4344   18.3549 H   0  0  0  0  0  0  0  0  0  0  0  0
    6.6337   -0.0258   19.8886 C   0  0  0  0  0  0  0  0  0  0  0  0
    7.3876   -0.6718   20.9674 C   0  0  0  0  0  0  0  0  0  0  0  0
    7.7552   -0.0652   22.1567 C   0  0  0  0  0  0  0  0  0  0  0  0
    7.5676    1.3691   22.3737 C   0  0  0  0  0  0  0  0  0  0  0  0
    7.9043    2.3874   21.5230 C   0  0  0  0  0  0  0  0  0  0  0  0
    8.3493    2.3154   20.5366 H   0  0  0  0  0  0  0  0  0  0  0  0
    7.5734    3.5960   22.0877 N   0  0  0  0  0  0  0  0  0  0  0  0
    7.7065    4.5019   21.6685 H   0  0  0  0  0  0  0  0  0  0  0  0
    6.9891    3.3757   23.3127 C   0  0  0  0  0  0  0  0  0  0  0  0
    6.4686    4.2791   24.2573 C   0  0  0  0  0  0  0  0  0  0  0  0
    6.4994    5.3490   24.0784 H   0  0  0  0  0  0  0  0  0  0  0  0
    5.9128    3.7565   25.4205 C   0  0  0  0  0  0  0  0  0  0  0  0
    5.5060    4.4278   26.1724 H   0  0  0  0  0  0  0  0  0  0  0  0
    5.8612    2.3589   25.6449 C   0  0  0  0  0  0  0  0  0  0  0  0
    5.4196    1.9726   26.5590 H   0  0  0  0  0  0  0  0  0  0  0  0
    6.3724    1.4720   24.7068 C   0  0  0  0  0  0  0  0  0  0  0  0
    6.3174    0.3948   24.8553 H   0  0  0  0  0  0  0  0  0  0  0  0
    6.9639    1.9838   23.5304 C   0  0  0  0  0  0  0  0  0  0  0  0
    8.3695   -0.8780   23.1734 C   0  0  0  0  0  0  0  0  0  0  0  0
    8.6291   -0.3798   24.1090 H   0  0  0  0  0  0  0  0  0  0  0  0
    8.6295   -2.1979   22.9728 C   0  0  0  0  0  0  0  0  0  0  0  0
    9.1053   -2.8360   23.7068 H   0  0  0  0  0  0  0  0  0  0  0  0
    8.2761   -2.8340   21.7103 C   0  0  0  0  0  0  0  0  0  0  0  0
    8.4157   -4.0068   21.4077 O   0  0  0  0  0  0  0  0  0  0  0  0
    7.7257   -1.9853   20.7698 N   0  0  0  0  0  0  0  0  0  0  0  0
    7.4524   -2.5038   19.9523 H   0  0  0  0  0  0  0  0  0  0  0  0
    5.4155    0.6307   20.1368 C   0  0  0  0  0  0  0  0  0  0  0  0
    5.0016    0.6417   21.1473 H   0  0  0  0  0  0  0  0  0  0  0  0
    4.7910    1.2956   19.0839 C   0  0  0  0  0  0  0  0  0  0  0  0
    3.8682    1.8442   19.2289 H   0  0  0  0  0  0  0  0  0  0  0  0
  1  2  1  0
  2  3  2  0
  3  4  1  0
  4  5  1  0
  4  6  2  0
  6  7  1  0
  7  8  2  0
  8  9  1  0
  9 10  2  0
 10 11  1  0
 10 12  1  0
 12 13  1  0
 12 14  1  0
 14 15  2  0
 15 16  1  0
 15 17  1  0
 17 18  1  0
 17 19  2  0
 19 20  1  0
 19 21  1  0
 21 22  1  0
 21 23  2  0
  8 24  1  0
 24 25  1  0
 24 26  2  0
 26 27  1  0
 26 28  1  0
 28 29  2  0
 28 30  1  0
 30 31  1  0
  6 32  1  0
 32 33  1  0
 32 34  2  0
 34 35  1  0
 34  2  1  0
 30  7  1  0
 23  9  1  0
 23 14  1  0
M  END
>  <cnnaffinity>  (1) 
-5.57062

>  <filename>  (1) 
O=c1ccc(-c2c[nH]c3ccccc23)c(-c2cccnc2)[nH]1

$$$$
