
     RDKit          3D

 42 45  0  0  0  0  0  0  0  0999 V2000
    7.9833    5.7171   28.7157 O   0  0  0  0  0  0  0  0  0  0  0  0
    8.2507    5.2046   27.6591 C   0  0  0  0  0  0  0  0  0  0  0  0
    8.0167    3.8892   27.2934 N   0  0  0  0  0  0  0  0  0  0  0  0
    8.5850    3.6406   26.0523 C   0  0  0  0  0  0  0  0  0  0  0  0
    8.6740    2.5555   25.2109 C   0  0  0  0  0  0  0  0  0  0  0  0
    9.2336    2.8186   23.9326 C   0  0  0  0  0  0  0  0  0  0  0  0
    9.1710    1.7874   22.8916 C   0  0  0  0  0  0  0  0  0  0  0  0
    8.1171    1.0065   22.7180 N   0  0  0  0  0  0  0  0  0  0  0  0
    8.4080    0.3292   21.5831 C   0  0  0  0  0  0  0  0  0  0  0  0
    7.4578   -0.6460   20.9434 C   0  0  0  0  0  0  0  0  0  0  0  0
    6.6501   -0.0290   19.8099 C   0  0  0  0  0  0  0  0  0  0  0  0
    5.4444    0.6313   20.0745 C   0  0  0  0  0  0  0  0  0  0  0  0
    4.8032    1.3108   19.0366 C   0  0  0  0  0  0  0  0  0  0  0  0
    5.3917    1.3043   17.7688 C   0  0  0  0  0  0  0  0  0  0  0  0
    6.5310    0.6551   17.4852 N   0  0  0  0  0  0  0  0  0  0  0  0
    7.1320    0.0077   18.4907 C   0  0  0  0  0  0  0  0  0  0  0  0
    8.0642   -0.5031   18.2458 H   0  0  0  0  0  0  0  0  0  0  0  0
    4.9292    1.8374   16.9401 H   0  0  0  0  0  0  0  0  0  0  0  0
    3.8794    1.8548   19.2002 H   0  0  0  0  0  0  0  0  0  0  0  0
    5.0246    0.6209   21.0826 H   0  0  0  0  0  0  0  0  0  0  0  0
    6.7897   -1.0066   21.7309 H   0  0  0  0  0  0  0  0  0  0  0  0
    8.0335   -1.5065   20.5875 H   0  0  0  0  0  0  0  0  0  0  0  0
    9.5825    0.6168   21.0584 N   0  0  0  0  0  0  0  0  0  0  0  0
   10.0781    1.5645   21.9025 N   0  0  0  0  0  0  0  0  0  0  0  0
   11.5091    1.8624   21.8324 C   0  0  0  0  0  0  0  0  0  0  0  0
   12.3829    0.8628   22.6048 C   0  0  0  0  0  0  0  0  0  0  0  0
   12.1497    0.8231   24.1061 C   0  0  0  0  0  0  0  0  0  0  0  0
   11.0876    0.0707   24.4433 F   0  0  0  0  0  0  0  0  0  0  0  0
   13.2232    0.3088   24.7357 F   0  0  0  0  0  0  0  0  0  0  0  0
   11.9462    2.0465   24.6296 F   0  0  0  0  0  0  0  0  0  0  0  0
   13.4352    1.1220   22.4577 H   0  0  0  0  0  0  0  0  0  0  0  0
   12.2246   -0.1491   22.2231 H   0  0  0  0  0  0  0  0  0  0  0  0
   11.6930    2.8738   22.2024 H   0  0  0  0  0  0  0  0  0  0  0  0
   11.7720    1.8442   20.7719 H   0  0  0  0  0  0  0  0  0  0  0  0
    9.7052    4.1053   23.6175 C   0  0  0  0  0  0  0  0  0  0  0  0
    9.6564    5.1538   24.4507 N   0  0  0  0  0  0  0  0  0  0  0  0
    9.0952    4.8919   25.6084 C   0  0  0  0  0  0  0  0  0  0  0  0
    8.8699    5.8003   26.5940 N   0  0  0  0  0  0  0  0  0  0  0  0
    9.3184    6.6888   26.6898 H   0  0  0  0  0  0  0  0  0  0  0  0
   10.1431    4.3095   22.6396 H   0  0  0  0  0  0  0  0  0  0  0  0
    8.3240    1.5563   25.4833 H   0  0  0  0  0  0  0  0  0  0  0  0
    7.7343    3.2403   28.0042 H   0  0  0  0  0  0  0  0  0  0  0  0
  1  2  2  0
  2  3  1  0
  3  4  1  0
  4  5  2  0
  5  6  1  0
  6  7  1  0
  7  8  2  0
  8  9  1  0
  9 10  1  0
 10 11  1  0
 11 12  2  0
 12 13  1  0
 13 14  2  0
 14 15  1  0
 15 16  2  0
 16 17  1  0
 14 18  1  0
 13 19  1  0
 12 20  1  0
 10 21  1  0
 10 22  1  0
  9 23  2  0
 23 24  1  0
 24 25  1  0
 25 26  1  0
 26 27  1  0
 27 28  1  0
 27 29  1  0
 27 30  1  0
 26 31  1  0
 26 32  1  0
 25 33  1  0
 25 34  1  0
  6 35  2  0
 35 36  1  0
 36 37  2  0
 37 38  1  0
 38 39  1  0
 35 40  1  0
  5 41  1  0
  3 42  1  0
 38  2  1  0
 37  4  1  0
 24  7  1  0
 16 11  1  0
M  END
>  <cnnaffinity>  (1) 
-5.66136

>  <filename>  (1) 
O=c1[nH]c2cc(-c3nc(Cc4cccnc4)nn3CCC(F)(F)F)cnc2[nH]1

$$$$
