
     RDKit          3D

 38 40  0  0  0  0  0  0  0  0999 V2000
    5.0020    1.8994   16.9163 H   0  0  0  0  0  0  0  0  0  0  0  0
    5.4313    1.3557   17.7547 C   0  0  0  0  0  0  0  0  0  0  0  0
    6.5924    0.7252   17.5116 N   0  0  0  0  0  0  0  0  0  0  0  0
    7.1305    0.0449   18.5286 C   0  0  0  0  0  0  0  0  0  0  0  0
    8.0833   -0.4476   18.3327 H   0  0  0  0  0  0  0  0  0  0  0  0
    6.5566   -0.0651   19.8095 C   0  0  0  0  0  0  0  0  0  0  0  0
    7.2771   -0.8081   20.9231 C   0  0  2  0  0  0  0  0  0  0  0  0
    8.0904   -1.3697   20.4523 H   0  0  0  0  0  0  0  0  0  0  0  0
    6.4281   -1.8282   21.6859 C   0  0  0  0  0  0  0  0  0  0  0  0
    5.7740   -2.7482   21.2405 O   0  0  0  0  0  0  0  0  0  0  0  0
    6.5585   -1.5736   23.0141 N   0  0  0  0  0  0  0  0  0  0  0  0
    5.8665   -2.0562   23.5696 H   0  0  0  0  0  0  0  0  0  0  0  0
    7.1165   -0.2666   23.3187 C   0  0  0  0  0  0  0  0  0  0  0  0
    6.3433    0.4734   23.5729 H   0  0  0  0  0  0  0  0  0  0  0  0
    7.8132   -0.3288   24.1602 H   0  0  0  0  0  0  0  0  0  0  0  0
    7.8552    0.1347   22.0102 C   0  0  1  0  0  0  0  0  0  0  0  0
    7.6245    1.1779   21.7642 H   0  0  0  0  0  0  0  0  0  0  0  0
    9.3305    0.0568   22.0374 N   0  0  0  0  0  0  0  0  0  0  0  0
    9.8247    0.9400   22.0647 H   0  0  0  0  0  0  0  0  0  0  0  0
   10.0702   -0.7923   22.8164 C   0  0  0  0  0  0  0  0  0  0  0  0
   11.4905   -0.2428   23.4624 S   0  0  0  0  0  0  0  0  0  0  0  0
    9.5303   -2.0353   22.9282 N   0  0  0  0  0  0  0  0  0  0  0  0
    8.8067   -2.1972   22.2529 H   0  0  0  0  0  0  0  0  0  0  0  0
    9.3825   -2.7764   24.1233 C   0  0  0  0  0  0  0  0  0  0  0  0
    9.4530   -2.1292   25.3567 C   0  0  0  0  0  0  0  0  0  0  0  0
    9.6263   -1.0585   25.3555 H   0  0  0  0  0  0  0  0  0  0  0  0
    9.3149   -2.8530   26.5409 C   0  0  0  0  0  0  0  0  0  0  0  0
    9.3454   -2.3078   27.4732 H   0  0  0  0  0  0  0  0  0  0  0  0
    9.1276   -4.2360   26.5073 C   0  0  0  0  0  0  0  0  0  0  0  0
    9.0644   -4.8052   27.4314 H   0  0  0  0  0  0  0  0  0  0  0  0
    9.0122   -4.8783   25.2715 C   0  0  0  0  0  0  0  0  0  0  0  0
    8.8136   -5.9450   25.2327 H   0  0  0  0  0  0  0  0  0  0  0  0
    9.1125   -4.1504   24.0762 C   0  0  0  0  0  0  0  0  0  0  0  0
    8.9732   -4.6336   23.1142 H   0  0  0  0  0  0  0  0  0  0  0  0
    5.3553    0.6138   20.0437 C   0  0  0  0  0  0  0  0  0  0  0  0
    4.8863    0.5876   21.0313 H   0  0  0  0  0  0  0  0  0  0  0  0
    4.7818    1.3354   18.9948 C   0  0  0  0  0  0  0  0  0  0  0  0
    3.8537    1.8832   19.1263 H   0  0  0  0  0  0  0  0  0  0  0  0
  1  2  1  0
  2  3  2  0
  3  4  1  0
  4  5  1  0
  4  6  2  0
  6  7  1  0
  7  8  1  6
  7  9  1  0
  9 10  2  0
  9 11  1  0
 11 12  1  0
 11 13  1  0
 13 14  1  0
 13 15  1  0
 13 16  1  0
 16 17  1  6
 16 18  1  0
 18 19  1  0
 18 20  1  0
 20 21  2  0
 20 22  1  0
 22 23  1  0
 22 24  1  0
 24 25  2  0
 25 26  1  0
 25 27  1  0
 27 28  1  0
 27 29  2  0
 29 30  1  0
 29 31  1  0
 31 32  1  0
 31 33  2  0
 33 34  1  0
  6 35  1  0
 35 36  1  0
 35 37  2  0
 37 38  1  0
 37  2  1  0
 16  7  1  0
 33 24  1  0
M  END
>  <cnnaffinity>  (1) 
-5.00455

>  <filename>  (1) 
O=C1NC[C@@H](NC(=S)Nc2ccccc2)[C@@H]1c1cccnc1

$$$$
