
     RDKit          3D

 24 25  0  0  0  0  0  0  0  0999 V2000
    4.9745    1.8394   16.9243 H   0  0  0  0  0  0  0  0  0  0  0  0
    5.4410    1.3345   17.7688 C   0  0  0  0  0  0  0  0  0  0  0  0
    6.6302    0.7492   17.5328 N   0  0  0  0  0  0  0  0  0  0  0  0
    7.2231    0.1250   18.5545 C   0  0  0  0  0  0  0  0  0  0  0  0
    8.1927   -0.3289   18.3748 H   0  0  0  0  0  0  0  0  0  0  0  0
    6.6494    0.0126   19.8322 C   0  0  0  0  0  0  0  0  0  0  0  0
    7.3283   -0.7006   20.8710 N   0  0  0  0  0  0  0  0  0  0  0  0
    8.6328   -0.3273   21.0503 N   0  0  0  0  0  0  0  0  0  0  0  0
    9.2167   -0.7104   22.1416 C   0  0  0  0  0  0  0  0  0  0  0  0
   10.2517   -0.4120   22.2785 H   0  0  0  0  0  0  0  0  0  0  0  0
    8.5687   -1.5603   23.1180 C   0  0  0  0  0  0  0  0  0  0  0  0
    9.4496   -1.9698   24.5897 S   0  0  0  0  0  0  0  0  0  0  0  0
   10.3276   -3.4906   24.0442 C   0  0  0  0  0  0  0  0  0  0  0  0
   10.9066   -3.9864   25.1281 F   0  0  0  0  0  0  0  0  0  0  0  0
    9.4833   -4.3850   23.5354 F   0  0  0  0  0  0  0  0  0  0  0  0
   11.2613   -3.2082   23.1370 F   0  0  0  0  0  0  0  0  0  0  0  0
    7.3281   -2.0594   22.8574 C   0  0  0  0  0  0  0  0  0  0  0  0
    6.7874   -2.7471   23.4980 H   0  0  0  0  0  0  0  0  0  0  0  0
    6.6255   -1.7210   21.6327 C   0  0  0  0  0  0  0  0  0  0  0  0
    5.5844   -2.2208   21.2545 O   0  0  0  0  0  0  0  0  0  0  0  0
    5.4244    0.6374   20.0791 C   0  0  0  0  0  0  0  0  0  0  0  0
    4.9826    0.6082   21.0742 H   0  0  0  0  0  0  0  0  0  0  0  0
    4.8147    1.3168   19.0197 C   0  0  0  0  0  0  0  0  0  0  0  0
    3.8815    1.8524   19.1632 H   0  0  0  0  0  0  0  0  0  0  0  0
  1  2  1  0
  2  3  2  0
  3  4  1  0
  4  5  1  0
  4  6  2  0
  6  7  1  0
  7  8  1  0
  8  9  2  0
  9 10  1  0
  9 11  1  0
 11 12  1  0
 12 13  1  0
 13 14  1  0
 13 15  1  0
 13 16  1  0
 11 17  2  0
 17 18  1  0
 17 19  1  0
 19 20  2  0
  6 21  1  0
 21 22  1  0
 21 23  2  0
 23 24  1  0
 23  2  1  0
 19  7  1  0
M  END
>  <cnnaffinity>  (1) 
-5.07673

>  <filename>  (1) 
O=c1cc(SC(F)(F)F)cnn1-c1cccnc1

$$$$
