
     RDKit          3D

 31 33  0  0  0  0  0  0  0  0999 V2000
    4.9289    1.8269   16.9553 H   0  0  0  0  0  0  0  0  0  0  0  0
    5.3843    1.3053   17.7981 C   0  0  0  0  0  0  0  0  0  0  0  0
    6.5427    0.6744   17.5455 N   0  0  0  0  0  0  0  0  0  0  0  0
    7.1393    0.0549   18.5707 C   0  0  0  0  0  0  0  0  0  0  0  0
    8.1000   -0.4082   18.3462 H   0  0  0  0  0  0  0  0  0  0  0  0
    6.6282    0.0053   19.8842 C   0  0  0  0  0  0  0  0  0  0  0  0
    7.3364   -0.7012   20.9466 C   0  0  0  0  0  0  0  0  0  0  0  0
    7.5488   -0.2788   22.2194 C   0  0  0  0  0  0  0  0  0  0  0  0
    7.3347    1.0517   22.7687 C   0  0  0  0  0  0  0  0  0  0  0  0
    7.5545    2.0343   22.0750 O   0  0  0  0  0  0  0  0  0  0  0  0
    6.8220    1.2209   24.1722 C   0  0  0  0  0  0  0  0  0  0  0  0
    6.0570    0.2301   24.8201 C   0  0  0  0  0  0  0  0  0  0  0  0
    5.8405   -0.7167   24.3217 H   0  0  0  0  0  0  0  0  0  0  0  0
    5.5848    0.4418   26.1156 C   0  0  0  0  0  0  0  0  0  0  0  0
    5.0155   -0.3012   26.6597 H   0  0  0  0  0  0  0  0  0  0  0  0
    5.8842    1.6448   26.7452 C   0  0  0  0  0  0  0  0  0  0  0  0
    5.4514    1.8441   27.9986 F   0  0  0  0  0  0  0  0  0  0  0  0
    6.6184    2.6512   26.1238 C   0  0  0  0  0  0  0  0  0  0  0  0
    6.7988    3.5688   26.6706 H   0  0  0  0  0  0  0  0  0  0  0  0
    7.0797    2.4409   24.8267 C   0  0  0  0  0  0  0  0  0  0  0  0
    7.6259    3.2202   24.2925 H   0  0  0  0  0  0  0  0  0  0  0  0
    8.2450   -1.3202   22.9703 C   0  0  0  0  0  0  0  0  0  0  0  0
    8.6480   -1.3251   24.1029 O   0  0  0  0  0  0  0  0  0  0  0  0
    8.3972   -2.3839   22.1360 O   0  0  0  0  0  0  0  0  0  0  0  0
    7.9463   -2.0588   20.8333 C   0  0  0  0  0  0  0  0  0  0  0  0
    8.8196   -2.0378   20.1663 H   0  0  0  0  0  0  0  0  0  0  0  0
    7.2285   -2.8295   20.5224 H   0  0  0  0  0  0  0  0  0  0  0  0
    5.4056    0.6554   20.1148 C   0  0  0  0  0  0  0  0  0  0  0  0
    4.9735    0.6524   21.1164 H   0  0  0  0  0  0  0  0  0  0  0  0
    4.7787    1.3186   19.0600 C   0  0  0  0  0  0  0  0  0  0  0  0
    3.8523    1.8602   19.2128 H   0  0  0  0  0  0  0  0  0  0  0  0
  1  2  1  0
  2  3  2  0
  3  4  1  0
  4  5  1  0
  4  6  2  0
  6  7  1  0
  7  8  2  0
  8  9  1  0
  9 10  2  0
  9 11  1  0
 11 12  2  0
 12 13  1  0
 12 14  1  0
 14 15  1  0
 14 16  2  0
 16 17  1  0
 16 18  1  0
 18 19  1  0
 18 20  2  0
 20 21  1  0
  8 22  1  0
 22 23  2  0
 22 24  1  0
 24 25  1  0
 25 26  1  0
 25 27  1  0
  6 28  1  0
 28 29  1  0
 28 30  2  0
 30 31  1  0
 30  2  1  0
 25  7  1  0
 20 11  1  0
M  END
>  <cnnaffinity>  (1) 
-4.47751

>  <filename>  (1) 
O=C1OCC(c2cccnc2)=C1C(=O)c1ccc(F)cc1

$$$$
