
     RDKit          3D

 24 25  0  0  0  0  0  0  0  0999 V2000
    8.7330   -2.0149   22.8478 H   0  0  0  0  0  0  0  0  0  0  0  0
    8.1003   -1.2060   23.2090 C   0  0  0  0  0  0  0  0  0  0  0  0
    8.0786   -0.9652   24.5337 C   0  0  0  0  0  0  0  0  0  0  0  0
    7.1491    0.2626   25.3631 S   0  0  0  0  0  0  0  0  0  0  0  0
    7.6312   -0.3329   26.9338 C   0  0  0  0  0  0  0  0  0  0  0  0
    6.9505    0.1633   28.3258 S   0  0  0  0  0  0  0  0  0  0  0  0
    8.5934   -1.2829   26.7819 N   0  0  0  0  0  0  0  0  0  0  0  0
    8.9790   -1.7598   27.5763 H   0  0  0  0  0  0  0  0  0  0  0  0
    8.8606   -1.7526   25.5062 C   0  0  0  0  0  0  0  0  0  0  0  0
    9.6119   -2.6657   25.2714 O   0  0  0  0  0  0  0  0  0  0  0  0
    7.3379   -0.4597   22.2417 C   0  0  0  0  0  0  0  0  0  0  0  0
    6.7091    0.3630   22.5910 H   0  0  0  0  0  0  0  0  0  0  0  0
    7.4105   -0.7243   20.9255 C   0  0  0  0  0  0  0  0  0  0  0  0
    8.0910   -1.5034   20.5743 H   0  0  0  0  0  0  0  0  0  0  0  0
    6.6594   -0.0009   19.8980 C   0  0  0  0  0  0  0  0  0  0  0  0
    7.1701    0.0594   18.5881 C   0  0  0  0  0  0  0  0  0  0  0  0
    8.1210   -0.4285   18.3728 H   0  0  0  0  0  0  0  0  0  0  0  0
    6.5694    0.6824   17.5719 N   0  0  0  0  0  0  0  0  0  0  0  0
    5.4014    1.2926   17.8407 C   0  0  0  0  0  0  0  0  0  0  0  0
    4.9100    1.7766   17.0014 H   0  0  0  0  0  0  0  0  0  0  0  0
    4.8049    1.3118   19.1070 C   0  0  0  0  0  0  0  0  0  0  0  0
    3.8720    1.8456   19.2637 H   0  0  0  0  0  0  0  0  0  0  0  0
    5.4453    0.6570   20.1570 C   0  0  0  0  0  0  0  0  0  0  0  0
    5.0040    0.6290   21.1564 H   0  0  0  0  0  0  0  0  0  0  0  0
  1  2  1  0
  2  3  2  3
  3  4  1  0
  4  5  1  0
  5  6  2  0
  5  7  1  0
  7  8  1  0
  7  9  1  0
  9 10  2  0
  2 11  1  0
 11 12  1  0
 11 13  2  3
 13 14  1  0
 13 15  1  0
 15 16  2  0
 16 17  1  0
 16 18  1  0
 18 19  2  0
 19 20  1  0
 19 21  1  0
 21 22  1  0
 21 23  2  0
 23 24  1  0
  9  3  1  0
 23 15  1  0
M  END
>  <cnnaffinity>  (1) 
-4.53457

>  <filename>  (1) 
O=C1NC(=S)SC1=CC=Cc1cccnc1

$$$$
