
     RDKit          3D

 37 39  0  0  0  0  0  0  0  0999 V2000
    5.0100    1.8934   16.8865 H   0  0  0  0  0  0  0  0  0  0  0  0
    5.4301    1.4030   17.7652 C   0  0  0  0  0  0  0  0  0  0  0  0
    6.6049    0.7775   17.5868 N   0  0  0  0  0  0  0  0  0  0  0  0
    7.1455    0.1570   18.6439 C   0  0  0  0  0  0  0  0  0  0  0  0
    8.1135   -0.3213   18.5047 H   0  0  0  0  0  0  0  0  0  0  0  0
    6.5340    0.0988   19.9108 C   0  0  0  0  0  0  0  0  0  0  0  0
    7.1452   -0.6141   21.0101 N   0  0  0  0  0  0  0  0  0  0  0  0
    7.8406    0.1026   21.9676 C   0  0  0  0  0  0  0  0  0  0  0  0
    7.7536    1.1853   21.8879 H   0  0  0  0  0  0  0  0  0  0  0  0
    8.5740   -0.5285   22.9337 C   0  0  0  0  0  0  0  0  0  0  0  0
    9.0563    0.0664   23.7032 H   0  0  0  0  0  0  0  0  0  0  0  0
    8.6312   -1.9631   22.9722 C   0  0  0  0  0  0  0  0  0  0  0  0
    9.3826   -2.7674   24.0407 C   0  0  0  0  0  0  0  0  0  0  0  0
    9.8711   -2.0742   24.7455 H   0  0  0  0  0  0  0  0  0  0  0  0
   10.1743   -3.3484   23.5508 H   0  0  0  0  0  0  0  0  0  0  0  0
    8.4644   -3.7189   24.6888 N   0  0  0  0  0  0  0  0  0  0  0  0
    7.3918   -3.0969   25.4722 C   0  0  0  0  0  0  0  0  0  0  0  0
    6.5238   -3.7748   25.4868 H   0  0  0  0  0  0  0  0  0  0  0  0
    7.0663   -2.1810   24.9696 H   0  0  0  0  0  0  0  0  0  0  0  0
    7.8347   -2.7806   26.9106 C   0  0  0  0  0  0  0  0  0  0  0  0
    8.6184   -2.0027   26.8830 H   0  0  0  0  0  0  0  0  0  0  0  0
    6.9922   -2.4093   27.5007 H   0  0  0  0  0  0  0  0  0  0  0  0
    8.3195   -3.9399   27.5788 O   0  0  0  0  0  0  0  0  0  0  0  0
    9.3770   -4.5787   26.8692 C   0  0  0  0  0  0  0  0  0  0  0  0
    9.5719   -5.5116   27.4034 H   0  0  0  0  0  0  0  0  0  0  0  0
   10.2870   -3.9661   26.9013 H   0  0  0  0  0  0  0  0  0  0  0  0
    8.9947   -4.8759   25.4089 C   0  0  0  0  0  0  0  0  0  0  0  0
    8.2041   -5.6408   25.4357 H   0  0  0  0  0  0  0  0  0  0  0  0
    9.8429   -5.3139   24.8707 H   0  0  0  0  0  0  0  0  0  0  0  0
    7.9121   -2.6697   22.0443 C   0  0  0  0  0  0  0  0  0  0  0  0
    7.8880   -3.7467   22.0397 H   0  0  0  0  0  0  0  0  0  0  0  0
    7.0412   -2.0485   21.0689 C   0  0  0  0  0  0  0  0  0  0  0  0
    6.2675   -2.6664   20.3613 O   0  0  0  0  0  0  0  0  0  0  0  0
    5.3295    0.7801   20.0909 C   0  0  0  0  0  0  0  0  0  0  0  0
    4.8703    0.7921   21.0767 H   0  0  0  0  0  0  0  0  0  0  0  0
    4.7599    1.4380   18.9922 C   0  0  0  0  0  0  0  0  0  0  0  0
    3.8118    1.9566   19.0700 H   0  0  0  0  0  0  0  0  0  0  0  0
  1  2  1  0
  2  3  2  0
  3  4  1  0
  4  5  1  0
  4  6  2  0
  6  7  1  0
  7  8  1  0
  8  9  1  0
  8 10  2  0
 10 11  1  0
 10 12  1  0
 12 13  1  0
 13 14  1  0
 13 15  1  0
 13 16  1  0
 16 17  1  0
 17 18  1  0
 17 19  1  0
 17 20  1  0
 20 21  1  0
 20 22  1  0
 20 23  1  0
 23 24  1  0
 24 25  1  0
 24 26  1  0
 24 27  1  0
 27 28  1  0
 27 29  1  0
 12 30  2  0
 30 31  1  0
 30 32  1  0
 32 33  2  0
  6 34  1  0
 34 35  1  0
 34 36  2  0
 36 37  1  0
 36  2  1  0
 32  7  1  0
 27 16  1  0
M  END
>  <cnnaffinity>  (1) 
-4.91373

>  <filename>  (1) 
O=c1cc(CN2CCOCC2)ccn1-c1cccnc1

$$$$
