
     RDKit          3D

 37 39  0  0  0  0  0  0  0  0999 V2000
    4.9126    1.7919   16.9861 H   0  0  0  0  0  0  0  0  0  0  0  0
    5.3947    1.2973   17.8261 C   0  0  0  0  0  0  0  0  0  0  0  0
    6.5583    0.6828   17.5599 N   0  0  0  0  0  0  0  0  0  0  0  0
    7.1638    0.0505   18.5710 C   0  0  0  0  0  0  0  0  0  0  0  0
    8.1231   -0.4175   18.3628 H   0  0  0  0  0  0  0  0  0  0  0  0
    6.6458   -0.0050   19.8787 C   0  0  0  0  0  0  0  0  0  0  0  0
    7.3449   -0.6860   20.9397 N   0  0  0  0  0  0  0  0  0  0  0  0
    7.5787   -2.0398   20.8133 C   0  0  0  0  0  0  0  0  0  0  0  0
    7.1526   -2.4647   19.9079 H   0  0  0  0  0  0  0  0  0  0  0  0
    8.2411   -2.7524   21.7634 C   0  0  0  0  0  0  0  0  0  0  0  0
    8.4034   -3.8209   21.6328 H   0  0  0  0  0  0  0  0  0  0  0  0
    8.6999   -2.0863   22.9437 C   0  0  0  0  0  0  0  0  0  0  0  0
    9.3317   -2.8939   24.0512 C   0  0  0  0  0  0  0  0  0  0  0  0
    9.9298   -2.2257   24.6798 H   0  0  0  0  0  0  0  0  0  0  0  0
   10.0224   -3.6270   23.6170 H   0  0  0  0  0  0  0  0  0  0  0  0
    8.2809   -3.6093   24.9338 C   0  0  0  0  0  0  0  0  0  0  0  0
    8.7989   -4.2380   25.6701 H   0  0  0  0  0  0  0  0  0  0  0  0
    7.6999   -4.2921   24.3022 H   0  0  0  0  0  0  0  0  0  0  0  0
    7.3476   -2.6450   25.6384 C   0  0  0  0  0  0  0  0  0  0  0  0
    7.7732   -1.9828   26.8012 C   0  0  0  0  0  0  0  0  0  0  0  0
    8.7579   -2.2085   27.2087 H   0  0  0  0  0  0  0  0  0  0  0  0
    6.9539   -1.0364   27.4220 C   0  0  0  0  0  0  0  0  0  0  0  0
    7.2902   -0.5133   28.3104 H   0  0  0  0  0  0  0  0  0  0  0  0
    5.6975   -0.7339   26.8896 C   0  0  0  0  0  0  0  0  0  0  0  0
    5.0625   -0.0026   27.3836 H   0  0  0  0  0  0  0  0  0  0  0  0
    5.2695   -1.3681   25.7196 C   0  0  0  0  0  0  0  0  0  0  0  0
    4.2999   -1.1247   25.2906 H   0  0  0  0  0  0  0  0  0  0  0  0
    6.0908   -2.3144   25.0994 C   0  0  0  0  0  0  0  0  0  0  0  0
    5.7706   -2.7822   24.1696 H   0  0  0  0  0  0  0  0  0  0  0  0
    8.4478   -0.7496   23.0896 C   0  0  0  0  0  0  0  0  0  0  0  0
    8.7158   -0.1914   23.9753 H   0  0  0  0  0  0  0  0  0  0  0  0
    7.7528    0.0459   22.1090 C   0  0  0  0  0  0  0  0  0  0  0  0
    7.5405    1.2409   22.2276 O   0  0  0  0  0  0  0  0  0  0  0  0
    5.4387    0.6447   20.1511 C   0  0  0  0  0  0  0  0  0  0  0  0
    5.0380    0.6334   21.1674 H   0  0  0  0  0  0  0  0  0  0  0  0
    4.8037    1.3062   19.0956 C   0  0  0  0  0  0  0  0  0  0  0  0
    3.8751    1.8433   19.2555 H   0  0  0  0  0  0  0  0  0  0  0  0
  1  2  1  0
  2  3  2  0
  3  4  1  0
  4  5  1  0
  4  6  2  0
  6  7  1  0
  7  8  1  0
  8  9  1  0
  8 10  2  0
 10 11  1  0
 10 12  1  0
 12 13  1  0
 13 14  1  0
 13 15  1  0
 13 16  1  0
 16 17  1  0
 16 18  1  0
 16 19  1  0
 19 20  2  0
 20 21  1  0
 20 22  1  0
 22 23  1  0
 22 24  2  0
 24 25  1  0
 24 26  1  0
 26 27  1  0
 26 28  2  0
 28 29  1  0
 12 30  2  0
 30 31  1  0
 30 32  1  0
 32 33  2  0
  6 34  1  0
 34 35  1  0
 34 36  2  0
 36 37  1  0
 36  2  1  0
 32  7  1  0
 28 19  1  0
M  END
>  <cnnaffinity>  (1) 
-5.12529

>  <filename>  (1) 
O=c1cc(CCc2ccccc2)ccn1-c1cccnc1

$$$$
