
     RDKit          3D

 34 36  0  0  0  0  0  0  0  0999 V2000
    4.9819    1.7449   16.8742 H   0  0  0  0  0  0  0  0  0  0  0  0
    5.4304    1.2820   17.7515 C   0  0  0  0  0  0  0  0  0  0  0  0
    6.5643    0.5900   17.5414 N   0  0  0  0  0  0  0  0  0  0  0  0
    7.1257   -0.0253   18.5898 C   0  0  0  0  0  0  0  0  0  0  0  0
    8.0087   -0.6283   18.3862 H   0  0  0  0  0  0  0  0  0  0  0  0
    6.6220    0.0773   19.9013 C   0  0  0  0  0  0  0  0  0  0  0  0
    7.2775   -0.5816   20.9939 N   0  0  0  0  0  0  0  0  0  0  0  0
    7.5726   -1.9176   20.7762 N   0  0  0  0  0  0  0  0  0  0  0  0
    8.0596   -2.6177   21.7760 C   0  0  0  0  0  0  0  0  0  0  0  0
    8.1865   -3.9570   21.5250 N   0  0  0  0  0  0  0  0  0  0  0  0
    7.8161   -4.1235   20.6024 H   0  0  0  0  0  0  0  0  0  0  0  0
    8.5121   -5.0269   22.4496 C   0  0  0  0  0  0  0  0  0  0  0  0
    9.4235   -4.7665   23.0020 H   0  0  0  0  0  0  0  0  0  0  0  0
    8.7750   -5.8977   21.8365 H   0  0  0  0  0  0  0  0  0  0  0  0
    7.4846   -5.4555   23.5072 C   0  0  0  0  0  0  0  0  0  0  0  0
    7.8166   -5.4065   24.8712 C   0  0  0  0  0  0  0  0  0  0  0  0
    8.7730   -5.0169   25.1985 H   0  0  0  0  0  0  0  0  0  0  0  0
    6.8988   -5.8336   25.8313 C   0  0  0  0  0  0  0  0  0  0  0  0
    7.1583   -5.7661   26.8864 H   0  0  0  0  0  0  0  0  0  0  0  0
    5.6849   -6.3082   25.5315 N   0  0  0  0  0  0  0  0  0  0  0  0
    5.3562   -6.3519   24.2352 C   0  0  0  0  0  0  0  0  0  0  0  0
    4.3629   -6.7282   24.0033 H   0  0  0  0  0  0  0  0  0  0  0  0
    6.2110   -5.9542   23.2017 C   0  0  0  0  0  0  0  0  0  0  0  0
    5.8710   -6.0367   22.1784 H   0  0  0  0  0  0  0  0  0  0  0  0
    8.4564   -2.0126   23.0183 C   0  0  0  0  0  0  0  0  0  0  0  0
    8.8937   -2.6530   23.7753 H   0  0  0  0  0  0  0  0  0  0  0  0
    8.2540   -0.6848   23.1986 C   0  0  0  0  0  0  0  0  0  0  0  0
    8.5358   -0.1429   24.0929 H   0  0  0  0  0  0  0  0  0  0  0  0
    7.5636    0.1396   22.2070 C   0  0  0  0  0  0  0  0  0  0  0  0
    7.2669    1.3060   22.3927 O   0  0  0  0  0  0  0  0  0  0  0  0
    5.4450    0.8057   20.1138 C   0  0  0  0  0  0  0  0  0  0  0  0
    5.0294    0.8944   21.1156 H   0  0  0  0  0  0  0  0  0  0  0  0
    4.8262    1.3933   19.0066 C   0  0  0  0  0  0  0  0  0  0  0  0
    3.8866    1.9266   19.1059 H   0  0  0  0  0  0  0  0  0  0  0  0
  1  2  1  0
  2  3  2  0
  3  4  1  0
  4  5  1  0
  4  6  2  0
  6  7  1  0
  7  8  1  0
  8  9  2  0
  9 10  1  0
 10 11  1  0
 10 12  1  0
 12 13  1  0
 12 14  1  0
 12 15  1  0
 15 16  2  0
 16 17  1  0
 16 18  1  0
 18 19  1  0
 18 20  2  0
 20 21  1  0
 21 22  1  0
 21 23  2  0
 23 24  1  0
  9 25  1  0
 25 26  1  0
 25 27  2  0
 27 28  1  0
 27 29  1  0
 29 30  2  0
  6 31  1  0
 31 32  1  0
 31 33  2  0
 33 34  1  0
 33  2  1  0
 29  7  1  0
 23 15  1  0
M  END
>  <cnnaffinity>  (1) 
-5.11949

>  <filename>  (1) 
O=c1ccc(NCc2ccncc2)nn1-c1cccnc1

$$$$
