
     RDKit          3D

 28 30  0  0  0  0  0  0  0  0999 V2000
    6.9759   -3.7827   25.3111 H   0  0  0  0  0  0  0  0  0  0  0  0
    7.8688   -3.5330   24.7540 C   0  0  0  0  0  0  0  0  0  0  0  0
    9.1047   -4.0296   24.7414 C   0  0  0  0  0  0  0  0  0  0  0  0
    9.5885   -4.8052   25.3169 H   0  0  0  0  0  0  0  0  0  0  0  0
    9.9152   -3.2382   23.7856 C   0  0  0  0  0  0  0  0  0  0  0  0
   11.0971   -3.3400   23.5558 O   0  0  0  0  0  0  0  0  0  0  0  0
    9.0578   -2.2996   23.1949 N   0  0  0  0  0  0  0  0  0  0  0  0
    9.4127   -1.3694   22.2034 C   0  0  0  0  0  0  0  0  0  0  0  0
    8.6735   -0.5944   21.3081 C   0  0  0  0  0  0  0  0  0  0  0  0
    7.2917   -0.5693   21.0820 N   0  0  0  0  0  0  0  0  0  0  0  0
    6.7304   -0.7700   21.9116 H   0  0  0  0  0  0  0  0  0  0  0  0
    6.6519   -0.0157   19.9665 C   0  0  0  0  0  0  0  0  0  0  0  0
    7.1600   -0.0316   18.6363 C   0  0  0  0  0  0  0  0  0  0  0  0
    8.0707   -0.5802   18.4019 H   0  0  0  0  0  0  0  0  0  0  0  0
    6.5797    0.5979   17.6014 N   0  0  0  0  0  0  0  0  0  0  0  0
    5.4394    1.2646   17.8438 C   0  0  0  0  0  0  0  0  0  0  0  0
    5.0157    1.7967   16.9967 H   0  0  0  0  0  0  0  0  0  0  0  0
    4.8060    1.2738   19.0952 C   0  0  0  0  0  0  0  0  0  0  0  0
    3.8698    1.8111   19.2206 H   0  0  0  0  0  0  0  0  0  0  0  0
    5.4105    0.6024   20.1659 C   0  0  0  0  0  0  0  0  0  0  0  0
    4.9598    0.5588   21.1606 H   0  0  0  0  0  0  0  0  0  0  0  0
    9.6587    0.1996   20.6795 C   0  0  0  0  0  0  0  0  0  0  0  0
    9.4820    0.9643   19.9411 H   0  0  0  0  0  0  0  0  0  0  0  0
   10.8852   -0.0754   21.1004 N   0  0  0  0  0  0  0  0  0  0  0  0
   10.7098   -1.0338   22.0174 N   0  0  0  0  0  0  0  0  0  0  0  0
   11.4690   -1.5588   22.4347 H   0  0  0  0  0  0  0  0  0  0  0  0
    7.8082   -2.3897   23.8041 C   0  0  0  0  0  0  0  0  0  0  0  0
    6.8560   -1.6727   23.5854 O   0  0  0  0  0  0  0  0  0  0  0  0
  1  2  1  0
  2  3  2  0
  3  4  1  0
  3  5  1  0
  5  6  2  0
  5  7  1  0
  7  8  1  0
  8  9  2  0
  9 10  1  0
 10 11  1  0
 10 12  1  0
 12 13  2  0
 13 14  1  0
 13 15  1  0
 15 16  2  0
 16 17  1  0
 16 18  1  0
 18 19  1  0
 18 20  2  0
 20 21  1  0
  9 22  1  0
 22 23  1  0
 22 24  2  0
 24 25  1  0
 25 26  1  0
  7 27  1  0
 27 28  2  0
 27  2  1  0
 25  8  1  0
 20 12  1  0
M  END
>  <cnnaffinity>  (1) 
-5.32372

>  <filename>  (1) 
O=C1C=CC(=O)N1c1[nH]ncc1Nc1cccnc1

$$$$
