
     RDKit          3D

 32 35  0  0  0  0  0  0  0  0999 V2000
   10.0850   -3.6339   22.5919 H   0  0  0  0  0  0  0  0  0  0  0  0
    9.5162   -2.7064   22.7261 C   0  0  0  0  0  0  0  0  0  0  0  0
   10.1904   -1.5622   22.8694 C   0  0  0  0  0  0  0  0  0  0  0  0
   11.8676   -1.2355   22.4000 S   0  0  0  0  0  0  0  0  0  0  0  0
   11.9472    0.2141   23.4115 C   0  0  0  0  0  0  0  0  0  0  0  0
   13.2718    1.1171   23.6871 S   0  0  0  0  0  0  0  0  0  0  0  0
   10.7121    0.4523   23.9245 N   0  0  0  0  0  0  0  0  0  0  0  0
   10.5189    1.2400   24.5139 H   0  0  0  0  0  0  0  0  0  0  0  0
    9.6592   -0.3712   23.5820 C   0  0  0  0  0  0  0  0  0  0  0  0
    8.5162   -0.1027   23.8508 O   0  0  0  0  0  0  0  0  0  0  0  0
    8.0268   -2.8266   22.8467 C   0  0  0  0  0  0  0  0  0  0  0  0
    7.2327   -2.2326   21.7047 C   0  0  0  0  0  0  0  0  0  0  0  0
    6.2163   -2.8162   21.1324 N   0  0  0  0  0  0  0  0  0  0  0  0
    5.6899   -2.0867   20.0998 N   0  0  0  0  0  0  0  0  0  0  0  0
    6.2991   -0.9467   19.9338 C   0  0  0  0  0  0  0  0  0  0  0  0
    5.9377    0.0637   18.9027 C   0  0  0  0  0  0  0  0  0  0  0  0
    6.7208    0.1349   17.7396 C   0  0  0  0  0  0  0  0  0  0  0  0
    7.5574   -0.5480   17.5940 H   0  0  0  0  0  0  0  0  0  0  0  0
    6.5032    1.0124   16.7538 N   0  0  0  0  0  0  0  0  0  0  0  0
    5.4750    1.8582   16.8861 C   0  0  0  0  0  0  0  0  0  0  0  0
    5.2962    2.5421   16.0573 H   0  0  0  0  0  0  0  0  0  0  0  0
    4.6365    1.8713   18.0022 C   0  0  0  0  0  0  0  0  0  0  0  0
    3.8105    2.5691   18.0340 H   0  0  0  0  0  0  0  0  0  0  0  0
    4.8758    0.9704   19.0399 C   0  0  0  0  0  0  0  0  0  0  0  0
    4.2570    0.9873   19.9379 H   0  0  0  0  0  0  0  0  0  0  0  0
    7.6321   -0.6961   21.0076 S   0  0  0  0  0  0  0  0  0  0  0  0
    7.4404   -2.8376   24.2630 C   0  0  0  0  0  0  0  0  0  0  0  0
    6.4726   -2.3642   24.4004 H   0  0  0  0  0  0  0  0  0  0  0  0
    8.1602   -2.6826   25.0651 H   0  0  0  0  0  0  0  0  0  0  0  0
    7.5179   -4.1046   23.4918 C   0  0  0  0  0  0  0  0  0  0  0  0
    6.6033   -4.5341   23.0896 H   0  0  0  0  0  0  0  0  0  0  0  0
    8.2869   -4.8142   23.7838 H   0  0  0  0  0  0  0  0  0  0  0  0
  1  2  1  0
  2  3  2  3
  3  4  1  0
  4  5  1  0
  5  6  2  0
  5  7  1  0
  7  8  1  0
  7  9  1  0
  9 10  2  0
  2 11  1  0
 11 12  1  0
 12 13  2  0
 13 14  1  0
 14 15  2  0
 15 16  1  0
 16 17  2  0
 17 18  1  0
 17 19  1  0
 19 20  2  0
 20 21  1  0
 20 22  1  0
 22 23  1  0
 22 24  2  0
 24 25  1  0
 15 26  1  0
 11 27  1  0
 27 28  1  0
 27 29  1  0
 27 30  1  0
 30 31  1  0
 30 32  1  0
  9  3  1  0
 30 11  1  0
 26 12  1  0
 24 16  1  0
M  END
>  <cnnaffinity>  (1) 
-5.76251

>  <filename>  (1) 
O=C1NC(=S)SC1=CC1(c2nnc(-c3cccnc3)s2)CC1

$$$$
