
     RDKit          3D

 30 32  0  0  0  0  0  0  0  0999 V2000
   10.0615   -1.3031   25.6698 H   0  0  0  0  0  0  0  0  0  0  0  0
    9.7602   -1.5608   24.7888 O   0  0  0  0  0  0  0  0  0  0  0  0
    8.7625   -2.4909   24.9527 C   0  0  0  0  0  0  0  0  0  0  0  0
    8.6236   -3.1482   26.1773 C   0  0  0  0  0  0  0  0  0  0  0  0
    9.3127   -2.9045   26.9843 H   0  0  0  0  0  0  0  0  0  0  0  0
    7.6346   -4.1212   26.3446 C   0  0  0  0  0  0  0  0  0  0  0  0
    7.5453   -4.6493   27.2914 H   0  0  0  0  0  0  0  0  0  0  0  0
    6.7708   -4.4312   25.2939 C   0  0  0  0  0  0  0  0  0  0  0  0
    6.0014   -5.1895   25.4200 H   0  0  0  0  0  0  0  0  0  0  0  0
    6.8944   -3.7631   24.0699 C   0  0  0  0  0  0  0  0  0  0  0  0
    6.2163   -3.9700   23.2539 H   0  0  0  0  0  0  0  0  0  0  0  0
    7.8925   -2.7961   23.8713 C   0  0  0  0  0  0  0  0  0  0  0  0
    8.0062   -2.1435   22.6010 N   0  0  0  0  0  0  0  0  0  0  0  0
    6.9715   -1.8450   21.6937 C   0  0  0  0  0  0  0  0  0  0  0  0
    5.8466   -2.3251   21.7076 O   0  0  0  0  0  0  0  0  0  0  0  0
    7.5849   -0.8848   20.7422 C   0  0  0  0  0  0  0  0  0  0  0  0
    6.8707   -0.1249   19.6915 C   0  0  0  0  0  0  0  0  0  0  0  0
    7.3367    0.0586   18.3649 C   0  0  0  0  0  0  0  0  0  0  0  0
    8.2814   -0.3758   18.0400 H   0  0  0  0  0  0  0  0  0  0  0  0
    6.6749    0.7463   17.4205 N   0  0  0  0  0  0  0  0  0  0  0  0
    5.5189    1.3330   17.7735 C   0  0  0  0  0  0  0  0  0  0  0  0
    5.0036    1.9070   16.9998 H   0  0  0  0  0  0  0  0  0  0  0  0
    4.9736    1.2281   19.0558 C   0  0  0  0  0  0  0  0  0  0  0  0
    4.0414    1.7281   19.2857 H   0  0  0  0  0  0  0  0  0  0  0  0
    5.6476    0.4763   20.0168 C   0  0  0  0  0  0  0  0  0  0  0  0
    5.2423    0.3367   21.0189 H   0  0  0  0  0  0  0  0  0  0  0  0
    8.8857   -0.7611   21.0962 C   0  0  0  0  0  0  0  0  0  0  0  0
    9.6350   -0.1365   20.6211 H   0  0  0  0  0  0  0  0  0  0  0  0
    9.2048   -1.5510   22.1702 N   0  0  0  0  0  0  0  0  0  0  0  0
    9.8741   -1.2908   22.8961 H   0  0  0  0  0  0  0  0  0  0  0  0
  1  2  1  0
  2  3  1  0
  3  4  2  0
  4  5  1  0
  4  6  1  0
  6  7  1  0
  6  8  2  0
  8  9  1  0
  8 10  1  0
 10 11  1  0
 10 12  2  0
 12 13  1  0
 13 14  1  0
 14 15  2  0
 14 16  1  0
 16 17  1  0
 17 18  2  0
 18 19  1  0
 18 20  1  0
 20 21  2  0
 21 22  1  0
 21 23  1  0
 23 24  1  0
 23 25  2  0
 25 26  1  0
 16 27  2  0
 27 28  1  0
 27 29  1  0
 29 30  1  0
 12  3  1  0
 29 13  1  0
 25 17  1  0
M  END
>  <cnnaffinity>  (1) 
-4.75603

>  <filename>  (1) 
O=c1c(-c2cccnc2)c[nH]n1-c1ccccc1O

$$$$
