
     RDKit          3D

 35 37  0  0  0  0  0  0  0  0999 V2000
    4.9382    1.9041   16.9750 H   0  0  0  0  0  0  0  0  0  0  0  0
    5.4675    1.3428   17.7385 C   0  0  0  0  0  0  0  0  0  0  0  0
    6.6355    0.7914   17.3697 N   0  0  0  0  0  0  0  0  0  0  0  0
    7.3223    0.1162   18.3041 C   0  0  0  0  0  0  0  0  0  0  0  0
    8.2749   -0.3091   17.9830 H   0  0  0  0  0  0  0  0  0  0  0  0
    6.8663   -0.0753   19.6293 C   0  0  0  0  0  0  0  0  0  0  0  0
    7.5807   -0.8581   20.6657 C   0  0  0  0  0  0  0  0  0  0  0  0
    8.8482   -0.7334   21.1081 C   0  0  0  0  0  0  0  0  0  0  0  0
    9.6422   -0.1560   20.6581 H   0  0  0  0  0  0  0  0  0  0  0  0
    9.0422   -1.3599   22.3385 N   0  0  0  0  0  0  0  0  0  0  0  0
    9.8744   -1.9444   22.4334 H   0  0  0  0  0  0  0  0  0  0  0  0
    7.8515   -2.0778   22.5604 N   0  0  0  0  0  0  0  0  0  0  0  0
    7.5143   -2.7532   23.8131 C   0  0  0  0  0  0  0  0  0  0  0  0
    6.4231   -2.8012   23.7833 H   0  0  0  0  0  0  0  0  0  0  0  0
    8.0296   -4.2044   23.8449 C   0  0  0  0  0  0  0  0  0  0  0  0
    7.4975   -4.7372   24.6465 H   0  0  0  0  0  0  0  0  0  0  0  0
    7.7715   -4.7076   22.9060 H   0  0  0  0  0  0  0  0  0  0  0  0
    9.5318   -4.2870   24.1275 C   0  0  0  0  0  0  0  0  0  0  0  0
    9.8401   -5.3339   24.2253 H   0  0  0  0  0  0  0  0  0  0  0  0
   10.0881   -3.8656   23.2775 H   0  0  0  0  0  0  0  0  0  0  0  0
    9.9270   -3.5376   25.4054 C   0  0  0  0  0  0  0  0  0  0  0  0
   11.0156   -3.6001   25.4892 H   0  0  0  0  0  0  0  0  0  0  0  0
    9.5239   -4.0545   26.2883 H   0  0  0  0  0  0  0  0  0  0  0  0
    9.4397   -2.0768   25.4212 C   0  0  0  0  0  0  0  0  0  0  0  0
   10.0341   -1.4725   24.7258 H   0  0  0  0  0  0  0  0  0  0  0  0
    9.6073   -1.6326   26.4133 H   0  0  0  0  0  0  0  0  0  0  0  0
    7.9436   -1.9739   25.0730 C   0  0  0  0  0  0  0  0  0  0  0  0
    7.6456   -0.9307   24.9419 H   0  0  0  0  0  0  0  0  0  0  0  0
    7.3663   -2.3856   25.9152 H   0  0  0  0  0  0  0  0  0  0  0  0
    6.9166   -1.8385   21.5663 C   0  0  0  0  0  0  0  0  0  0  0  0
    5.8240   -2.3873   21.5007 O   0  0  0  0  0  0  0  0  0  0  0  0
    5.6527    0.5339   19.9849 C   0  0  0  0  0  0  0  0  0  0  0  0
    5.3034    0.4435   21.0170 H   0  0  0  0  0  0  0  0  0  0  0  0
    4.9431    1.2541   19.0323 C   0  0  0  0  0  0  0  0  0  0  0  0
    4.0194    1.7620   19.2824 H   0  0  0  0  0  0  0  0  0  0  0  0
  1  2  1  0
  2  3  2  0
  3  4  1  0
  4  5  1  0
  4  6  2  0
  6  7  1  0
  7  8  2  0
  8  9  1  0
  8 10  1  0
 10 11  1  0
 10 12  1  0
 12 13  1  0
 13 14  1  0
 13 15  1  0
 15 16  1  0
 15 17  1  0
 15 18  1  0
 18 19  1  0
 18 20  1  0
 18 21  1  0
 21 22  1  0
 21 23  1  0
 21 24  1  0
 24 25  1  0
 24 26  1  0
 24 27  1  0
 27 28  1  0
 27 29  1  0
 12 30  1  0
 30 31  2  0
  6 32  1  0
 32 33  1  0
 32 34  2  0
 34 35  1  0
 34  2  1  0
 30  7  1  0
 27 13  1  0
M  END
>  <cnnaffinity>  (1) 
-4.77465

>  <filename>  (1) 
O=c1c(-c2cccnc2)c[nH]n1C1CCCCC1

$$$$
