
     RDKit          3D

 30 33  0  0  0  0  0  0  0  0999 V2000
    8.7997    0.3381   28.4192 H   0  0  0  0  0  0  0  0  0  0  0  0
    8.3811   -0.1231   27.5369 C   0  0  0  0  0  0  0  0  0  0  0  0
    7.1318   -0.4615   27.2344 C   0  0  0  0  0  0  0  0  0  0  0  0
    6.2081   -0.3482   27.7821 H   0  0  0  0  0  0  0  0  0  0  0  0
    7.0923   -1.0076   25.8512 C   0  0  0  0  0  0  0  0  0  0  0  0
    6.1251   -1.3471   25.2245 O   0  0  0  0  0  0  0  0  0  0  0  0
    8.4260   -1.0067   25.4105 N   0  0  0  0  0  0  0  0  0  0  0  0
    8.8192   -1.3373   24.1418 N   0  0  0  0  0  0  0  0  0  0  0  0
   10.0079   -1.9832   23.8446 C   0  0  0  0  0  0  0  0  0  0  0  0
   10.7018   -2.1720   24.6483 H   0  0  0  0  0  0  0  0  0  0  0  0
   10.0883   -2.1330   22.5029 C   0  0  0  0  0  0  0  0  0  0  0  0
   10.8103   -2.5947   21.8569 H   0  0  0  0  0  0  0  0  0  0  0  0
    8.9492   -1.5431   21.9804 N   0  0  0  0  0  0  0  0  0  0  0  0
    8.5216   -1.2828   20.7328 N   0  0  0  0  0  0  0  0  0  0  0  0
    7.3753   -0.6166   20.9538 C   0  0  0  0  0  0  0  0  0  0  0  0
    6.6142   -0.0222   19.8429 C   0  0  0  0  0  0  0  0  0  0  0  0
    7.1431   -0.0033   18.5387 C   0  0  0  0  0  0  0  0  0  0  0  0
    8.0720   -0.5245   18.3219 H   0  0  0  0  0  0  0  0  0  0  0  0
    6.5677    0.6290   17.5113 N   0  0  0  0  0  0  0  0  0  0  0  0
    5.4223    1.2870   17.7492 C   0  0  0  0  0  0  0  0  0  0  0  0
    4.9960    1.8384   16.9104 H   0  0  0  0  0  0  0  0  0  0  0  0
    4.7895    1.2940   18.9979 C   0  0  0  0  0  0  0  0  0  0  0  0
    3.8714    1.8537   19.1368 H   0  0  0  0  0  0  0  0  0  0  0  0
    5.3874    0.6241   20.0622 C   0  0  0  0  0  0  0  0  0  0  0  0
    4.9142    0.6135   21.0477 H   0  0  0  0  0  0  0  0  0  0  0  0
    7.0719   -0.4708   22.3263 C   0  0  0  0  0  0  0  0  0  0  0  0
    6.1793   -0.0707   22.7732 H   0  0  0  0  0  0  0  0  0  0  0  0
    8.1606   -1.0583   22.9600 C   0  0  0  0  0  0  0  0  0  0  0  0
    9.2621   -0.4287   26.3767 C   0  0  0  0  0  0  0  0  0  0  0  0
   10.4466   -0.2291   26.2613 O   0  0  0  0  0  0  0  0  0  0  0  0
  1  2  1  0
  2  3  2  0
  3  4  1  0
  3  5  1  0
  5  6  2  0
  5  7  1  0
  7  8  1  0
  8  9  1  0
  9 10  1  0
  9 11  2  0
 11 12  1  0
 11 13  1  0
 13 14  1  0
 14 15  2  0
 15 16  1  0
 16 17  2  0
 17 18  1  0
 17 19  1  0
 19 20  2  0
 20 21  1  0
 20 22  1  0
 22 23  1  0
 22 24  2  0
 24 25  1  0
 15 26  1  0
 26 27  1  0
 26 28  2  0
  7 29  1  0
 29 30  2  0
 29  2  1  0
 28  8  1  0
 28 13  1  0
 24 16  1  0
M  END
>  <cnnaffinity>  (1) 
-5.11693

>  <filename>  (1) 
O=C1C=CC(=O)N1n1ccn2nc(-c3cccnc3)cc12

$$$$
