
     RDKit          3D

 33 35  0  0  0  0  0  0  0  0999 V2000
    5.9602   -3.2691   23.8225 H   0  0  0  0  0  0  0  0  0  0  0  0
    6.8772   -3.3271   24.4014 C   0  0  0  0  0  0  0  0  0  0  0  0
    7.9436   -2.6788   23.9233 C   0  0  0  0  0  0  0  0  0  0  0  0
    8.8771   -2.5572   24.4710 H   0  0  0  0  0  0  0  0  0  0  0  0
    7.9945   -2.0604   22.6718 N   0  0  0  0  0  0  0  0  0  0  0  0
    6.9494   -1.7714   21.7741 C   0  0  0  0  0  0  0  0  0  0  0  0
    5.8282   -2.2525   21.8041 O   0  0  0  0  0  0  0  0  0  0  0  0
    7.5602   -0.8389   20.7994 C   0  0  0  0  0  0  0  0  0  0  0  0
    6.8121   -0.0824   19.7688 C   0  0  0  0  0  0  0  0  0  0  0  0
    7.2823    0.0842   18.4509 C   0  0  0  0  0  0  0  0  0  0  0  0
    8.2265   -0.3639   18.1540 H   0  0  0  0  0  0  0  0  0  0  0  0
    6.6261    0.7442   17.4866 N   0  0  0  0  0  0  0  0  0  0  0  0
    5.4523    1.3118   17.8085 C   0  0  0  0  0  0  0  0  0  0  0  0
    4.9265    1.8273   17.0014 H   0  0  0  0  0  0  0  0  0  0  0  0
    4.9076    1.2521   19.0958 C   0  0  0  0  0  0  0  0  0  0  0  0
    3.9716    1.7644   19.3011 H   0  0  0  0  0  0  0  0  0  0  0  0
    5.5995    0.5531   20.0871 C   0  0  0  0  0  0  0  0  0  0  0  0
    5.2238    0.5031   21.1094 H   0  0  0  0  0  0  0  0  0  0  0  0
    8.8671   -0.7217   21.1368 C   0  0  0  0  0  0  0  0  0  0  0  0
    9.6517   -0.2064   20.6004 H   0  0  0  0  0  0  0  0  0  0  0  0
    9.1472   -1.3366   22.3452 N   0  0  0  0  0  0  0  0  0  0  0  0
   10.0007   -1.8899   22.4365 H   0  0  0  0  0  0  0  0  0  0  0  0
    6.7951   -4.0955   25.6566 C   0  0  0  0  0  0  0  0  0  0  0  0
    5.5158   -4.4895   26.1001 C   0  0  0  0  0  0  0  0  0  0  0  0
    4.6463   -4.2179   25.5061 H   0  0  0  0  0  0  0  0  0  0  0  0
    5.3573   -5.2240   27.2751 C   0  0  0  0  0  0  0  0  0  0  0  0
    4.3641   -5.5160   27.6049 H   0  0  0  0  0  0  0  0  0  0  0  0
    6.4815   -5.5839   28.0276 C   0  0  0  0  0  0  0  0  0  0  0  0
    6.3649   -6.1559   28.9436 H   0  0  0  0  0  0  0  0  0  0  0  0
    7.7581   -5.2132   27.5930 C   0  0  0  0  0  0  0  0  0  0  0  0
    8.6371   -5.5054   28.1605 H   0  0  0  0  0  0  0  0  0  0  0  0
    7.9175   -4.4725   26.4190 C   0  0  0  0  0  0  0  0  0  0  0  0
    8.9144   -4.2130   26.0739 H   0  0  0  0  0  0  0  0  0  0  0  0
  1  2  1  0
  2  3  2  3
  3  4  1  0
  3  5  1  0
  5  6  1  0
  6  7  2  0
  6  8  1  0
  8  9  1  0
  9 10  2  0
 10 11  1  0
 10 12  1  0
 12 13  2  0
 13 14  1  0
 13 15  1  0
 15 16  1  0
 15 17  2  0
 17 18  1  0
  8 19  2  0
 19 20  1  0
 19 21  1  0
 21 22  1  0
  2 23  1  0
 23 24  2  0
 24 25  1  0
 24 26  1  0
 26 27  1  0
 26 28  2  0
 28 29  1  0
 28 30  1  0
 30 31  1  0
 30 32  2  0
 32 33  1  0
 21  5  1  0
 32 23  1  0
 17  9  1  0
M  END
>  <cnnaffinity>  (1) 
-4.89271

>  <filename>  (1) 
O=c1c(-c2cccnc2)c[nH]n1C=Cc1ccccc1

$$$$
