
     RDKit          3D

 43 46  0  0  0  0  0  0  0  0999 V2000
    3.1279   -8.9635   25.2784 H   0  0  0  0  0  0  0  0  0  0  0  0
    3.3010   -8.0503   25.8465 C   0  0  0  0  0  0  0  0  0  0  0  0
    3.9547   -7.0872   25.2012 N   0  0  0  0  0  0  0  0  0  0  0  0
    4.2223   -5.9672   25.8890 C   0  0  0  0  0  0  0  0  0  0  0  0
    4.8501   -4.9752   25.1856 N   0  0  0  0  0  0  0  0  0  0  0  0
    4.6999   -4.8984   23.7215 C   0  0  0  0  0  0  0  0  0  0  0  0
    5.3184   -5.6626   23.2424 H   0  0  0  0  0  0  0  0  0  0  0  0
    3.6660   -5.1378   23.4428 H   0  0  0  0  0  0  0  0  0  0  0  0
    5.0148   -3.4801   23.2195 C   0  0  0  0  0  0  0  0  0  0  0  0
    4.2670   -2.8510   23.7087 H   0  0  0  0  0  0  0  0  0  0  0  0
    4.8712   -3.3751   22.1432 H   0  0  0  0  0  0  0  0  0  0  0  0
    6.3532   -3.0307   23.6214 N   0  0  0  0  0  0  0  0  0  0  0  0
    7.1671   -2.2517   22.8208 C   0  0  0  0  0  0  0  0  0  0  0  0
    6.5653   -1.5926   21.7631 N   0  0  0  0  0  0  0  0  0  0  0  0
    7.2858   -0.7917   21.0039 C   0  0  0  0  0  0  0  0  0  0  0  0
    6.5885   -0.0427   19.9311 C   0  0  0  0  0  0  0  0  0  0  0  0
    7.1322    0.0134   18.6338 C   0  0  0  0  0  0  0  0  0  0  0  0
    8.0911   -0.4604   18.4270 H   0  0  0  0  0  0  0  0  0  0  0  0
    6.5523    0.6366   17.6042 N   0  0  0  0  0  0  0  0  0  0  0  0
    5.4002    1.2803   17.8388 C   0  0  0  0  0  0  0  0  0  0  0  0
    4.9628    1.8149   16.9983 H   0  0  0  0  0  0  0  0  0  0  0  0
    4.7787    1.3051   19.0916 C   0  0  0  0  0  0  0  0  0  0  0  0
    3.8629    1.8700   19.2234 H   0  0  0  0  0  0  0  0  0  0  0  0
    5.3704    0.6213   20.1516 C   0  0  0  0  0  0  0  0  0  0  0  0
    4.9074    0.6073   21.1393 H   0  0  0  0  0  0  0  0  0  0  0  0
    8.7915   -0.6047   21.1898 C   0  0  0  0  0  0  0  0  0  0  0  0
    9.5819    0.0867   20.5659 O   0  0  0  0  0  0  0  0  0  0  0  0
    9.3013   -1.3482   22.2474 N   0  0  0  0  0  0  0  0  0  0  0  0
   10.2999   -1.1729   22.3510 H   0  0  0  0  0  0  0  0  0  0  0  0
    8.5246   -2.1418   23.0664 C   0  0  0  0  0  0  0  0  0  0  0  0
    8.9970   -2.6690   23.8883 H   0  0  0  0  0  0  0  0  0  0  0  0
    6.7668   -3.4153   24.9824 C   0  0  0  0  0  0  0  0  0  0  0  0
    7.5091   -4.2212   24.9362 H   0  0  0  0  0  0  0  0  0  0  0  0
    7.2287   -2.5697   25.5073 H   0  0  0  0  0  0  0  0  0  0  0  0
    5.5922   -3.9039   25.8462 C   0  0  0  0  0  0  0  0  0  0  0  0
    6.0126   -4.2619   26.7897 H   0  0  0  0  0  0  0  0  0  0  0  0
    4.9365   -3.0519   26.0787 H   0  0  0  0  0  0  0  0  0  0  0  0
    3.8673   -5.7892   27.2472 C   0  0  0  0  0  0  0  0  0  0  0  0
    4.1371   -4.8661   27.7425 H   0  0  0  0  0  0  0  0  0  0  0  0
    3.1632   -6.7992   27.8867 C   0  0  0  0  0  0  0  0  0  0  0  0
    2.9050   -6.7024   28.9424 H   0  0  0  0  0  0  0  0  0  0  0  0
    2.8382   -7.9462   27.1533 C   0  0  0  0  0  0  0  0  0  0  0  0
    2.2562   -8.7626   27.5589 H   0  0  0  0  0  0  0  0  0  0  0  0
  1  2  1  0
  2  3  2  0
  3  4  1  0
  4  5  1  0
  5  6  1  0
  6  7  1  0
  6  8  1  0
  6  9  1  0
  9 10  1  0
  9 11  1  0
  9 12  1  0
 12 13  1  0
 13 14  1  0
 14 15  2  0
 15 16  1  0
 16 17  2  0
 17 18  1  0
 17 19  1  0
 19 20  2  0
 20 21  1  0
 20 22  1  0
 22 23  1  0
 22 24  2  0
 24 25  1  0
 15 26  1  0
 26 27  2  0
 26 28  1  0
 28 29  1  0
 28 30  1  0
 30 31  1  0
 12 32  1  0
 32 33  1  0
 32 34  1  0
 32 35  1  0
 35 36  1  0
 35 37  1  0
  4 38  2  0
 38 39  1  0
 38 40  1  0
 40 41  1  0
 40 42  2  0
 42 43  1  0
 42  2  1  0
 35  5  1  0
 30 13  2  0
 24 16  1  0
M  END
>  <cnnaffinity>  (1) 
-5.46115

>  <filename>  (1) 
O=c1[nH]cc(N2CCN(c3ccccn3)CC2)nc1-c1cccnc1

$$$$
