
     RDKit          3D

 28 30  0  0  0  0  0  0  0  0999 V2000
    4.9792    1.7825   16.9742 H   0  0  0  0  0  0  0  0  0  0  0  0
    5.4493    1.3024   17.8293 C   0  0  0  0  0  0  0  0  0  0  0  0
    6.6302    0.7071   17.5858 N   0  0  0  0  0  0  0  0  0  0  0  0
    7.2399    0.1065   18.6132 C   0  0  0  0  0  0  0  0  0  0  0  0
    8.2155   -0.3447   18.4358 H   0  0  0  0  0  0  0  0  0  0  0  0
    6.6668    0.0210   19.8929 C   0  0  0  0  0  0  0  0  0  0  0  0
    7.3596   -0.6900   20.9195 N   0  0  0  0  0  0  0  0  0  0  0  0
    8.6832   -0.3665   21.0232 N   0  0  0  0  0  0  0  0  0  0  0  0
    9.3959   -0.9287   21.9718 C   0  0  0  0  0  0  0  0  0  0  0  0
   10.8344   -0.5027   22.0336 C   0  0  0  0  0  0  0  0  0  0  0  0
   11.1742    0.8373   21.7249 C   0  0  0  0  0  0  0  0  0  0  0  0
   10.4222    1.5344   21.3749 H   0  0  0  0  0  0  0  0  0  0  0  0
   12.4113    1.3259   21.8567 N   0  0  0  0  0  0  0  0  0  0  0  0
   13.4186    0.5129   22.2094 N   0  0  0  0  0  0  0  0  0  0  0  0
   13.1777   -0.7851   22.4203 C   0  0  0  0  0  0  0  0  0  0  0  0
   14.0326   -1.4136   22.6413 H   0  0  0  0  0  0  0  0  0  0  0  0
   11.8909   -1.3425   22.3819 C   0  0  0  0  0  0  0  0  0  0  0  0
   11.7778   -2.3972   22.6298 H   0  0  0  0  0  0  0  0  0  0  0  0
    8.8160   -1.8733   22.8962 C   0  0  0  0  0  0  0  0  0  0  0  0
    9.4183   -2.2690   23.7116 H   0  0  0  0  0  0  0  0  0  0  0  0
    7.5136   -2.2399   22.7504 C   0  0  0  0  0  0  0  0  0  0  0  0
    6.9945   -2.9534   23.3812 H   0  0  0  0  0  0  0  0  0  0  0  0
    6.6901   -1.7234   21.6643 C   0  0  0  0  0  0  0  0  0  0  0  0
    5.5739   -2.1262   21.3837 O   0  0  0  0  0  0  0  0  0  0  0  0
    5.4404    0.6354   20.1454 C   0  0  0  0  0  0  0  0  0  0  0  0
    4.9992    0.5993   21.1420 H   0  0  0  0  0  0  0  0  0  0  0  0
    4.8284    1.3065   19.0817 C   0  0  0  0  0  0  0  0  0  0  0  0
    3.8878    1.8262   19.2122 H   0  0  0  0  0  0  0  0  0  0  0  0
  1  2  1  0
  2  3  2  0
  3  4  1  0
  4  5  1  0
  4  6  2  0
  6  7  1  0
  7  8  1  0
  8  9  2  0
  9 10  1  0
 10 11  2  0
 11 12  1  0
 11 13  1  0
 13 14  2  0
 14 15  1  0
 15 16  1  0
 15 17  2  0
 17 18  1  0
  9 19  1  0
 19 20  1  0
 19 21  2  0
 21 22  1  0
 21 23  1  0
 23 24  2  0
  6 25  1  0
 25 26  1  0
 25 27  2  0
 27 28  1  0
 27  2  1  0
 23  7  1  0
 17 10  1  0
M  END
>  <cnnaffinity>  (1) 
-4.8016

>  <filename>  (1) 
O=c1ccc(-c2ccnnc2)nn1-c1cccnc1

$$$$
