
     RDKit          3D

 34 36  0  0  0  0  0  0  0  0999 V2000
    7.8325   -4.2562   20.7817 H   0  0  0  0  0  0  0  0  0  0  0  0
    7.7930   -4.0769   21.8533 C   0  0  0  0  0  0  0  0  0  0  0  0
    7.8608   -5.1285   22.6859 C   0  0  0  0  0  0  0  0  0  0  0  0
    8.3234   -6.0390   22.3002 H   0  0  0  0  0  0  0  0  0  0  0  0
    7.4020   -5.2444   24.0944 C   0  0  0  0  0  0  0  0  0  0  0  0
    8.2228   -5.9165   25.0204 C   0  0  0  0  0  0  0  0  0  0  0  0
    9.1941   -6.2838   24.6961 H   0  0  0  0  0  0  0  0  0  0  0  0
    7.8033   -6.1141   26.3365 C   0  0  0  0  0  0  0  0  0  0  0  0
    8.4465   -6.6394   27.0400 H   0  0  0  0  0  0  0  0  0  0  0  0
    6.5474   -5.6422   26.7425 C   0  0  0  0  0  0  0  0  0  0  0  0
    6.2249   -5.7812   27.7696 H   0  0  0  0  0  0  0  0  0  0  0  0
    5.7177   -4.9783   25.8314 C   0  0  0  0  0  0  0  0  0  0  0  0
    4.7430   -4.6125   26.1439 H   0  0  0  0  0  0  0  0  0  0  0  0
    6.1458   -4.7738   24.5145 C   0  0  0  0  0  0  0  0  0  0  0  0
    5.5097   -4.2589   23.7982 H   0  0  0  0  0  0  0  0  0  0  0  0
    7.6530   -2.6507   22.1582 C   0  0  0  0  0  0  0  0  0  0  0  0
    7.3179   -1.8799   21.0540 N   0  0  0  0  0  0  0  0  0  0  0  0
    7.0971   -0.5904   21.1911 C   0  0  0  0  0  0  0  0  0  0  0  0
    6.5638    0.1400   20.0178 C   0  0  0  0  0  0  0  0  0  0  0  0
    7.0792   -0.1352   18.7350 C   0  0  0  0  0  0  0  0  0  0  0  0
    7.9075   -0.8320   18.6167 H   0  0  0  0  0  0  0  0  0  0  0  0
    6.6032    0.4051   17.6087 N   0  0  0  0  0  0  0  0  0  0  0  0
    5.5610    1.2427   17.7203 C   0  0  0  0  0  0  0  0  0  0  0  0
    5.1652    1.6294   16.7826 H   0  0  0  0  0  0  0  0  0  0  0  0
    5.0026    1.6199   18.9431 C   0  0  0  0  0  0  0  0  0  0  0  0
    4.2014    2.3504   18.9573 H   0  0  0  0  0  0  0  0  0  0  0  0
    5.5138    1.0689   20.1187 C   0  0  0  0  0  0  0  0  0  0  0  0
    5.1061    1.3547   21.0908 H   0  0  0  0  0  0  0  0  0  0  0  0
    7.3473    0.1269   22.5193 C   0  0  0  0  0  0  0  0  0  0  0  0
    7.3022    1.3133   22.8008 O   0  0  0  0  0  0  0  0  0  0  0  0
    7.7113   -0.7448   23.5410 N   0  0  0  0  0  0  0  0  0  0  0  0
    7.8753   -0.2201   24.3916 H   0  0  0  0  0  0  0  0  0  0  0  0
    7.8622   -2.1013   23.3983 C   0  0  0  0  0  0  0  0  0  0  0  0
    8.1564   -2.6914   24.2593 H   0  0  0  0  0  0  0  0  0  0  0  0
  1  2  1  0
  2  3  2  3
  3  4  1  0
  3  5  1  0
  5  6  2  0
  6  7  1  0
  6  8  1  0
  8  9  1  0
  8 10  2  0
 10 11  1  0
 10 12  1  0
 12 13  1  0
 12 14  2  0
 14 15  1  0
  2 16  1  0
 16 17  1  0
 17 18  2  0
 18 19  1  0
 19 20  2  0
 20 21  1  0
 20 22  1  0
 22 23  2  0
 23 24  1  0
 23 25  1  0
 25 26  1  0
 25 27  2  0
 27 28  1  0
 18 29  1  0
 29 30  2  0
 29 31  1  0
 31 32  1  0
 31 33  1  0
 33 34  1  0
 14  5  1  0
 33 16  2  0
 27 19  1  0
M  END
>  <cnnaffinity>  (1) 
-5.44867

>  <filename>  (1) 
O=c1[nH]cc(C=Cc2ccccc2)nc1-c1cccnc1

$$$$
