
     RDKit          3D

 38 41  0  0  0  0  0  0  0  0999 V2000
    4.9151    1.8001   16.9841 H   0  0  0  0  0  0  0  0  0  0  0  0
    5.3912    1.2964   17.8229 C   0  0  0  0  0  0  0  0  0  0  0  0
    6.5539    0.6787   17.5588 N   0  0  0  0  0  0  0  0  0  0  0  0
    7.1613    0.0474   18.5700 C   0  0  0  0  0  0  0  0  0  0  0  0
    8.1238   -0.4174   18.3569 H   0  0  0  0  0  0  0  0  0  0  0  0
    6.6465    0.0010   19.8793 C   0  0  0  0  0  0  0  0  0  0  0  0
    7.3479   -0.6774   20.9365 N   0  0  0  0  0  0  0  0  0  0  0  0
    7.5767   -2.0322   20.8093 C   0  0  0  0  0  0  0  0  0  0  0  0
    7.1378   -2.4590   19.9177 H   0  0  0  0  0  0  0  0  0  0  0  0
    8.2434   -2.7459   21.7563 C   0  0  0  0  0  0  0  0  0  0  0  0
    8.4131   -3.8074   21.6184 H   0  0  0  0  0  0  0  0  0  0  0  0
    8.6736   -2.0902   22.9554 C   0  0  0  0  0  0  0  0  0  0  0  0
    9.3119   -2.8935   24.0835 C   0  0  0  0  0  0  0  0  0  0  0  0
   10.0048   -2.2608   24.6451 H   0  0  0  0  0  0  0  0  0  0  0  0
    9.8723   -3.7368   23.6728 H   0  0  0  0  0  0  0  0  0  0  0  0
    8.3213   -3.4206   25.0238 N   0  0  0  0  0  0  0  0  0  0  0  0
    7.7124   -2.6178   25.9875 C   0  0  0  0  0  0  0  0  0  0  0  0
    8.1499   -1.5479   26.3376 O   0  0  0  0  0  0  0  0  0  0  0  0
    6.4862   -3.3412   26.4356 C   0  0  0  0  0  0  0  0  0  0  0  0
    5.5355   -3.0155   27.4063 C   0  0  0  0  0  0  0  0  0  0  0  0
    5.6165   -2.1021   27.9943 H   0  0  0  0  0  0  0  0  0  0  0  0
    4.4728   -3.9060   27.5963 C   0  0  0  0  0  0  0  0  0  0  0  0
    3.7157   -3.6853   28.3442 H   0  0  0  0  0  0  0  0  0  0  0  0
    4.3689   -5.0870   26.8299 C   0  0  0  0  0  0  0  0  0  0  0  0
    3.5330   -5.7611   26.9979 H   0  0  0  0  0  0  0  0  0  0  0  0
    5.3260   -5.4020   25.8585 C   0  0  0  0  0  0  0  0  0  0  0  0
    5.2481   -6.3113   25.2649 H   0  0  0  0  0  0  0  0  0  0  0  0
    6.3843   -4.5083   25.6789 C   0  0  0  0  0  0  0  0  0  0  0  0
    7.5430   -4.5396   24.7381 C   0  0  0  0  0  0  0  0  0  0  0  0
    7.8107   -5.3324   23.8638 O   0  0  0  0  0  0  0  0  0  0  0  0
    8.4430   -0.7479   23.0985 C   0  0  0  0  0  0  0  0  0  0  0  0
    8.7249   -0.1836   23.9747 H   0  0  0  0  0  0  0  0  0  0  0  0
    7.7562    0.0488   22.1044 C   0  0  0  0  0  0  0  0  0  0  0  0
    7.5437    1.2434   22.2324 O   0  0  0  0  0  0  0  0  0  0  0  0
    5.4377    0.6450   20.1456 C   0  0  0  0  0  0  0  0  0  0  0  0
    5.0424    0.6383   21.1596 H   0  0  0  0  0  0  0  0  0  0  0  0
    4.8020    1.3044   19.0916 C   0  0  0  0  0  0  0  0  0  0  0  0
    3.8768    1.8412   19.2512 H   0  0  0  0  0  0  0  0  0  0  0  0
  1  2  1  0
  2  3  2  0
  3  4  1  0
  4  5  1  0
  4  6  2  0
  6  7  1  0
  7  8  1  0
  8  9  1  0
  8 10  2  0
 10 11  1  0
 10 12  1  0
 12 13  1  0
 13 14  1  0
 13 15  1  0
 13 16  1  0
 16 17  1  0
 17 18  2  0
 17 19  1  0
 19 20  2  0
 20 21  1  0
 20 22  1  0
 22 23  1  0
 22 24  2  0
 24 25  1  0
 24 26  1  0
 26 27  1  0
 26 28  2  0
 28 29  1  0
 29 30  2  0
 12 31  2  0
 31 32  1  0
 31 33  1  0
 33 34  2  0
  6 35  1  0
 35 36  1  0
 35 37  2  0
 37 38  1  0
 37  2  1  0
 33  7  1  0
 29 16  1  0
 28 19  1  0
M  END
>  <cnnaffinity>  (1) 
-5.16831

>  <filename>  (1) 
O=C1c2ccccc2C(=O)N1Cc1ccn(-c2cccnc2)c(=O)c1

$$$$
