
     RDKit          3D

 40 43  0  0  0  0  0  0  0  0999 V2000
    5.3696   -3.4059   22.7135 O   0  0  0  0  0  0  0  0  0  0  0  0
    6.0436   -2.8681   23.5656 C   0  0  0  0  0  0  0  0  0  0  0  0
    5.6169   -2.5143   24.9442 C   0  0  0  0  0  0  0  0  0  0  0  0
    4.3332   -2.6513   25.4916 C   0  0  0  0  0  0  0  0  0  0  0  0
    4.1673   -2.3007   26.8215 C   0  0  0  0  0  0  0  0  0  0  0  0
    2.9554   -2.4326   27.3791 F   0  0  0  0  0  0  0  0  0  0  0  0
    5.2143   -1.8195   27.6132 C   0  0  0  0  0  0  0  0  0  0  0  0
    6.4850   -1.6742   27.0601 C   0  0  0  0  0  0  0  0  0  0  0  0
    6.6645   -2.0337   25.7200 C   0  0  0  0  0  0  0  0  0  0  0  0
    8.1369   -1.9604   24.7454 S   0  0  0  0  0  0  0  0  0  0  0  0
    8.5622   -0.5871   24.5800 O   0  0  0  0  0  0  0  0  0  0  0  0
    9.0925   -2.9825   25.1376 O   0  0  0  0  0  0  0  0  0  0  0  0
    7.3559   -2.5174   23.3729 N   0  0  0  0  0  0  0  0  0  0  0  0
    8.1540   -3.0299   22.2610 C   0  0  0  0  0  0  0  0  0  0  0  0
    9.1274   -1.9844   21.7827 C   0  0  0  0  0  0  0  0  0  0  0  0
   10.5024   -2.1287   21.9974 C   0  0  0  0  0  0  0  0  0  0  0  0
   11.3998   -1.0918   21.7169 C   0  0  0  0  0  0  0  0  0  0  0  0
   10.9054    0.1125   21.2111 C   0  0  0  0  0  0  0  0  0  0  0  0
    9.5469    0.2479   20.9049 C   0  0  0  0  0  0  0  0  0  0  0  0
    8.6671   -0.8056   21.1665 C   0  0  0  0  0  0  0  0  0  0  0  0
    7.3132   -0.7314   20.9100 O   0  0  0  0  0  0  0  0  0  0  0  0
    6.7457   -0.0232   19.8811 C   0  0  0  0  0  0  0  0  0  0  0  0
    5.5333    0.6101   20.1631 C   0  0  0  0  0  0  0  0  0  0  0  0
    4.8784    1.2730   19.1242 C   0  0  0  0  0  0  0  0  0  0  0  0
    5.4476    1.2756   17.8463 C   0  0  0  0  0  0  0  0  0  0  0  0
    6.6014    0.6519   17.5688 N   0  0  0  0  0  0  0  0  0  0  0  0
    7.2402    0.0169   18.5642 C   0  0  0  0  0  0  0  0  0  0  0  0
    8.1773   -0.4792   18.3082 H   0  0  0  0  0  0  0  0  0  0  0  0
    4.9577    1.7913   17.0212 H   0  0  0  0  0  0  0  0  0  0  0  0
    3.9418    1.7837   19.2951 H   0  0  0  0  0  0  0  0  0  0  0  0
    5.1423    0.5705   21.1786 H   0  0  0  0  0  0  0  0  0  0  0  0
    9.1710    1.1475   20.4336 H   0  0  0  0  0  0  0  0  0  0  0  0
   11.5603    0.9581   21.0091 H   0  0  0  0  0  0  0  0  0  0  0  0
   12.4626   -1.2585   21.8753 H   0  0  0  0  0  0  0  0  0  0  0  0
   10.8674   -3.0655   22.4191 H   0  0  0  0  0  0  0  0  0  0  0  0
    7.4534   -3.3102   21.4643 H   0  0  0  0  0  0  0  0  0  0  0  0
    8.6861   -3.9427   22.5688 H   0  0  0  0  0  0  0  0  0  0  0  0
    7.2901   -1.2830   27.6761 H   0  0  0  0  0  0  0  0  0  0  0  0
    5.0124   -1.5742   28.6485 H   0  0  0  0  0  0  0  0  0  0  0  0
    3.4971   -3.0136   24.9056 H   0  0  0  0  0  0  0  0  0  0  0  0
  1  2  2  0
  2  3  1  0
  3  4  2  0
  4  5  1  0
  5  6  1  0
  5  7  2  0
  7  8  1  0
  8  9  2  0
  9 10  1  0
 10 11  2  0
 10 12  2  0
 10 13  1  0
 13 14  1  0
 14 15  1  0
 15 16  2  0
 16 17  1  0
 17 18  2  0
 18 19  1  0
 19 20  2  0
 20 21  1  0
 21 22  1  0
 22 23  2  0
 23 24  1  0
 24 25  2  0
 25 26  1  0
 26 27  2  0
 27 28  1  0
 25 29  1  0
 24 30  1  0
 23 31  1  0
 19 32  1  0
 18 33  1  0
 17 34  1  0
 16 35  1  0
 14 36  1  0
 14 37  1  0
  8 38  1  0
  7 39  1  0
  4 40  1  0
 13  2  1  0
 20 15  1  0
 27 22  1  0
  9  3  1  0
M  END
>  <cnnaffinity>  (1) 
-5.85262

>  <filename>  (1) 
O=C1c2cc(F)ccc2S(=O)(=O)N1Cc1ccccc1Oc1cccnc1

$$$$
