
     RDKit          3D

 34 36  0  0  0  0  0  0  0  0999 V2000
    4.9094   -2.5822   23.8685 H   0  0  0  0  0  0  0  0  0  0  0  0
    5.5658   -2.4893   24.5739 O   0  0  0  0  0  0  0  0  0  0  0  0
    6.8168   -2.9010   24.0438 C   0  0  1  0  0  0  0  0  0  0  0  0
    7.5075   -2.8208   24.8870 H   0  0  0  0  0  0  0  0  0  0  0  0
    6.7534   -4.3323   23.5236 C   0  0  0  0  0  0  0  0  0  0  0  0
    6.1643   -4.5945   22.3125 C   0  0  0  0  0  0  0  0  0  0  0  0
    5.7604   -3.7685   21.7269 H   0  0  0  0  0  0  0  0  0  0  0  0
    6.1520   -5.9975   21.8236 C   0  0  0  0  0  0  0  0  0  0  0  0
    5.7271   -6.2979   20.8721 H   0  0  0  0  0  0  0  0  0  0  0  0
    6.7377   -6.8065   22.7336 C   0  0  0  0  0  0  0  0  0  0  0  0
    6.8717   -7.8941   22.6909 H   0  0  0  0  0  0  0  0  0  0  0  0
    7.4663   -5.5193   24.4728 C   0  0  0  0  0  0  0  0  0  0  0  0
    8.4036   -6.1076   24.0530 H   0  0  0  0  0  0  0  0  0  0  0  0
    7.1694   -5.5488   24.1682 C   0  0  0  0  0  0  0  0  0  0  0  0
    7.7960   -5.1596   25.4669 H   0  0  0  0  0  0  0  0  0  0  0  0
    7.4210   -1.9831   22.9493 C   0  0  0  0  0  0  0  0  0  0  0  0
    6.7617   -1.2700   21.9832 C   0  0  0  0  0  0  0  0  0  0  0  0
    5.6870   -1.2277   21.9306 H   0  0  0  0  0  0  0  0  0  0  0  0
    7.5029   -0.6343   20.9399 C   0  0  0  0  0  0  0  0  0  0  0  0
    6.7451    0.0685   19.8845 C   0  0  0  0  0  0  0  0  0  0  0  0
    7.2567    0.0840   18.5811 C   0  0  0  0  0  0  0  0  0  0  0  0
    8.2085   -0.3947   18.3586 H   0  0  0  0  0  0  0  0  0  0  0  0
    6.6365    0.6606   17.5470 N   0  0  0  0  0  0  0  0  0  0  0  0
    5.4706    1.2775   17.7885 C   0  0  0  0  0  0  0  0  0  0  0  0
    4.9891    1.7511   16.9356 H   0  0  0  0  0  0  0  0  0  0  0  0
    4.8727    1.3285   19.0524 C   0  0  0  0  0  0  0  0  0  0  0  0
    3.9246    1.8410   19.1850 H   0  0  0  0  0  0  0  0  0  0  0  0
    5.5155    0.7074   20.1192 C   0  0  0  0  0  0  0  0  0  0  0  0
    5.0767    0.7368   21.1195 H   0  0  0  0  0  0  0  0  0  0  0  0
    8.8025   -0.6788   20.8321 N   0  0  0  0  0  0  0  0  0  0  0  0
    9.4994   -1.3269   21.8138 C   0  0  0  0  0  0  0  0  0  0  0  0
   10.7060   -1.4085   21.8915 O   0  0  0  0  0  0  0  0  0  0  0  0
    8.7808   -1.9833   22.8238 N   0  0  0  0  0  0  0  0  0  0  0  0
    9.4571   -2.3936   23.4429 H   0  0  0  0  0  0  0  0  0  0  0  0
  1  2  1  0
  2  3  1  0
  3  4  1  1
  3  5  1  0
  5  6  2  0
  6  7  1  0
  6  8  1  0
  8  9  1  0
  8 10  2  0
 10 11  1  0
 10 12  1  0
 12 13  1  0
 12 14  2  0
 14 15  1  0
  3 16  1  0
 16 17  2  0
 17 18  1  0
 17 19  1  0
 19 20  1  0
 20 21  2  0
 21 22  1  0
 21 23  1  0
 23 24  2  0
 24 25  1  0
 24 26  1  0
 26 27  1  0
 26 28  2  0
 28 29  1  0
 19 30  2  0
 30 31  1  0
 31 32  2  0
 31 33  1  0
 33 34  1  0
 14  5  1  0
 33 16  1  0
 28 20  1  0
M  END
>  <cnnaffinity>  (1) 
-5.33982

>  <filename>  (1) 
O=c1nc(-c2cccnc2)cc([C@@H](O)c2ccccc2)[nH]1

$$$$
