
     RDKit          3D

 42 44  0  0  0  0  0  0  0  0999 V2000
    4.9227    1.7470   16.9688 H   0  0  0  0  0  0  0  0  0  0  0  0
    5.3984    1.3209   17.8488 C   0  0  0  0  0  0  0  0  0  0  0  0
    6.6008    0.7635   17.6467 N   0  0  0  0  0  0  0  0  0  0  0  0
    7.2068    0.2238   18.7088 C   0  0  0  0  0  0  0  0  0  0  0  0
    8.1944   -0.1805   18.4972 H   0  0  0  0  0  0  0  0  0  0  0  0
    6.6670    0.1826   20.0104 C   0  0  0  0  0  0  0  0  0  0  0  0
    7.4195   -0.4982   21.1029 C   0  0  0  0  0  0  0  0  0  0  0  0
    7.1997   -0.0464   22.3904 N   0  0  0  0  0  0  0  0  0  0  0  0
    7.8641   -0.5962   23.3680 C   0  0  0  0  0  0  0  0  0  0  0  0
    7.7871    0.0500   24.5420 O   0  0  0  0  0  0  0  0  0  0  0  0
    8.1267   -0.5760   25.7987 C   0  0  0  0  0  0  0  0  0  0  0  0
    7.7271   -1.5933   25.8482 H   0  0  0  0  0  0  0  0  0  0  0  0
    9.2133   -0.6217   25.9015 H   0  0  0  0  0  0  0  0  0  0  0  0
    7.5096    0.2465   26.9248 C   0  0  0  0  0  0  0  0  0  0  0  0
    8.0673    0.0447   27.8508 H   0  0  0  0  0  0  0  0  0  0  0  0
    7.6630    1.3094   26.7113 H   0  0  0  0  0  0  0  0  0  0  0  0
    6.1001    0.0217   27.2019 N   0  0  0  0  0  0  0  0  0  0  0  0
    5.1530    0.4227   26.1556 C   0  0  0  0  0  0  0  0  0  0  0  0
    5.4806    1.3798   25.7249 H   0  0  0  0  0  0  0  0  0  0  0  0
    5.1185   -0.3052   25.3210 H   0  0  0  0  0  0  0  0  0  0  0  0
    3.7571    0.5614   26.7773 C   0  0  0  0  0  0  0  0  0  0  0  0
    3.7953    1.3910   27.4954 H   0  0  0  0  0  0  0  0  0  0  0  0
    3.0231    0.8350   26.0110 H   0  0  0  0  0  0  0  0  0  0  0  0
    3.3285   -0.7274   27.5009 C   0  0  0  0  0  0  0  0  0  0  0  0
    2.3806   -0.5707   28.0327 H   0  0  0  0  0  0  0  0  0  0  0  0
    3.1531   -1.5265   26.7580 H   0  0  0  0  0  0  0  0  0  0  0  0
    4.4270   -1.1605   28.4852 C   0  0  0  0  0  0  0  0  0  0  0  0
    4.1622   -2.0966   28.9863 H   0  0  0  0  0  0  0  0  0  0  0  0
    4.5563   -0.3958   29.2644 H   0  0  0  0  0  0  0  0  0  0  0  0
    5.7677   -1.2846   27.7620 C   0  0  0  0  0  0  0  0  0  0  0  0
    5.7077   -2.0751   26.9836 H   0  0  0  0  0  0  0  0  0  0  0  0
    6.5599   -1.5797   28.4568 H   0  0  0  0  0  0  0  0  0  0  0  0
    8.7205   -1.8616   23.2084 C   0  0  0  0  0  0  0  0  0  0  0  0
    9.2362   -2.5800   24.0555 O   0  0  0  0  0  0  0  0  0  0  0  0
    8.9083   -2.1854   21.8793 N   0  0  0  0  0  0  0  0  0  0  0  0
    9.5026   -3.0108   21.7937 H   0  0  0  0  0  0  0  0  0  0  0  0
    8.3026   -1.5092   20.8310 C   0  0  0  0  0  0  0  0  0  0  0  0
    8.5850   -1.7991   19.8304 H   0  0  0  0  0  0  0  0  0  0  0  0
    5.4202    0.8120   20.2044 C   0  0  0  0  0  0  0  0  0  0  0  0
    4.9929    0.8811   21.2078 H   0  0  0  0  0  0  0  0  0  0  0  0
    4.7725    1.3764   19.1001 C   0  0  0  0  0  0  0  0  0  0  0  0
    3.8190    1.8910   19.1967 H   0  0  0  0  0  0  0  0  0  0  0  0
  1  2  1  0
  2  3  2  0
  3  4  1  0
  4  5  1  0
  4  6  2  0
  6  7  1  0
  7  8  1  0
  8  9  2  0
  9 10  1  0
 10 11  1  0
 11 12  1  0
 11 13  1  0
 11 14  1  0
 14 15  1  0
 14 16  1  0
 14 17  1  0
 17 18  1  0
 18 19  1  0
 18 20  1  0
 18 21  1  0
 21 22  1  0
 21 23  1  0
 21 24  1  0
 24 25  1  0
 24 26  1  0
 24 27  1  0
 27 28  1  0
 27 29  1  0
 27 30  1  0
 30 31  1  0
 30 32  1  0
  9 33  1  0
 33 34  2  0
 33 35  1  0
 35 36  1  0
 35 37  1  0
 37 38  1  0
  6 39  1  0
 39 40  1  0
 39 41  2  0
 41 42  1  0
 41  2  1  0
 37  7  2  0
 30 17  1  0
M  END
>  <cnnaffinity>  (1) 
-5.00829

>  <filename>  (1) 
O=c1[nH]cc(-c2cccnc2)nc1OCCN1CCCCC1

$$$$
