
     RDKit          3D

 41 43  0  0  0  0  0  0  0  0999 V2000
    4.9140    1.7928   16.9881 H   0  0  0  0  0  0  0  0  0  0  0  0
    5.3974    1.2975   17.8270 C   0  0  0  0  0  0  0  0  0  0  0  0
    6.5611    0.6873   17.5595 N   0  0  0  0  0  0  0  0  0  0  0  0
    7.1729    0.0674   18.5748 C   0  0  0  0  0  0  0  0  0  0  0  0
    8.1238   -0.4144   18.3470 H   0  0  0  0  0  0  0  0  0  0  0  0
    6.6625    0.0041   19.8819 C   0  0  0  0  0  0  0  0  0  0  0  0
    7.4003   -0.7029   21.0034 C   0  0  2  0  0  0  0  0  0  0  0  0
    8.2319   -1.2907   20.6094 H   0  0  0  0  0  0  0  0  0  0  0  0
    6.5219   -1.6829   21.7913 C   0  0  0  0  0  0  0  0  0  0  0  0
    5.8319   -2.5889   21.3699 O   0  0  0  0  0  0  0  0  0  0  0  0
    6.6534   -1.3819   23.1040 N   0  0  0  0  0  0  0  0  0  0  0  0
    6.1606   -1.9899   23.7412 H   0  0  0  0  0  0  0  0  0  0  0  0
    7.5995   -0.3491   23.4482 C   0  0  0  0  0  0  0  0  0  0  0  0
    8.5079   -0.7472   23.9269 H   0  0  0  0  0  0  0  0  0  0  0  0
    7.1642    0.4035   24.1242 H   0  0  0  0  0  0  0  0  0  0  0  0
    7.9577    0.2618   22.0704 C   0  0  1  0  0  0  0  0  0  0  0  0
    7.4416    1.2306   21.9727 H   0  0  0  0  0  0  0  0  0  0  0  0
    9.3495    0.4371   21.8959 O   0  0  0  0  0  0  0  0  0  0  0  0
    9.8281    1.6518   22.4623 C   0  0  0  0  0  0  0  0  0  0  0  0
    9.4964    1.7804   23.5056 H   0  0  0  0  0  0  0  0  0  0  0  0
    9.4380    2.5050   21.8817 H   0  0  0  0  0  0  0  0  0  0  0  0
   11.3504    1.6577   22.4384 C   0  0  0  0  0  0  0  0  0  0  0  0
   11.7164    0.7739   22.9755 H   0  0  0  0  0  0  0  0  0  0  0  0
   11.6930    1.5528   21.3877 H   0  0  0  0  0  0  0  0  0  0  0  0
   11.8936    2.8631   23.0739 N   0  0  0  0  0  0  0  0  0  0  0  0
   11.6624    4.0809   22.2889 C   0  0  0  0  0  0  0  0  0  0  0  0
   10.6709    4.5058   22.4979 H   0  0  0  0  0  0  0  0  0  0  0  0
   11.7085    3.8473   21.2116 H   0  0  0  0  0  0  0  0  0  0  0  0
   12.7924    5.0569   22.6481 C   0  0  0  0  0  0  0  0  0  0  0  0
   12.4268    5.8799   23.2690 H   0  0  0  0  0  0  0  0  0  0  0  0
   13.2075    5.5077   21.7415 H   0  0  0  0  0  0  0  0  0  0  0  0
   13.8340    4.2132   23.4060 C   0  0  0  0  0  0  0  0  0  0  0  0
   14.8366    4.3031   22.9808 H   0  0  0  0  0  0  0  0  0  0  0  0
   13.9057    4.5628   24.4372 H   0  0  0  0  0  0  0  0  0  0  0  0
   13.3323    2.7647   23.3032 C   0  0  0  0  0  0  0  0  0  0  0  0
   13.5245    2.1622   24.1995 H   0  0  0  0  0  0  0  0  0  0  0  0
   13.8418    2.2420   22.4729 H   0  0  0  0  0  0  0  0  0  0  0  0
    5.4473    0.6501   20.1441 C   0  0  0  0  0  0  0  0  0  0  0  0
    5.0179    0.6267   21.1514 H   0  0  0  0  0  0  0  0  0  0  0  0
    4.8081    1.3104   19.0960 C   0  0  0  0  0  0  0  0  0  0  0  0
    3.8788    1.8419   19.2498 H   0  0  0  0  0  0  0  0  0  0  0  0
  1  2  1  0
  2  3  2  0
  3  4  1  0
  4  5  1  0
  4  6  2  0
  6  7  1  0
  7  8  1  6
  7  9  1  0
  9 10  2  0
  9 11  1  0
 11 12  1  0
 11 13  1  0
 13 14  1  0
 13 15  1  0
 13 16  1  0
 16 17  1  6
 16 18  1  0
 18 19  1  0
 19 20  1  0
 19 21  1  0
 19 22  1  0
 22 23  1  0
 22 24  1  0
 22 25  1  0
 25 26  1  0
 26 27  1  0
 26 28  1  0
 26 29  1  0
 29 30  1  0
 29 31  1  0
 29 32  1  0
 32 33  1  0
 32 34  1  0
 32 35  1  0
 35 36  1  0
 35 37  1  0
  6 38  1  0
 38 39  1  0
 38 40  2  0
 40 41  1  0
 40  2  1  0
 16  7  1  0
 35 25  1  0
M  END
>  <cnnaffinity>  (1) 
-4.74149

>  <filename>  (1) 
O=C1NC[C@@H](OCCN2CCCC2)[C@@H]1c1cccnc1

$$$$
