
     RDKit          3D

 35 37  0  0  0  0  0  0  0  0999 V2000
    5.2049    1.5880   16.6140 H   0  0  0  0  0  0  0  0  0  0  0  0
    5.5718    1.1575   17.5438 C   0  0  0  0  0  0  0  0  0  0  0  0
    6.7002    0.4304   17.4562 N   0  0  0  0  0  0  0  0  0  0  0  0
    7.1831   -0.1106   18.5806 C   0  0  0  0  0  0  0  0  0  0  0  0
    8.1039   -0.6865   18.5027 H   0  0  0  0  0  0  0  0  0  0  0  0
    6.5638    0.0472   19.8400 C   0  0  0  0  0  0  0  0  0  0  0  0
    7.0733   -0.5162   21.0200 N   0  0  0  0  0  0  0  0  0  0  0  0
    7.0895    0.0466   22.3271 C   0  0  0  0  0  0  0  0  0  0  0  0
    6.5668    1.0957   22.6525 O   0  0  0  0  0  0  0  0  0  0  0  0
    7.8378   -0.8990   23.1166 C   0  0  0  0  0  0  0  0  0  0  0  0
    8.0768   -0.7277   24.1455 H   0  0  0  0  0  0  0  0  0  0  0  0
    8.1799   -1.9125   22.3118 C   0  0  0  0  0  0  0  0  0  0  0  0
    8.7325   -3.1348   22.5518 N   0  0  0  0  0  0  0  0  0  0  0  0
    8.4548   -3.8782   21.9411 H   0  0  0  0  0  0  0  0  0  0  0  0
    9.3237   -3.5149   23.7147 C   0  0  0  0  0  0  0  0  0  0  0  0
   10.2803   -2.5713   24.6567 S   0  0  0  0  0  0  0  0  0  0  0  0
    9.1088   -4.8121   24.0296 N   0  0  0  0  0  0  0  0  0  0  0  0
    9.5774   -5.0698   24.8840 H   0  0  0  0  0  0  0  0  0  0  0  0
    8.2716   -5.7439   23.3760 C   0  0  0  0  0  0  0  0  0  0  0  0
    8.8103   -6.9880   23.0665 C   0  0  0  0  0  0  0  0  0  0  0  0
    9.7934   -7.2735   23.4173 H   0  0  0  0  0  0  0  0  0  0  0  0
    8.0382   -7.9274   22.4051 C   0  0  0  0  0  0  0  0  0  0  0  0
    8.4988   -8.8876   22.2062 H   0  0  0  0  0  0  0  0  0  0  0  0
    6.7052   -7.6674   22.1058 C   0  0  0  0  0  0  0  0  0  0  0  0
    6.1180   -8.4466   21.6510 H   0  0  0  0  0  0  0  0  0  0  0  0
    6.1538   -6.4229   22.4109 C   0  0  0  0  0  0  0  0  0  0  0  0
    5.1080   -6.2299   22.1898 H   0  0  0  0  0  0  0  0  0  0  0  0
    6.9489   -5.4425   23.0154 C   0  0  0  0  0  0  0  0  0  0  0  0
    6.5569   -4.4532   23.2220 H   0  0  0  0  0  0  0  0  0  0  0  0
    7.8461   -1.6960   20.9923 N   0  0  0  0  0  0  0  0  0  0  0  0
    7.3612   -2.4795   20.5686 H   0  0  0  0  0  0  0  0  0  0  0  0
    5.3948    0.8160   19.9222 C   0  0  0  0  0  0  0  0  0  0  0  0
    4.9332    0.9759   20.8946 H   0  0  0  0  0  0  0  0  0  0  0  0
    4.8884    1.3693   18.7473 C   0  0  0  0  0  0  0  0  0  0  0  0
    3.9948    1.9858   18.7669 H   0  0  0  0  0  0  0  0  0  0  0  0
  1  2  1  0
  2  3  2  0
  3  4  1  0
  4  5  1  0
  4  6  2  0
  6  7  1  0
  7  8  1  0
  8  9  2  0
  8 10  1  0
 10 11  1  0
 10 12  2  0
 12 13  1  0
 13 14  1  0
 13 15  1  0
 15 16  2  0
 15 17  1  0
 17 18  1  0
 17 19  1  0
 19 20  2  0
 20 21  1  0
 20 22  1  0
 22 23  1  0
 22 24  2  0
 24 25  1  0
 24 26  1  0
 26 27  1  0
 26 28  2  0
 28 29  1  0
 12 30  1  0
 30 31  1  0
  6 32  1  0
 32 33  1  0
 32 34  2  0
 34 35  1  0
 34  2  1  0
 30  7  1  0
 28 19  1  0
M  END
>  <cnnaffinity>  (1) 
-5.43792

>  <filename>  (1) 
O=c1cc(NC(=S)Nc2ccccc2)[nH]n1-c1cccnc1

$$$$
