
     RDKit          3D

 33 35  0  0  0  0  0  0  0  0999 V2000
    5.0229    1.7951   17.0516 H   0  0  0  0  0  0  0  0  0  0  0  0
    5.4533    1.2292   17.8768 C   0  0  0  0  0  0  0  0  0  0  0  0
    6.6038    0.5878   17.6201 N   0  0  0  0  0  0  0  0  0  0  0  0
    7.1657   -0.0814   18.6281 C   0  0  0  0  0  0  0  0  0  0  0  0
    8.0922   -0.6095   18.4027 H   0  0  0  0  0  0  0  0  0  0  0  0
    6.6270   -0.1594   19.9238 C   0  0  0  0  0  0  0  0  0  0  0  0
    7.4035   -0.7918   20.9727 C   0  0  0  0  0  0  0  0  0  0  0  0
    6.9521   -1.7273   21.8605 C   0  0  0  0  0  0  0  0  0  0  0  0
    5.8835   -2.7056   21.7334 C   0  0  0  0  0  0  0  0  0  0  0  0
    5.3807   -2.9987   20.6621 O   0  0  0  0  0  0  0  0  0  0  0  0
    5.5067   -3.2807   22.9154 N   0  0  0  0  0  0  0  0  0  0  0  0
    6.0454   -3.0060   23.7230 H   0  0  0  0  0  0  0  0  0  0  0  0
    4.3310   -3.9740   23.1389 C   0  0  0  0  0  0  0  0  0  0  0  0
    3.9116   -4.9914   22.2907 C   0  0  0  0  0  0  0  0  0  0  0  0
    4.5140   -5.3067   21.4496 H   0  0  0  0  0  0  0  0  0  0  0  0
    2.6814   -5.5851   22.5603 C   0  0  0  0  0  0  0  0  0  0  0  0
    2.2938   -6.3658   21.9078 H   0  0  0  0  0  0  0  0  0  0  0  0
    1.8858   -5.2297   23.5778 N   0  0  0  0  0  0  0  0  0  0  0  0
    2.3316   -4.2706   24.3991 C   0  0  0  0  0  0  0  0  0  0  0  0
    1.6506   -3.9704   25.1956 H   0  0  0  0  0  0  0  0  0  0  0  0
    3.5583   -3.6329   24.2459 C   0  0  0  0  0  0  0  0  0  0  0  0
    3.8808   -2.8436   24.9206 H   0  0  0  0  0  0  0  0  0  0  0  0
    7.9271   -1.8783   22.9138 C   0  0  0  0  0  0  0  0  0  0  0  0
    7.8678   -2.5556   23.9327 O   0  0  0  0  0  0  0  0  0  0  0  0
    9.0009   -1.1145   22.5782 N   0  0  0  0  0  0  0  0  0  0  0  0
    9.8484   -1.2532   23.1008 H   0  0  0  0  0  0  0  0  0  0  0  0
    8.8181   -0.3985   21.3340 C   0  0  0  0  0  0  0  0  0  0  0  0
    8.9079    0.6909   21.4567 H   0  0  0  0  0  0  0  0  0  0  0  0
    9.5276   -0.7091   20.5511 H   0  0  0  0  0  0  0  0  0  0  0  0
    5.3942    0.4720   20.1598 C   0  0  0  0  0  0  0  0  0  0  0  0
    4.9300    0.4146   21.1484 H   0  0  0  0  0  0  0  0  0  0  0  0
    4.8119    1.1996   19.1209 C   0  0  0  0  0  0  0  0  0  0  0  0
    3.8909    1.7558   19.2637 H   0  0  0  0  0  0  0  0  0  0  0  0
  1  2  1  0
  2  3  2  0
  3  4  1  0
  4  5  1  0
  4  6  2  0
  6  7  1  0
  7  8  2  0
  8  9  1  0
  9 10  2  0
  9 11  1  0
 11 12  1  0
 11 13  1  0
 13 14  2  0
 14 15  1  0
 14 16  1  0
 16 17  1  0
 16 18  2  0
 18 19  1  0
 19 20  1  0
 19 21  2  0
 21 22  1  0
  8 23  1  0
 23 24  2  0
 23 25  1  0
 25 26  1  0
 25 27  1  0
 27 28  1  0
 27 29  1  0
  6 30  1  0
 30 31  1  0
 30 32  2  0
 32 33  1  0
 32  2  1  0
 27  7  1  0
 21 13  1  0
M  END
>  <cnnaffinity>  (1) 
-5.16598

>  <filename>  (1) 
O=C1NCC(c2cccnc2)=C1C(=O)Nc1ccncc1

$$$$
