
     RDKit          3D

 34 36  0  0  0  0  0  0  0  0999 V2000
    5.5418   -3.6205   23.8530 O   0  0  0  0  0  0  0  0  0  0  0  0
    6.5467   -3.0296   24.1734 C   0  0  0  0  0  0  0  0  0  0  0  0
    6.8600   -2.3506   25.4640 C   0  0  0  0  0  0  0  0  0  0  0  0
    6.0964   -2.1864   26.6231 C   0  0  0  0  0  0  0  0  0  0  0  0
    6.6419   -1.3952   27.6425 C   0  0  0  0  0  0  0  0  0  0  0  0
    7.9420   -0.8512   27.5173 C   0  0  0  0  0  0  0  0  0  0  0  0
    8.7290   -1.1063   26.3910 C   0  0  0  0  0  0  0  0  0  0  0  0
    8.1569   -1.8566   25.3658 C   0  0  0  0  0  0  0  0  0  0  0  0
    8.7147   -2.2900   24.0492 C   0  0  0  0  0  0  0  0  0  0  0  0
    9.8397   -2.1653   23.6302 O   0  0  0  0  0  0  0  0  0  0  0  0
    7.6790   -2.9164   23.3766 N   0  0  0  0  0  0  0  0  0  0  0  0
    7.7186   -3.3913   22.0152 C   0  0  0  0  0  0  0  0  0  0  0  0
    6.8235   -2.4883   21.1938 C   0  0  0  0  0  0  0  0  0  0  0  0
    7.5106   -0.8489   21.2605 S   0  0  0  0  0  0  0  0  0  0  0  0
    7.1861   -0.2238   22.5282 O   0  0  0  0  0  0  0  0  0  0  0  0
    8.8846   -0.9612   20.7724 O   0  0  0  0  0  0  0  0  0  0  0  0
    6.6048   -0.0320   20.0209 C   0  0  0  0  0  0  0  0  0  0  0  0
    5.3884    0.6247   20.2492 C   0  0  0  0  0  0  0  0  0  0  0  0
    4.8273    1.2519   19.1382 C   0  0  0  0  0  0  0  0  0  0  0  0
    5.4895    1.1898   17.9068 C   0  0  0  0  0  0  0  0  0  0  0  0
    6.6387    0.5304   17.7100 N   0  0  0  0  0  0  0  0  0  0  0  0
    7.1913   -0.0621   18.7621 C   0  0  0  0  0  0  0  0  0  0  0  0
    8.1357   -0.5718   18.5890 H   0  0  0  0  0  0  0  0  0  0  0  0
    5.0872    1.7035   17.0396 H   0  0  0  0  0  0  0  0  0  0  0  0
    3.9028    1.8151   19.2129 H   0  0  0  0  0  0  0  0  0  0  0  0
    4.8916    0.6587   21.2279 H   0  0  0  0  0  0  0  0  0  0  0  0
    5.8104   -2.4304   21.5950 H   0  0  0  0  0  0  0  0  0  0  0  0
    6.8065   -2.7622   20.1391 H   0  0  0  0  0  0  0  0  0  0  0  0
    8.7548   -3.3770   21.6574 H   0  0  0  0  0  0  0  0  0  0  0  0
    7.3597   -4.4273   21.9830 H   0  0  0  0  0  0  0  0  0  0  0  0
    9.7481   -0.7317   26.3165 H   0  0  0  0  0  0  0  0  0  0  0  0
    8.3551   -0.2102   28.2932 H   0  0  0  0  0  0  0  0  0  0  0  0
    6.0518   -1.1788   28.5329 H   0  0  0  0  0  0  0  0  0  0  0  0
    5.1210   -2.6613   26.7268 H   0  0  0  0  0  0  0  0  0  0  0  0
  1  2  2  0
  2  3  1  0
  3  4  2  0
  4  5  1  0
  5  6  2  0
  6  7  1  0
  7  8  2  0
  8  9  1  0
  9 10  2  0
  9 11  1  0
 11 12  1  0
 12 13  1  0
 13 14  1  0
 14 15  2  0
 14 16  2  0
 14 17  1  0
 17 18  2  0
 18 19  1  0
 19 20  2  0
 20 21  1  0
 21 22  2  0
 22 23  1  0
 20 24  1  0
 19 25  1  0
 18 26  1  0
 13 27  1  0
 13 28  1  0
 12 29  1  0
 12 30  1  0
  7 31  1  0
  6 32  1  0
  5 33  1  0
  4 34  1  0
 11  2  1  0
 22 17  1  0
  8  3  1  0
M  END
>  <cnnaffinity>  (1) 
-4.66934

>  <filename>  (1) 
O=C1c2ccccc2C(=O)N1CCS(=O)(=O)c1cccnc1

$$$$
