
     RDKit          3D

 35 38  0  0  0  0  0  0  0  0999 V2000
    4.9196    1.7883   16.9936 H   0  0  0  0  0  0  0  0  0  0  0  0
    5.4109    1.2885   17.8275 C   0  0  0  0  0  0  0  0  0  0  0  0
    6.5652    0.6621   17.5502 N   0  0  0  0  0  0  0  0  0  0  0  0
    7.1935    0.0633   18.5738 C   0  0  0  0  0  0  0  0  0  0  0  0
    8.1205   -0.4427   18.3046 H   0  0  0  0  0  0  0  0  0  0  0  0
    6.7419    0.0625   19.9131 C   0  0  0  0  0  0  0  0  0  0  0  0
    7.5293   -0.5749   21.0723 C   0  0  2  0  0  0  0  0  0  0  0  0
    7.1378   -0.1493   22.0049 H   0  0  0  0  0  0  0  0  0  0  0  0
    9.0309   -0.2450   21.0979 C   0  0  0  0  0  0  0  0  0  0  0  0
    9.5458    0.8526   21.0789 O   0  0  0  0  0  0  0  0  0  0  0  0
    9.7168   -1.4139   21.1649 N   0  0  0  0  0  0  0  0  0  0  0  0
   10.7176   -1.3610   21.2690 H   0  0  0  0  0  0  0  0  0  0  0  0
    8.9436   -2.5998   21.4055 C   0  0  0  0  0  0  0  0  0  0  0  0
    9.2368   -3.4068   20.7306 H   0  0  0  0  0  0  0  0  0  0  0  0
    9.0674   -2.9775   22.4335 H   0  0  0  0  0  0  0  0  0  0  0  0
    7.5011   -2.1347   21.0944 C   0  0  1  0  0  0  0  0  0  0  0  0
    7.2659   -2.4078   20.0684 H   0  0  0  0  0  0  0  0  0  0  0  0
    6.4942   -2.8235   21.9777 C   0  0  0  0  0  0  0  0  0  0  0  0
    5.3017   -3.8472   21.2307 S   0  0  0  0  0  0  0  0  0  0  0  0
    4.5274   -4.1706   22.7446 C   0  0  0  0  0  0  0  0  0  0  0  0
    3.3110   -4.8456   22.9312 C   0  0  0  0  0  0  0  0  0  0  0  0
    2.7447   -5.1895   22.0720 H   0  0  0  0  0  0  0  0  0  0  0  0
    2.8543   -5.0214   24.2289 C   0  0  0  0  0  0  0  0  0  0  0  0
    1.9116   -5.5307   24.4058 H   0  0  0  0  0  0  0  0  0  0  0  0
    3.6026   -4.5417   25.3232 C   0  0  0  0  0  0  0  0  0  0  0  0
    3.2462   -4.7162   26.3335 H   0  0  0  0  0  0  0  0  0  0  0  0
    4.7870   -3.8444   25.1236 C   0  0  0  0  0  0  0  0  0  0  0  0
    5.3470   -3.4717   25.9725 H   0  0  0  0  0  0  0  0  0  0  0  0
    5.2614   -3.6177   23.8133 C   0  0  0  0  0  0  0  0  0  0  0  0
    6.3991   -2.8594   23.3319 C   0  0  0  0  0  0  0  0  0  0  0  0
    7.0999   -2.3542   23.9882 H   0  0  0  0  0  0  0  0  0  0  0  0
    5.5023    0.6775   20.1544 C   0  0  0  0  0  0  0  0  0  0  0  0
    5.0657    0.6622   21.1565 H   0  0  0  0  0  0  0  0  0  0  0  0
    4.8301    1.3050   19.0990 C   0  0  0  0  0  0  0  0  0  0  0  0
    3.8835    1.8162   19.2567 H   0  0  0  0  0  0  0  0  0  0  0  0
  1  2  1  0
  2  3  2  0
  3  4  1  0
  4  5  1  0
  4  6  2  0
  6  7  1  0
  7  8  1  1
  7  9  1  0
  9 10  2  0
  9 11  1  0
 11 12  1  0
 11 13  1  0
 13 14  1  0
 13 15  1  0
 13 16  1  0
 16 17  1  6
 16 18  1  0
 18 19  1  0
 19 20  1  0
 20 21  2  0
 21 22  1  0
 21 23  1  0
 23 24  1  0
 23 25  2  0
 25 26  1  0
 25 27  1  0
 27 28  1  0
 27 29  2  0
 29 30  1  0
 30 31  1  0
  6 32  1  0
 32 33  1  0
 32 34  2  0
 34 35  1  0
 34  2  1  0
 16  7  1  0
 30 18  2  0
 29 20  1  0
M  END
>  <cnnaffinity>  (1) 
-5.11554

>  <filename>  (1) 
O=C1NC[C@@H](c2cc3ccccc3s2)[C@@H]1c1cccnc1

$$$$
