
     RDKit          3D

 34 36  0  0  0  0  0  0  0  0999 V2000
    5.6079   -2.0237   21.5930 O   0  0  0  0  0  0  0  0  0  0  0  0
    6.7322   -1.6327   21.8018 C   0  0  0  0  0  0  0  0  0  0  0  0
    7.6817   -2.1193   22.8410 C   0  0  0  0  0  0  0  0  0  0  0  0
    7.3909   -2.7601   24.0074 C   0  0  0  0  0  0  0  0  0  0  0  0
    6.0527   -2.9891   24.4908 C   0  0  0  0  0  0  0  0  0  0  0  0
    5.7987   -3.7624   25.5723 C   0  0  0  0  0  0  0  0  0  0  0  0
    4.4848   -4.0470   26.1605 C   0  0  0  0  0  0  0  0  0  0  0  0
    3.3715   -3.2096   25.9613 C   0  0  0  0  0  0  0  0  0  0  0  0
    2.1366   -3.5240   26.5327 C   0  0  0  0  0  0  0  0  0  0  0  0
    1.9938   -4.6813   27.3058 C   0  0  0  0  0  0  0  0  0  0  0  0
    3.0931   -5.5248   27.5134 C   0  0  0  0  0  0  0  0  0  0  0  0
    4.3285   -5.2052   26.9488 C   0  0  0  0  0  0  0  0  0  0  0  0
    5.1854   -5.8593   27.0991 H   0  0  0  0  0  0  0  0  0  0  0  0
    2.9893   -6.4256   28.1144 H   0  0  0  0  0  0  0  0  0  0  0  0
    1.0317   -4.9233   27.7495 H   0  0  0  0  0  0  0  0  0  0  0  0
    1.2898   -2.8623   26.3704 H   0  0  0  0  0  0  0  0  0  0  0  0
    3.4881   -2.3039   25.3685 H   0  0  0  0  0  0  0  0  0  0  0  0
    6.6297   -4.2887   26.0440 H   0  0  0  0  0  0  0  0  0  0  0  0
    5.2399   -2.5447   23.9141 H   0  0  0  0  0  0  0  0  0  0  0  0
    8.2106   -3.1193   24.6440 H   0  0  0  0  0  0  0  0  0  0  0  0
    9.3148   -1.6360   22.3935 S   0  0  0  0  0  0  0  0  0  0  0  0
    8.7111   -0.4114   21.2774 C   0  0  0  0  0  0  0  0  0  0  0  0
    9.6187    0.8357   20.7455 S   0  0  0  0  0  0  0  0  0  0  0  0
    7.3786   -0.6524   20.9885 N   0  0  0  0  0  0  0  0  0  0  0  0
    6.6799    0.0044   19.8998 C   0  0  0  0  0  0  0  0  0  0  0  0
    5.4633    0.6337   20.1593 C   0  0  0  0  0  0  0  0  0  0  0  0
    4.8239    1.3032   19.1114 C   0  0  0  0  0  0  0  0  0  0  0  0
    5.4078    1.2893   17.8419 C   0  0  0  0  0  0  0  0  0  0  0  0
    6.5662    0.6666   17.5721 N   0  0  0  0  0  0  0  0  0  0  0  0
    7.1901    0.0472   18.5809 C   0  0  0  0  0  0  0  0  0  0  0  0
    8.1393   -0.4285   18.3430 H   0  0  0  0  0  0  0  0  0  0  0  0
    4.9305    1.7922   17.0043 H   0  0  0  0  0  0  0  0  0  0  0  0
    3.8913    1.8312   19.2690 H   0  0  0  0  0  0  0  0  0  0  0  0
    5.0451    0.5903   21.1624 H   0  0  0  0  0  0  0  0  0  0  0  0
  1  2  2  0
  2  3  1  0
  3  4  2  3
  4  5  1  0
  5  6  2  3
  6  7  1  0
  7  8  2  0
  8  9  1  0
  9 10  2  0
 10 11  1  0
 11 12  2  0
 12 13  1  0
 11 14  1  0
 10 15  1  0
  9 16  1  0
  8 17  1  0
  6 18  1  0
  5 19  1  0
  4 20  1  0
  3 21  1  0
 21 22  1  0
 22 23  2  0
 22 24  1  0
 24 25  1  0
 25 26  2  0
 26 27  1  0
 27 28  2  0
 28 29  1  0
 29 30  2  0
 30 31  1  0
 28 32  1  0
 27 33  1  0
 26 34  1  0
 24  2  1  0
 30 25  1  0
 12  7  1  0
M  END
>  <cnnaffinity>  (1) 
-5.67358

>  <filename>  (1) 
O=C1C(=CC=Cc2ccccc2)SC(=S)N1c1cccnc1

$$$$
