
     RDKit          3D

 33 35  0  0  0  0  0  0  0  0999 V2000
    4.9251    1.7929   16.9797 H   0  0  0  0  0  0  0  0  0  0  0  0
    5.3925    1.2990   17.8288 C   0  0  0  0  0  0  0  0  0  0  0  0
    6.5558    0.6784   17.5763 N   0  0  0  0  0  0  0  0  0  0  0  0
    7.1517    0.0636   18.6041 C   0  0  0  0  0  0  0  0  0  0  0  0
    8.0961   -0.4262   18.3763 H   0  0  0  0  0  0  0  0  0  0  0  0
    6.6341    0.0044   19.9094 C   0  0  0  0  0  0  0  0  0  0  0  0
    7.3909   -0.7097   20.9458 C   0  0  0  0  0  0  0  0  0  0  0  0
    8.7163   -0.9652   21.0280 C   0  0  0  0  0  0  0  0  0  0  0  0
    9.4858   -0.6644   20.3437 H   0  0  0  0  0  0  0  0  0  0  0  0
    8.9937   -1.6757   22.2533 C   0  0  0  0  0  0  0  0  0  0  0  0
   10.0575   -2.0864   22.6958 O   0  0  0  0  0  0  0  0  0  0  0  0
    7.7201   -1.8102   22.8678 N   0  0  0  0  0  0  0  0  0  0  0  0
    7.4130   -2.4647   24.0896 C   0  0  0  0  0  0  0  0  0  0  0  0
    8.3245   -2.3491   25.1475 C   0  0  0  0  0  0  0  0  0  0  0  0
    9.2269   -1.7729   24.9839 H   0  0  0  0  0  0  0  0  0  0  0  0
    8.0597   -2.9959   26.3534 C   0  0  0  0  0  0  0  0  0  0  0  0
    8.7727   -2.9080   27.1669 H   0  0  0  0  0  0  0  0  0  0  0  0
    6.9050   -3.7660   26.5311 C   0  0  0  0  0  0  0  0  0  0  0  0
    6.7072   -4.2685   27.4718 H   0  0  0  0  0  0  0  0  0  0  0  0
    6.0127   -3.8710   25.4622 C   0  0  0  0  0  0  0  0  0  0  0  0
    4.8255   -4.5988   25.5169 O   0  0  0  0  0  0  0  0  0  0  0  0
    4.4390   -5.2750   26.6204 C   0  0  0  0  0  0  0  0  0  0  0  0
    5.3107   -6.2310   26.9863 F   0  0  0  0  0  0  0  0  0  0  0  0
    4.2703   -4.4836   27.6949 F   0  0  0  0  0  0  0  0  0  0  0  0
    3.2768   -5.8456   26.3236 F   0  0  0  0  0  0  0  0  0  0  0  0
    6.2487   -3.2318   24.2448 C   0  0  0  0  0  0  0  0  0  0  0  0
    5.5382   -3.3420   23.4325 H   0  0  0  0  0  0  0  0  0  0  0  0
    6.7738   -1.2402   22.0290 N   0  0  0  0  0  0  0  0  0  0  0  0
    5.8042   -1.1664   22.2872 H   0  0  0  0  0  0  0  0  0  0  0  0
    5.4143    0.6581   20.1519 C   0  0  0  0  0  0  0  0  0  0  0  0
    4.9849    0.6631   21.1587 H   0  0  0  0  0  0  0  0  0  0  0  0
    4.7918    1.3190   19.0943 C   0  0  0  0  0  0  0  0  0  0  0  0
    3.8620    1.8544   19.2400 H   0  0  0  0  0  0  0  0  0  0  0  0
  1  2  1  0
  2  3  2  0
  3  4  1  0
  4  5  1  0
  4  6  2  0
  6  7  1  0
  7  8  2  0
  8  9  1  0
  8 10  1  0
 10 11  2  0
 10 12  1  0
 12 13  1  0
 13 14  2  0
 14 15  1  0
 14 16  1  0
 16 17  1  0
 16 18  2  0
 18 19  1  0
 18 20  1  0
 20 21  1  0
 21 22  1  0
 22 23  1  0
 22 24  1  0
 22 25  1  0
 20 26  2  0
 26 27  1  0
 12 28  1  0
 28 29  1  0
  6 30  1  0
 30 31  1  0
 30 32  2  0
 32 33  1  0
 32  2  1  0
 28  7  1  0
 26 13  1  0
M  END
>  <cnnaffinity>  (1) 
-5.39101

>  <filename>  (1) 
O=c1cc(-c2cccnc2)[nH]n1-c1cccc(OC(F)(F)F)c1

$$$$
