
     RDKit          3D

 37 40  0  0  0  0  0  0  0  0999 V2000
    5.3558    1.7987   16.7672 H   0  0  0  0  0  0  0  0  0  0  0  0
    5.7257    1.2939   17.6592 C   0  0  0  0  0  0  0  0  0  0  0  0
    6.9547    0.7624   17.5650 N   0  0  0  0  0  0  0  0  0  0  0  0
    7.4431    0.1630   18.6586 C   0  0  0  0  0  0  0  0  0  0  0  0
    8.4465   -0.2555   18.5718 H   0  0  0  0  0  0  0  0  0  0  0  0
    6.7459    0.0268   19.8819 C   0  0  0  0  0  0  0  0  0  0  0  0
    7.3877   -0.5998   21.0772 C   0  0  0  0  0  0  0  0  0  0  0  0
    8.5072   -0.0508   21.6134 C   0  0  0  0  0  0  0  0  0  0  0  0
    8.9183    0.8831   21.2313 H   0  0  0  0  0  0  0  0  0  0  0  0
    9.1824   -0.6235   22.6906 N   0  0  0  0  0  0  0  0  0  0  0  0
   10.4768   -0.1353   23.1171 C   0  0  0  0  0  0  0  0  0  0  0  0
   10.5298    0.7700   24.1542 C   0  0  0  0  0  0  0  0  0  0  0  0
    9.6049    1.1006   24.6197 H   0  0  0  0  0  0  0  0  0  0  0  0
   11.7820    1.2491   24.6323 C   0  0  0  0  0  0  0  0  0  0  0  0
   11.8005    1.9972   25.4175 H   0  0  0  0  0  0  0  0  0  0  0  0
   12.9556    0.7744   24.1026 C   0  0  0  0  0  0  0  0  0  0  0  0
   13.9185    1.1234   24.4637 H   0  0  0  0  0  0  0  0  0  0  0  0
   12.9413   -0.1576   23.0184 C   0  0  0  0  0  0  0  0  0  0  0  0
   14.1549   -0.6220   22.4369 C   0  0  0  0  0  0  0  0  0  0  0  0
   15.0802   -0.2864   22.8837 H   0  0  0  0  0  0  0  0  0  0  0  0
   14.1374   -1.4423   21.3387 C   0  0  0  0  0  0  0  0  0  0  0  0
   15.0469   -1.7728   20.8592 H   0  0  0  0  0  0  0  0  0  0  0  0
   12.9090   -1.8392   20.7656 C   0  0  0  0  0  0  0  0  0  0  0  0
   12.9300   -2.4750   19.8862 H   0  0  0  0  0  0  0  0  0  0  0  0
   11.7123   -1.4389   21.3165 C   0  0  0  0  0  0  0  0  0  0  0  0
   10.7709   -1.7394   20.8676 H   0  0  0  0  0  0  0  0  0  0  0  0
   11.6892   -0.5931   22.4741 C   0  0  0  0  0  0  0  0  0  0  0  0
    8.6277   -1.7064   23.3972 C   0  0  0  0  0  0  0  0  0  0  0  0
    9.0550   -2.1753   24.4249 O   0  0  0  0  0  0  0  0  0  0  0  0
    7.5209   -2.2412   22.8224 N   0  0  0  0  0  0  0  0  0  0  0  0
    7.1672   -3.0447   23.2982 H   0  0  0  0  0  0  0  0  0  0  0  0
    6.8325   -1.8328   21.7024 C   0  0  0  0  0  0  0  0  0  0  0  0
    5.8984   -2.5119   21.3386 O   0  0  0  0  0  0  0  0  0  0  0  0
    5.4453    0.5556   19.9362 C   0  0  0  0  0  0  0  0  0  0  0  0
    4.8628    0.4644   20.8539 H   0  0  0  0  0  0  0  0  0  0  0  0
    4.9411    1.2214   18.8132 C   0  0  0  0  0  0  0  0  0  0  0  0
    3.9685    1.7000   18.8220 H   0  0  0  0  0  0  0  0  0  0  0  0
  1  2  1  0
  2  3  2  0
  3  4  1  0
  4  5  1  0
  4  6  2  0
  6  7  1  0
  7  8  2  0
  8  9  1  0
  8 10  1  0
 10 11  1  0
 11 12  2  0
 12 13  1  0
 12 14  1  0
 14 15  1  0
 14 16  2  0
 16 17  1  0
 16 18  1  0
 18 19  2  0
 19 20  1  0
 19 21  1  0
 21 22  1  0
 21 23  2  0
 23 24  1  0
 23 25  1  0
 25 26  1  0
 25 27  2  0
 10 28  1  0
 28 29  2  0
 28 30  1  0
 30 31  1  0
 30 32  1  0
 32 33  2  0
  6 34  1  0
 34 35  1  0
 34 36  2  0
 36 37  1  0
 36  2  1  0
 32  7  1  0
 27 11  1  0
 27 18  1  0
M  END
>  <cnnaffinity>  (1) 
-6.35473

>  <filename>  (1) 
O=c1[nH]c(=O)n(-c2cccc3ccccc23)cc1-c1cccnc1

$$$$
