
     RDKit          3D

 37 39  0  0  0  0  0  0  0  0999 V2000
    4.9185    1.8050   16.9777 H   0  0  0  0  0  0  0  0  0  0  0  0
    5.3905    1.3022   17.8209 C   0  0  0  0  0  0  0  0  0  0  0  0
    6.5517    0.6820   17.5588 N   0  0  0  0  0  0  0  0  0  0  0  0
    7.1624    0.0654   18.5805 C   0  0  0  0  0  0  0  0  0  0  0  0
    8.1033   -0.4228   18.3272 H   0  0  0  0  0  0  0  0  0  0  0  0
    6.6576    0.0050   19.8975 C   0  0  0  0  0  0  0  0  0  0  0  0
    7.3808   -0.7116   20.9873 C   0  0  0  0  0  0  0  0  0  0  0  0
    6.6962   -1.5614   21.9040 C   0  0  0  0  0  0  0  0  0  0  0  0
    5.6293   -1.7133   21.7908 H   0  0  0  0  0  0  0  0  0  0  0  0
    7.3323   -2.2384   22.9199 C   0  0  0  0  0  0  0  0  0  0  0  0
    6.5229   -3.0349   23.6787 O   0  0  0  0  0  0  0  0  0  0  0  0
    6.9379   -3.5167   24.9644 C   0  0  0  0  0  0  0  0  0  0  0  0
    7.9078   -4.0207   24.8455 H   0  0  0  0  0  0  0  0  0  0  0  0
    5.8575   -4.4979   25.4442 C   0  0  0  0  0  0  0  0  0  0  0  0
    5.7990   -5.3508   24.7577 H   0  0  0  0  0  0  0  0  0  0  0  0
    4.8886   -3.9766   25.4329 H   0  0  0  0  0  0  0  0  0  0  0  0
    6.1335   -4.9702   26.8747 C   0  0  0  0  0  0  0  0  0  0  0  0
    5.3083   -5.5995   27.2337 H   0  0  0  0  0  0  0  0  0  0  0  0
    7.0471   -5.6007   26.8913 H   0  0  0  0  0  0  0  0  0  0  0  0
    6.2278   -3.7941   27.7384 N   0  0  0  0  0  0  0  0  0  0  0  0
    6.3411   -4.0885   28.7037 H   0  0  0  0  0  0  0  0  0  0  0  0
    7.3170   -2.8941   27.3564 C   0  0  0  0  0  0  0  0  0  0  0  0
    8.3122   -3.3764   27.4404 H   0  0  0  0  0  0  0  0  0  0  0  0
    7.3156   -2.0003   27.9882 H   0  0  0  0  0  0  0  0  0  0  0  0
    7.0791   -2.3687   25.9572 C   0  0  0  0  0  0  0  0  0  0  0  0
    7.9096   -1.7116   25.6853 H   0  0  0  0  0  0  0  0  0  0  0  0
    6.1528   -1.7801   25.9731 H   0  0  0  0  0  0  0  0  0  0  0  0
    8.8123   -2.0863   23.0655 C   0  0  0  0  0  0  0  0  0  0  0  0
    9.5989   -2.5848   23.8669 O   0  0  0  0  0  0  0  0  0  0  0  0
    9.3765   -1.2335   22.1311 N   0  0  0  0  0  0  0  0  0  0  0  0
   10.3713   -1.2191   22.3164 H   0  0  0  0  0  0  0  0  0  0  0  0
    8.7317   -0.5669   21.1270 C   0  0  0  0  0  0  0  0  0  0  0  0
    9.3197    0.0756   20.4846 H   0  0  0  0  0  0  0  0  0  0  0  0
    5.4385    0.6539   20.1378 C   0  0  0  0  0  0  0  0  0  0  0  0
    5.0131    0.6473   21.1416 H   0  0  0  0  0  0  0  0  0  0  0  0
    4.7985    1.3187   19.0888 C   0  0  0  0  0  0  0  0  0  0  0  0
    3.8650    1.8490   19.2394 H   0  0  0  0  0  0  0  0  0  0  0  0
  1  2  1  0
  2  3  2  0
  3  4  1  0
  4  5  1  0
  4  6  2  0
  6  7  1  0
  7  8  1  0
  8  9  1  0
  8 10  2  0
 10 11  1  0
 11 12  1  0
 12 13  1  0
 12 14  1  0
 14 15  1  0
 14 16  1  0
 14 17  1  0
 17 18  1  0
 17 19  1  0
 17 20  1  0
 20 21  1  0
 20 22  1  0
 22 23  1  0
 22 24  1  0
 22 25  1  0
 25 26  1  0
 25 27  1  0
 10 28  1  0
 28 29  2  0
 28 30  1  0
 30 31  1  0
 30 32  1  0
 32 33  1  0
  6 34  1  0
 34 35  1  0
 34 36  2  0
 36 37  1  0
 36  2  1  0
 32  7  2  0
 25 12  1  0
M  END
>  <cnnaffinity>  (1) 
-4.91511

>  <filename>  (1) 
O=c1[nH]cc(-c2cccnc2)cc1OC1CCNCC1

$$$$
