
     RDKit          3D

 36 38  0  0  0  0  0  0  0  0999 V2000
    4.9088    1.8083   16.9761 H   0  0  0  0  0  0  0  0  0  0  0  0
    5.3813    1.3084   17.8180 C   0  0  0  0  0  0  0  0  0  0  0  0
    6.5411    0.6870   17.5433 N   0  0  0  0  0  0  0  0  0  0  0  0
    7.1556    0.0662   18.5547 C   0  0  0  0  0  0  0  0  0  0  0  0
    8.1166   -0.4049   18.3467 H   0  0  0  0  0  0  0  0  0  0  0  0
    6.6277    0.0047   19.8594 C   0  0  0  0  0  0  0  0  0  0  0  0
    7.3292   -0.6781   20.9189 N   0  0  0  0  0  0  0  0  0  0  0  0
    8.5964   -0.1850   21.3451 C   0  0  0  0  0  0  0  0  0  0  0  0
    9.0750    0.8062   20.8342 O   0  0  0  0  0  0  0  0  0  0  0  0
    9.2593   -0.9306   22.3899 C   0  0  0  0  0  0  0  0  0  0  0  0
   10.1999   -0.5148   22.7174 H   0  0  0  0  0  0  0  0  0  0  0  0
    8.7123   -2.0151   22.9655 C   0  0  0  0  0  0  0  0  0  0  0  0
    9.3587   -2.7488   24.1362 C   0  0  0  0  0  0  0  0  0  0  0  0
    8.7462   -3.6225   24.3920 H   0  0  0  0  0  0  0  0  0  0  0  0
   10.3273   -3.1272   23.7934 H   0  0  0  0  0  0  0  0  0  0  0  0
    9.6180   -1.9619   25.3335 N   0  0  0  0  0  0  0  0  0  0  0  0
   10.5178   -1.5178   25.4213 H   0  0  0  0  0  0  0  0  0  0  0  0
    8.6334   -1.3139   26.0585 C   0  0  0  0  0  0  0  0  0  0  0  0
    7.2830   -1.6887   25.9700 C   0  0  0  0  0  0  0  0  0  0  0  0
    7.0013   -2.4556   25.2580 H   0  0  0  0  0  0  0  0  0  0  0  0
    6.3285   -1.0907   26.7942 C   0  0  0  0  0  0  0  0  0  0  0  0
    5.2928   -1.4139   26.7220 H   0  0  0  0  0  0  0  0  0  0  0  0
    6.7032   -0.1014   27.7063 C   0  0  0  0  0  0  0  0  0  0  0  0
    5.9594    0.3533   28.3515 H   0  0  0  0  0  0  0  0  0  0  0  0
    8.0431    0.2954   27.7793 C   0  0  0  0  0  0  0  0  0  0  0  0
    8.3432    1.0605   28.4904 H   0  0  0  0  0  0  0  0  0  0  0  0
    9.0037   -0.2976   26.9586 C   0  0  0  0  0  0  0  0  0  0  0  0
   10.0481    0.0032   27.0127 H   0  0  0  0  0  0  0  0  0  0  0  0
    7.5025   -2.4353   22.4556 N   0  0  0  0  0  0  0  0  0  0  0  0
    6.9449   -3.2142   22.7543 H   0  0  0  0  0  0  0  0  0  0  0  0
    6.7655   -1.8147   21.4770 C   0  0  0  0  0  0  0  0  0  0  0  0
    5.7091   -2.3234   21.1685 O   0  0  0  0  0  0  0  0  0  0  0  0
    5.4271    0.6486   20.1365 C   0  0  0  0  0  0  0  0  0  0  0  0
    5.0272    0.6104   21.1482 H   0  0  0  0  0  0  0  0  0  0  0  0
    4.7959    1.3247   19.0880 C   0  0  0  0  0  0  0  0  0  0  0  0
    3.8681    1.8536   19.2449 H   0  0  0  0  0  0  0  0  0  0  0  0
  1  2  1  0
  2  3  2  0
  3  4  1  0
  4  5  1  0
  4  6  2  0
  6  7  1  0
  7  8  1  0
  8  9  2  0
  8 10  1  0
 10 11  1  0
 10 12  2  0
 12 13  1  0
 13 14  1  0
 13 15  1  0
 13 16  1  0
 16 17  1  0
 16 18  1  0
 18 19  2  0
 19 20  1  0
 19 21  1  0
 21 22  1  0
 21 23  2  0
 23 24  1  0
 23 25  1  0
 25 26  1  0
 25 27  2  0
 27 28  1  0
 12 29  1  0
 29 30  1  0
 29 31  1  0
 31 32  2  0
  6 33  1  0
 33 34  1  0
 33 35  2  0
 35 36  1  0
 35  2  1  0
 31  7  1  0
 27 18  1  0
M  END
>  <cnnaffinity>  (1) 
-5.267

>  <filename>  (1) 
O=c1cc(CNc2ccccc2)[nH]c(=O)n1-c1cccnc1

$$$$
