
     RDKit          3D

 25 26  0  0  0  0  0  0  0  0999 V2000
    7.2313    3.9071   26.3075 H   0  0  0  0  0  0  0  0  0  0  0  0
    7.3641    2.9683   25.7898 C   0  0  0  0  0  0  0  0  0  0  0  0
    7.6938    1.7389   26.1954 C   0  0  0  0  0  0  0  0  0  0  0  0
    7.9329    1.3298   27.1689 H   0  0  0  0  0  0  0  0  0  0  0  0
    7.7221    0.8541   25.0065 C   0  0  0  0  0  0  0  0  0  0  0  0
    8.0026   -0.3226   24.9460 O   0  0  0  0  0  0  0  0  0  0  0  0
    7.3801    1.6323   23.9192 N   0  0  0  0  0  0  0  0  0  0  0  0
    7.5468    1.2996   22.5872 C   0  0  0  0  0  0  0  0  0  0  0  0
    7.8833    2.0734   21.7409 O   0  0  0  0  0  0  0  0  0  0  0  0
    7.2330   -0.0219   22.4027 N   0  0  0  0  0  0  0  0  0  0  0  0
    7.5546   -0.5616   23.2000 H   0  0  0  0  0  0  0  0  0  0  0  0
    7.2825   -0.6233   21.1806 C   0  0  0  0  0  0  0  0  0  0  0  0
    8.0692   -2.0485   21.0511 S   0  0  0  0  0  0  0  0  0  0  0  0
    6.5917    0.0711   20.0765 C   0  0  0  0  0  0  0  0  0  0  0  0
    7.1799    0.0565   18.8079 C   0  0  0  0  0  0  0  0  0  0  0  0
    8.1321   -0.4502   18.6448 H   0  0  0  0  0  0  0  0  0  0  0  0
    6.6397    0.6357   17.7307 N   0  0  0  0  0  0  0  0  0  0  0  0
    5.4684    1.2686   17.8942 C   0  0  0  0  0  0  0  0  0  0  0  0
    5.0310    1.7215   17.0060 H   0  0  0  0  0  0  0  0  0  0  0  0
    4.7961    1.3300   19.1172 C   0  0  0  0  0  0  0  0  0  0  0  0
    3.8529    1.8498   19.1903 H   0  0  0  0  0  0  0  0  0  0  0  0
    5.3593    0.7259   20.2359 C   0  0  0  0  0  0  0  0  0  0  0  0
    4.8709    0.7685   21.2109 H   0  0  0  0  0  0  0  0  0  0  0  0
    7.1536    2.9474   24.3143 C   0  0  0  0  0  0  0  0  0  0  0  0
    6.8313    3.8521   23.6037 O   0  0  0  0  0  0  0  0  0  0  0  0
  1  2  1  0
  2  3  2  0
  3  4  1  0
  3  5  1  0
  5  6  2  0
  5  7  1  0
  7  8  1  0
  8  9  2  0
  8 10  1  0
 10 11  1  0
 10 12  1  0
 12 13  2  0
 12 14  1  0
 14 15  2  0
 15 16  1  0
 15 17  1  0
 17 18  2  0
 18 19  1  0
 18 20  1  0
 20 21  1  0
 20 22  2  0
 22 23  1  0
  7 24  1  0
 24 25  2  0
 24  2  1  0
 22 14  1  0
M  END
>  <cnnaffinity>  (1) 
-5.25521

>  <filename>  (1) 
O=C1C=CC(=O)N1C(=O)NC(=S)c1cccnc1

$$$$
