
     RDKit          3D

 25 26  0  0  0  0  0  0  0  0999 V2000
    4.9095    1.8858   16.9322 H   0  0  0  0  0  0  0  0  0  0  0  0
    5.3735    1.3442   17.7543 C   0  0  0  0  0  0  0  0  0  0  0  0
    6.5243    0.7098   17.4728 N   0  0  0  0  0  0  0  0  0  0  0  0
    7.1413    0.0646   18.4707 C   0  0  0  0  0  0  0  0  0  0  0  0
    8.0873   -0.4177   18.2324 H   0  0  0  0  0  0  0  0  0  0  0  0
    6.6288   -0.0018   19.7846 C   0  0  0  0  0  0  0  0  0  0  0  0
    7.3425   -0.6409   20.8813 N   0  0  0  0  0  0  0  0  0  0  0  0
    8.6137   -0.1357   21.2915 C   0  0  0  0  0  0  0  0  0  0  0  0
    9.2018    0.6672   20.5942 O   0  0  0  0  0  0  0  0  0  0  0  0
    9.1234   -0.6085   22.5637 C   0  0  0  0  0  0  0  0  0  0  0  0
   10.0479   -0.1508   22.8668 H   0  0  0  0  0  0  0  0  0  0  0  0
    8.5000   -1.5871   23.2436 C   0  0  0  0  0  0  0  0  0  0  0  0
    9.0407   -2.2712   24.7677 S   0  0  0  0  0  0  0  0  0  0  0  0
   10.0454   -3.6626   24.0754 C   0  0  0  0  0  0  0  0  0  0  0  0
   10.6769   -4.2309   25.1017 F   0  0  0  0  0  0  0  0  0  0  0  0
    9.2711   -4.5738   23.4836 F   0  0  0  0  0  0  0  0  0  0  0  0
   10.9530   -3.2331   23.2018 F   0  0  0  0  0  0  0  0  0  0  0  0
    7.3702   -2.1342   22.6875 N   0  0  0  0  0  0  0  0  0  0  0  0
    6.9291   -2.9630   23.0341 H   0  0  0  0  0  0  0  0  0  0  0  0
    6.7717   -1.7420   21.5123 C   0  0  0  0  0  0  0  0  0  0  0  0
    5.8284   -2.3790   21.1000 O   0  0  0  0  0  0  0  0  0  0  0  0
    5.4086    0.6203   20.0470 C   0  0  0  0  0  0  0  0  0  0  0  0
    4.9825    0.5543   21.0452 H   0  0  0  0  0  0  0  0  0  0  0  0
    4.7758    1.3257   19.0174 C   0  0  0  0  0  0  0  0  0  0  0  0
    3.8497    1.8636   19.1906 H   0  0  0  0  0  0  0  0  0  0  0  0
  1  2  1  0
  2  3  2  0
  3  4  1  0
  4  5  1  0
  4  6  2  0
  6  7  1  0
  7  8  1  0
  8  9  2  0
  8 10  1  0
 10 11  1  0
 10 12  2  0
 12 13  1  0
 13 14  1  0
 14 15  1  0
 14 16  1  0
 14 17  1  0
 12 18  1  0
 18 19  1  0
 18 20  1  0
 20 21  2  0
  6 22  1  0
 22 23  1  0
 22 24  2  0
 24 25  1  0
 24  2  1  0
 20  7  1  0
M  END
>  <cnnaffinity>  (1) 
-4.88499

>  <filename>  (1) 
O=c1cc(SC(F)(F)F)[nH]c(=O)n1-c1cccnc1

$$$$
