
     RDKit          3D

 43 46  0  0  0  0  0  0  0  0999 V2000
    6.6302    2.2941   22.8892 O   0  0  0  0  0  0  0  0  0  0  0  0
    7.1567    3.2641   23.3827 C   0  0  0  0  0  0  0  0  0  0  0  0
    6.5258    4.3184   24.2499 C   0  0  0  0  0  0  0  0  0  0  0  0
    5.1795    4.4589   24.6292 C   0  0  0  0  0  0  0  0  0  0  0  0
    4.8700    5.4579   25.5423 C   0  0  0  0  0  0  0  0  0  0  0  0
    3.5944    5.6132   25.9228 F   0  0  0  0  0  0  0  0  0  0  0  0
    5.8251    6.3167   26.0952 C   0  0  0  0  0  0  0  0  0  0  0  0
    7.1569    6.1844   25.7154 C   0  0  0  0  0  0  0  0  0  0  0  0
    7.4719    5.1944   24.7758 C   0  0  0  0  0  0  0  0  0  0  0  0
    9.0617    4.5801   24.3908 S   0  0  0  0  0  0  0  0  0  0  0  0
    9.9561    5.5793   23.8411 O   0  0  0  0  0  0  0  0  0  0  0  0
    9.4759    3.7826   25.5325 O   0  0  0  0  0  0  0  0  0  0  0  0
    8.4896    3.5722   23.1806 N   0  0  0  0  0  0  0  0  0  0  0  0
    9.4214    2.6752   22.4863 C   0  0  0  0  0  0  0  0  0  0  0  0
    9.5699    1.3081   23.1435 C   0  0  0  0  0  0  0  0  0  0  0  0
   10.1920    1.1711   24.3938 C   0  0  0  0  0  0  0  0  0  0  0  0
   10.1612   -0.0527   25.0730 C   0  0  0  0  0  0  0  0  0  0  0  0
   10.6167   -0.1072   26.7467 Cl  0  0  0  0  0  0  0  0  0  0  0  0
    9.6824   -1.2100   24.4634 C   0  0  0  0  0  0  0  0  0  0  0  0
    9.1570   -1.1035   23.1774 C   0  0  0  0  0  0  0  0  0  0  0  0
    9.0532    0.1410   22.5409 C   0  0  0  0  0  0  0  0  0  0  0  0
    8.4913    0.2705   21.3073 O   0  0  0  0  0  0  0  0  0  0  0  0
    7.4615   -0.6370   20.9182 C   0  0  0  0  0  0  0  0  0  0  0  0
    6.6486    0.0271   19.8457 C   0  0  0  0  0  0  0  0  0  0  0  0
    5.4469    0.6959   20.1028 C   0  0  0  0  0  0  0  0  0  0  0  0
    4.8065    1.3479   19.0444 C   0  0  0  0  0  0  0  0  0  0  0  0
    5.4006    1.3145   17.7794 C   0  0  0  0  0  0  0  0  0  0  0  0
    6.5461    0.6660   17.5144 N   0  0  0  0  0  0  0  0  0  0  0  0
    7.1485    0.0521   18.5388 C   0  0  0  0  0  0  0  0  0  0  0  0
    8.0880   -0.4509   18.3090 H   0  0  0  0  0  0  0  0  0  0  0  0
    4.9340    1.8170   16.9334 H   0  0  0  0  0  0  0  0  0  0  0  0
    3.8757    1.8873   19.1825 H   0  0  0  0  0  0  0  0  0  0  0  0
    5.0466    0.7316   21.1185 H   0  0  0  0  0  0  0  0  0  0  0  0
    7.9233   -1.5559   20.5292 H   0  0  0  0  0  0  0  0  0  0  0  0
    6.8287   -0.8869   21.7818 H   0  0  0  0  0  0  0  0  0  0  0  0
    8.8209   -1.9792   22.6428 H   0  0  0  0  0  0  0  0  0  0  0  0
    9.6922   -2.1601   24.9936 H   0  0  0  0  0  0  0  0  0  0  0  0
   10.6530    2.0212   24.8864 H   0  0  0  0  0  0  0  0  0  0  0  0
    9.0775    2.5510   21.4530 H   0  0  0  0  0  0  0  0  0  0  0  0
   10.3914    3.1854   22.4409 H   0  0  0  0  0  0  0  0  0  0  0  0
    7.9037    6.8429   26.1503 H   0  0  0  0  0  0  0  0  0  0  0  0
    5.5124    7.0500   26.8303 H   0  0  0  0  0  0  0  0  0  0  0  0
    4.3898    3.8313   24.2337 H   0  0  0  0  0  0  0  0  0  0  0  0
  1  2  2  0
  2  3  1  0
  3  4  2  0
  4  5  1  0
  5  6  1  0
  5  7  2  0
  7  8  1  0
  8  9  2  0
  9 10  1  0
 10 11  2  0
 10 12  2  0
 10 13  1  0
 13 14  1  0
 14 15  1  0
 15 16  2  0
 16 17  1  0
 17 18  1  0
 17 19  2  0
 19 20  1  0
 20 21  2  0
 21 22  1  0
 22 23  1  0
 23 24  1  0
 24 25  2  0
 25 26  1  0
 26 27  2  0
 27 28  1  0
 28 29  2  0
 29 30  1  0
 27 31  1  0
 26 32  1  0
 25 33  1  0
 23 34  1  0
 23 35  1  0
 20 36  1  0
 19 37  1  0
 16 38  1  0
 14 39  1  0
 14 40  1  0
  8 41  1  0
  7 42  1  0
  4 43  1  0
 13  2  1  0
 21 15  1  0
 29 24  1  0
  9  3  1  0
M  END
>  <cnnaffinity>  (1) 
-5.89792

>  <filename>  (1) 
O=C1c2cc(F)ccc2S(=O)(=O)N1Cc1cc(Cl)ccc1OCc1cccnc1

$$$$
