
     RDKit          3D

 32 35  0  0  0  0  0  0  0  0999 V2000
    4.9299    1.7894   16.8938 H   0  0  0  0  0  0  0  0  0  0  0  0
    5.3977    1.3336   17.7643 C   0  0  0  0  0  0  0  0  0  0  0  0
    6.5860    0.7473   17.5533 N   0  0  0  0  0  0  0  0  0  0  0  0
    7.1821    0.1698   18.6032 C   0  0  0  0  0  0  0  0  0  0  0  0
    8.1514   -0.2693   18.3766 H   0  0  0  0  0  0  0  0  0  0  0  0
    6.6479    0.1343   19.9057 C   0  0  0  0  0  0  0  0  0  0  0  0
    7.3745   -0.5286   21.0331 C   0  0  0  0  0  0  0  0  0  0  0  0
    7.0320   -0.1311   22.2992 N   0  0  0  0  0  0  0  0  0  0  0  0
    7.6736   -0.6394   23.3368 C   0  0  0  0  0  0  0  0  0  0  0  0
    7.5405   -0.0133   24.6488 C   0  0  0  0  0  0  0  0  0  0  0  0
    6.8108    1.0057   24.9703 N   0  0  0  0  0  0  0  0  0  0  0  0
    7.0559    1.2022   26.3230 C   0  0  0  0  0  0  0  0  0  0  0  0
    6.5373    2.1393   27.2403 C   0  0  0  0  0  0  0  0  0  0  0  0
    5.8454    2.9059   26.8959 H   0  0  0  0  0  0  0  0  0  0  0  0
    6.9422    2.0303   28.5732 C   0  0  0  0  0  0  0  0  0  0  0  0
    6.5324    2.7134   29.3127 H   0  0  0  0  0  0  0  0  0  0  0  0
    7.8598    1.0361   28.9808 C   0  0  0  0  0  0  0  0  0  0  0  0
    8.1585    0.9724   30.0249 H   0  0  0  0  0  0  0  0  0  0  0  0
    8.4036    0.1234   28.0680 C   0  0  0  0  0  0  0  0  0  0  0  0
    9.1260   -0.6309   28.3651 H   0  0  0  0  0  0  0  0  0  0  0  0
    7.9722    0.2338   26.7492 C   0  0  0  0  0  0  0  0  0  0  0  0
    8.2930   -0.5300   25.6767 O   0  0  0  0  0  0  0  0  0  0  0  0
    8.5799   -1.8168   23.2411 C   0  0  0  0  0  0  0  0  0  0  0  0
    9.0600   -2.5131   24.1065 O   0  0  0  0  0  0  0  0  0  0  0  0
    8.9029   -2.1098   21.9121 N   0  0  0  0  0  0  0  0  0  0  0  0
    9.5336   -2.9063   21.8940 H   0  0  0  0  0  0  0  0  0  0  0  0
    8.3503   -1.4764   20.8260 C   0  0  0  0  0  0  0  0  0  0  0  0
    8.7388   -1.7363   19.8492 H   0  0  0  0  0  0  0  0  0  0  0  0
    5.4116    0.7779   20.1052 C   0  0  0  0  0  0  0  0  0  0  0  0
    4.9910    0.8256   21.1113 H   0  0  0  0  0  0  0  0  0  0  0  0
    4.7751    1.3770   19.0171 C   0  0  0  0  0  0  0  0  0  0  0  0
    3.8284    1.8992   19.1285 H   0  0  0  0  0  0  0  0  0  0  0  0
  1  2  1  0
  2  3  2  0
  3  4  1  0
  4  5  1  0
  4  6  2  0
  6  7  1  0
  7  8  1  0
  8  9  2  0
  9 10  1  0
 10 11  2  0
 11 12  1  0
 12 13  2  0
 13 14  1  0
 13 15  1  0
 15 16  1  0
 15 17  2  0
 17 18  1  0
 17 19  1  0
 19 20  1  0
 19 21  2  0
 21 22  1  0
  9 23  1  0
 23 24  2  0
 23 25  1  0
 25 26  1  0
 25 27  1  0
 27 28  1  0
  6 29  1  0
 29 30  1  0
 29 31  2  0
 31 32  1  0
 31  2  1  0
 27  7  2  0
 22 10  1  0
 21 12  1  0
M  END
>  <cnnaffinity>  (1) 
-5.27196

>  <filename>  (1) 
O=c1[nH]cc(-c2cccnc2)nc1-c1nc2ccccc2o1

$$$$
