
     RDKit          3D

 25 27  0  0  0  0  0  0  0  0999 V2000
    6.8385   -1.3828   24.6620 H   0  0  0  0  0  0  0  0  0  0  0  0
    7.7429   -1.7894   24.2127 C   0  0  0  0  0  0  0  0  0  0  0  0
    8.6164   -2.5130   24.9488 C   0  0  0  0  0  0  0  0  0  0  0  0
   10.0526   -3.3087   24.3094 S   0  0  0  0  0  0  0  0  0  0  0  0
   10.3076   -4.1492   25.8566 C   0  0  0  0  0  0  0  0  0  0  0  0
   11.0517   -5.0631   26.0604 O   0  0  0  0  0  0  0  0  0  0  0  0
    9.5182   -3.5971   26.8257 N   0  0  0  0  0  0  0  0  0  0  0  0
    9.5687   -3.9819   27.7531 H   0  0  0  0  0  0  0  0  0  0  0  0
    8.4716   -2.8147   26.4229 C   0  0  0  0  0  0  0  0  0  0  0  0
    7.5913   -2.4622   27.1630 O   0  0  0  0  0  0  0  0  0  0  0  0
    7.9143   -1.5138   22.8014 C   0  0  0  0  0  0  0  0  0  0  0  0
    8.8675   -1.8636   21.9929 N   0  0  0  0  0  0  0  0  0  0  0  0
    8.5349   -1.3331   20.7635 N   0  0  0  0  0  0  0  0  0  0  0  0
    7.4104   -0.7083   20.9142 C   0  0  0  0  0  0  0  0  0  0  0  0
    6.6369    0.0109   19.9101 C   0  0  0  0  0  0  0  0  0  0  0  0
    7.1664    0.0463   18.6147 C   0  0  0  0  0  0  0  0  0  0  0  0
    8.1165   -0.4432   18.4077 H   0  0  0  0  0  0  0  0  0  0  0  0
    6.5693    0.6612   17.5950 N   0  0  0  0  0  0  0  0  0  0  0  0
    5.4107    1.2879   17.8444 C   0  0  0  0  0  0  0  0  0  0  0  0
    4.9570    1.7969   16.9986 H   0  0  0  0  0  0  0  0  0  0  0  0
    4.7950    1.3118   19.1016 C   0  0  0  0  0  0  0  0  0  0  0  0
    3.8599    1.8497   19.2277 H   0  0  0  0  0  0  0  0  0  0  0  0
    5.4179    0.6625   20.1650 C   0  0  0  0  0  0  0  0  0  0  0  0
    4.9730    0.6696   21.1618 H   0  0  0  0  0  0  0  0  0  0  0  0
    6.9549   -0.7803   22.1821 O   0  0  0  0  0  0  0  0  0  0  0  0
  1  2  1  0
  2  3  2  3
  3  4  1  0
  4  5  1  0
  5  6  2  0
  5  7  1  0
  7  8  1  0
  7  9  1  0
  9 10  2  0
  2 11  1  0
 11 12  2  0
 12 13  1  0
 13 14  2  0
 14 15  1  0
 15 16  2  0
 16 17  1  0
 16 18  1  0
 18 19  2  0
 19 20  1  0
 19 21  1  0
 21 22  1  0
 21 23  2  0
 23 24  1  0
 14 25  1  0
  9  3  1  0
 25 11  1  0
 23 15  1  0
M  END
>  <cnnaffinity>  (1) 
-5.06195

>  <filename>  (1) 
O=C1NC(=O)C(=Cc2nnc(-c3cccnc3)o2)S1

$$$$
