
     RDKit          3D

 34 36  0  0  0  0  0  0  0  0999 V2000
    5.0454    1.8682   16.9292 H   0  0  0  0  0  0  0  0  0  0  0  0
    5.4529    1.3428   17.7903 C   0  0  0  0  0  0  0  0  0  0  0  0
    6.6104    0.6900   17.5963 N   0  0  0  0  0  0  0  0  0  0  0  0
    7.1249    0.0195   18.6350 C   0  0  0  0  0  0  0  0  0  0  0  0
    8.0648   -0.5025   18.4682 H   0  0  0  0  0  0  0  0  0  0  0  0
    6.5190   -0.0328   19.9070 C   0  0  0  0  0  0  0  0  0  0  0  0
    7.1410   -0.7080   21.0243 N   0  0  0  0  0  0  0  0  0  0  0  0
    7.6461    0.0453   22.0819 C   0  0  0  0  0  0  0  0  0  0  0  0
    7.4796    1.1216   22.0095 H   0  0  0  0  0  0  0  0  0  0  0  0
    8.3247   -0.5214   23.1035 C   0  0  0  0  0  0  0  0  0  0  0  0
    8.8161    0.2722   24.2971 C   0  0  0  0  0  0  0  0  0  0  0  0
    8.0310    0.9601   24.6462 H   0  0  0  0  0  0  0  0  0  0  0  0
    9.0232   -0.4120   25.1296 H   0  0  0  0  0  0  0  0  0  0  0  0
   10.0602    1.0856   23.9828 C   0  0  0  0  0  0  0  0  0  0  0  0
    9.9756    2.2913   23.2725 C   0  0  0  0  0  0  0  0  0  0  0  0
    9.0011    2.6838   22.9920 H   0  0  0  0  0  0  0  0  0  0  0  0
   11.1289    2.9769   22.9013 C   0  0  0  0  0  0  0  0  0  0  0  0
   11.0594    3.8930   22.3307 H   0  0  0  0  0  0  0  0  0  0  0  0
   12.3915    2.4690   23.2226 C   0  0  0  0  0  0  0  0  0  0  0  0
   13.7907    3.3919   22.7982 Cl  0  0  0  0  0  0  0  0  0  0  0  0
   12.4848    1.2418   23.8971 C   0  0  0  0  0  0  0  0  0  0  0  0
   13.9983    0.4560   24.1781 Cl  0  0  0  0  0  0  0  0  0  0  0  0
   11.3230    0.5932   24.3234 C   0  0  0  0  0  0  0  0  0  0  0  0
   11.4281   -0.3130   24.9170 H   0  0  0  0  0  0  0  0  0  0  0  0
    8.6628   -1.9553   23.0042 C   0  0  0  0  0  0  0  0  0  0  0  0
    9.3355   -2.6005   23.7803 O   0  0  0  0  0  0  0  0  0  0  0  0
    8.1189   -2.6115   21.9210 N   0  0  0  0  0  0  0  0  0  0  0  0
    8.1452   -3.6098   21.9810 H   0  0  0  0  0  0  0  0  0  0  0  0
    7.1697   -2.1200   21.0752 C   0  0  0  0  0  0  0  0  0  0  0  0
    6.4712   -2.8533   20.4214 O   0  0  0  0  0  0  0  0  0  0  0  0
    5.3108    0.6402   20.0893 C   0  0  0  0  0  0  0  0  0  0  0  0
    4.8260    0.6045   21.0641 H   0  0  0  0  0  0  0  0  0  0  0  0
    4.7693    1.3469   19.0099 C   0  0  0  0  0  0  0  0  0  0  0  0
    3.8518    1.9138   19.1127 H   0  0  0  0  0  0  0  0  0  0  0  0
  1  2  1  0
  2  3  2  0
  3  4  1  0
  4  5  1  0
  4  6  2  0
  6  7  1  0
  7  8  1  0
  8  9  1  0
  8 10  2  0
 10 11  1  0
 11 12  1  0
 11 13  1  0
 11 14  1  0
 14 15  2  0
 15 16  1  0
 15 17  1  0
 17 18  1  0
 17 19  2  0
 19 20  1  0
 19 21  1  0
 21 22  1  0
 21 23  2  0
 23 24  1  0
 10 25  1  0
 25 26  2  0
 25 27  1  0
 27 28  1  0
 27 29  1  0
 29 30  2  0
  6 31  1  0
 31 32  1  0
 31 33  2  0
 33 34  1  0
 33  2  1  0
 29  7  1  0
 23 14  1  0
M  END
>  <cnnaffinity>  (1) 
-5.66763

>  <filename>  (1) 
O=c1[nH]c(=O)n(-c2cccnc2)cc1Cc1ccc(Cl)c(Cl)c1

$$$$
