
     RDKit          3D

 30 32  0  0  0  0  0  0  0  0999 V2000
    4.9120    1.8100   16.9677 H   0  0  0  0  0  0  0  0  0  0  0  0
    5.3817    1.3111   17.8146 C   0  0  0  0  0  0  0  0  0  0  0  0
    6.5427    0.6908   17.5501 N   0  0  0  0  0  0  0  0  0  0  0  0
    7.1503    0.0751   18.5704 C   0  0  0  0  0  0  0  0  0  0  0  0
    8.0999   -0.4099   18.3504 H   0  0  0  0  0  0  0  0  0  0  0  0
    6.6529    0.0337   19.8828 C   0  0  0  0  0  0  0  0  0  0  0  0
    7.3943   -0.7099   20.9063 C   0  0  0  0  0  0  0  0  0  0  0  0
    7.6349   -2.0200   20.9827 C   0  0  0  0  0  0  0  0  0  0  0  0
    7.3215   -2.8238   20.3394 H   0  0  0  0  0  0  0  0  0  0  0  0
    8.3474   -2.3142   22.1132 O   0  0  0  0  0  0  0  0  0  0  0  0
    8.5696   -1.1426   22.7899 C   0  0  0  0  0  0  0  0  0  0  0  0
    9.1534   -1.0515   23.8402 O   0  0  0  0  0  0  0  0  0  0  0  0
    8.0017   -0.1418   22.0278 N   0  0  0  0  0  0  0  0  0  0  0  0
    8.0007    1.2637   22.3997 C   0  0  0  0  0  0  0  0  0  0  0  0
    8.1390    1.8553   21.4894 H   0  0  0  0  0  0  0  0  0  0  0  0
    8.8644    1.4162   23.0512 H   0  0  0  0  0  0  0  0  0  0  0  0
    6.7318    1.7323   23.0993 C   0  0  0  0  0  0  0  0  0  0  0  0
    6.2549    1.0750   24.2379 C   0  0  0  0  0  0  0  0  0  0  0  0
    6.7859    0.2225   24.6431 H   0  0  0  0  0  0  0  0  0  0  0  0
    5.0833    1.5240   24.8499 C   0  0  0  0  0  0  0  0  0  0  0  0
    4.7011    1.0238   25.7373 H   0  0  0  0  0  0  0  0  0  0  0  0
    4.3670    2.5684   24.4171 N   0  0  0  0  0  0  0  0  0  0  0  0
    4.8384    3.2202   23.3461 C   0  0  0  0  0  0  0  0  0  0  0  0
    4.2459    4.0723   23.0173 H   0  0  0  0  0  0  0  0  0  0  0  0
    6.0029    2.8509   22.6681 C   0  0  0  0  0  0  0  0  0  0  0  0
    6.2932    3.4095   21.7857 H   0  0  0  0  0  0  0  0  0  0  0  0
    5.4266    0.6684   20.1345 C   0  0  0  0  0  0  0  0  0  0  0  0
    5.0177    0.6341   21.1463 H   0  0  0  0  0  0  0  0  0  0  0  0
    4.7881    1.3275   19.0835 C   0  0  0  0  0  0  0  0  0  0  0  0
    3.8536    1.8584   19.2279 H   0  0  0  0  0  0  0  0  0  0  0  0
  1  2  1  0
  2  3  2  0
  3  4  1  0
  4  5  1  0
  4  6  2  0
  6  7  1  0
  7  8  2  0
  8  9  1  0
  8 10  1  0
 10 11  1  0
 11 12  2  0
 11 13  1  0
 13 14  1  0
 14 15  1  0
 14 16  1  0
 14 17  1  0
 17 18  2  0
 18 19  1  0
 18 20  1  0
 20 21  1  0
 20 22  2  0
 22 23  1  0
 23 24  1  0
 23 25  2  0
 25 26  1  0
  6 27  1  0
 27 28  1  0
 27 29  2  0
 29 30  1  0
 29  2  1  0
 13  7  1  0
 25 17  1  0
M  END
>  <cnnaffinity>  (1) 
-4.83153

>  <filename>  (1) 
O=c1occ(-c2cccnc2)n1Cc1ccncc1

$$$$
