
     RDKit          3D

 34 36  0  0  0  0  0  0  0  0999 V2000
    4.9495    1.8167   16.9582 H   0  0  0  0  0  0  0  0  0  0  0  0
    5.4067    1.3084   17.8057 C   0  0  0  0  0  0  0  0  0  0  0  0
    6.5633    0.6785   17.5605 N   0  0  0  0  0  0  0  0  0  0  0  0
    7.1455    0.0459   18.5913 C   0  0  0  0  0  0  0  0  0  0  0  0
    8.0959   -0.4367   18.3625 H   0  0  0  0  0  0  0  0  0  0  0  0
    6.6197    0.0055   19.8913 C   0  0  0  0  0  0  0  0  0  0  0  0
    7.3641   -0.7000   21.0152 C   0  0  2  0  0  0  0  0  0  0  0  0
    8.1692   -1.2937   20.5498 H   0  0  0  0  0  0  0  0  0  0  0  0
    6.5104   -1.6046   21.7805 N   0  0  0  0  0  0  0  0  0  0  0  0
    5.9090   -2.6918   21.0915 N   0  0  0  0  0  0  0  0  0  0  0  0
    5.0311   -2.9114   21.5630 H   0  0  0  0  0  0  0  0  0  0  0  0
    6.7827   -3.8759   21.0523 C   0  0  0  0  0  0  0  0  0  0  0  0
    7.7075   -3.5437   20.5886 H   0  0  0  0  0  0  0  0  0  0  0  0
    6.3208   -4.6063   20.3832 H   0  0  0  0  0  0  0  0  0  0  0  0
    7.1866   -4.4535   22.3816 C   0  0  0  0  0  0  0  0  0  0  0  0
    6.1331   -5.4256   23.3363 S   0  0  0  0  0  0  0  0  0  0  0  0
    7.2552   -5.4451   24.6404 C   0  0  0  0  0  0  0  0  0  0  0  0
    7.0131   -5.9616   25.5606 H   0  0  0  0  0  0  0  0  0  0  0  0
    8.3838   -4.7331   24.3557 C   0  0  0  0  0  0  0  0  0  0  0  0
    9.1911   -4.5512   25.0591 H   0  0  0  0  0  0  0  0  0  0  0  0
    8.3435   -4.1749   23.0417 C   0  0  0  0  0  0  0  0  0  0  0  0
    9.0806   -3.4906   22.6247 H   0  0  0  0  0  0  0  0  0  0  0  0
    6.5708   -1.4330   23.1546 C   0  0  0  0  0  0  0  0  0  0  0  0
    6.1120   -2.1653   24.0100 O   0  0  0  0  0  0  0  0  0  0  0  0
    7.2554   -0.1166   23.4083 C   0  0  0  0  0  0  0  0  0  0  0  0
    6.4509    0.5703   23.6903 H   0  0  0  0  0  0  0  0  0  0  0  0
    7.9162   -0.2039   24.2743 H   0  0  0  0  0  0  0  0  0  0  0  0
    7.9416    0.2585   22.0875 C   0  0  0  0  0  0  0  0  0  0  0  0
    7.7567    1.3017   21.8101 H   0  0  0  0  0  0  0  0  0  0  0  0
    9.0258    0.1330   22.1511 H   0  0  0  0  0  0  0  0  0  0  0  0
    5.4083    0.6682   20.1197 C   0  0  0  0  0  0  0  0  0  0  0  0
    4.9627    0.6674   21.1161 H   0  0  0  0  0  0  0  0  0  0  0  0
    4.7858    1.3313   19.0609 C   0  0  0  0  0  0  0  0  0  0  0  0
    3.8555    1.8719   19.1976 H   0  0  0  0  0  0  0  0  0  0  0  0
  1  2  1  0
  2  3  2  0
  3  4  1  0
  4  5  1  0
  4  6  2  0
  6  7  1  0
  7  8  1  6
  7  9  1  0
  9 10  1  0
 10 11  1  0
 10 12  1  0
 12 13  1  0
 12 14  1  0
 12 15  1  0
 15 16  1  0
 16 17  1  0
 17 18  1  0
 17 19  2  0
 19 20  1  0
 19 21  1  0
 21 22  1  0
  9 23  1  0
 23 24  2  0
 23 25  1  0
 25 26  1  0
 25 27  1  0
 25 28  1  0
 28 29  1  0
 28 30  1  0
  6 31  1  0
 31 32  1  0
 31 33  2  0
 33 34  1  0
 33  2  1  0
 28  7  1  0
 21 15  2  0
M  END
>  <cnnaffinity>  (1) 
-4.85702

>  <filename>  (1) 
O=C1CC[C@H](c2cccnc2)N1NCc1cccs1

$$$$
