
     RDKit          3D

 35 38  0  0  0  0  0  0  0  0999 V2000
    4.9940    1.8086   16.9386 H   0  0  0  0  0  0  0  0  0  0  0  0
    5.4784    1.3257   17.7906 C   0  0  0  0  0  0  0  0  0  0  0  0
    6.6756    0.7689   17.5523 N   0  0  0  0  0  0  0  0  0  0  0  0
    7.2776    0.1489   18.5747 C   0  0  0  0  0  0  0  0  0  0  0  0
    8.2591   -0.2721   18.3751 H   0  0  0  0  0  0  0  0  0  0  0  0
    6.7049   -0.0113   19.8501 C   0  0  0  0  0  0  0  0  0  0  0  0
    7.4449   -0.8164   20.8809 C   0  0  0  0  0  0  0  0  0  0  0  0
    8.7088   -0.4967   21.0090 N   0  0  0  0  0  0  0  0  0  0  0  0
    9.4406   -1.1027   21.9818 N   0  0  0  0  0  0  0  0  0  0  0  0
   10.8378   -0.8014   22.0527 C   0  0  0  0  0  0  0  0  0  0  0  0
   11.7452   -1.8395   21.9910 C   0  0  0  0  0  0  0  0  0  0  0  0
   11.3592   -2.8548   21.9123 H   0  0  0  0  0  0  0  0  0  0  0  0
   13.0982   -1.7011   22.0154 N   0  0  0  0  0  0  0  0  0  0  0  0
   13.5837   -0.4912   22.1900 C   0  0  0  0  0  0  0  0  0  0  0  0
   14.6707   -0.3843   22.1695 H   0  0  0  0  0  0  0  0  0  0  0  0
   12.7719    0.6737   22.3715 C   0  0  0  0  0  0  0  0  0  0  0  0
   13.3446    1.9523   22.6469 C   0  0  0  0  0  0  0  0  0  0  0  0
   14.4278    2.0221   22.7718 H   0  0  0  0  0  0  0  0  0  0  0  0
   12.5415    3.0612   22.7282 C   0  0  0  0  0  0  0  0  0  0  0  0
   12.9882    4.0386   22.8886 H   0  0  0  0  0  0  0  0  0  0  0  0
   11.1323    2.9485   22.5850 C   0  0  0  0  0  0  0  0  0  0  0  0
   10.5112    3.8407   22.6240 H   0  0  0  0  0  0  0  0  0  0  0  0
   10.5434    1.7184   22.3766 C   0  0  0  0  0  0  0  0  0  0  0  0
    9.4671    1.6226   22.2961 H   0  0  0  0  0  0  0  0  0  0  0  0
   11.3465    0.5370   22.2500 C   0  0  0  0  0  0  0  0  0  0  0  0
    8.8617   -1.9469   22.9013 C   0  0  0  0  0  0  0  0  0  0  0  0
    9.5328   -2.2877   23.6896 H   0  0  0  0  0  0  0  0  0  0  0  0
    7.5691   -2.3068   22.8495 C   0  0  0  0  0  0  0  0  0  0  0  0
    7.1178   -2.9411   23.6000 H   0  0  0  0  0  0  0  0  0  0  0  0
    6.7629   -1.8947   21.7153 C   0  0  0  0  0  0  0  0  0  0  0  0
    5.6628   -2.3822   21.4826 O   0  0  0  0  0  0  0  0  0  0  0  0
    5.4769    0.6259   20.1004 C   0  0  0  0  0  0  0  0  0  0  0  0
    5.0285    0.6167   21.0966 H   0  0  0  0  0  0  0  0  0  0  0  0
    4.8581    1.3004   19.0434 C   0  0  0  0  0  0  0  0  0  0  0  0
    3.9216    1.8257   19.1781 H   0  0  0  0  0  0  0  0  0  0  0  0
  1  2  1  0
  2  3  2  0
  3  4  1  0
  4  5  1  0
  4  6  2  0
  6  7  1  0
  7  8  2  0
  8  9  1  0
  9 10  1  0
 10 11  2  0
 11 12  1  0
 11 13  1  0
 13 14  2  0
 14 15  1  0
 14 16  1  0
 16 17  2  0
 17 18  1  0
 17 19  1  0
 19 20  1  0
 19 21  2  0
 21 22  1  0
 21 23  1  0
 23 24  1  0
 23 25  2  0
  9 26  1  0
 26 27  1  0
 26 28  2  0
 28 29  1  0
 28 30  1  0
 30 31  2  0
  6 32  1  0
 32 33  1  0
 32 34  2  0
 34 35  1  0
 34  2  1  0
 30  7  1  0
 25 10  1  0
 25 16  1  0
M  END
>  <cnnaffinity>  (1) 
-6.24209

>  <filename>  (1) 
O=c1ccn(-c2cncc3ccccc23)nc1-c1cccnc1

$$$$
