
     RDKit          3D

 32 34  0  0  0  0  0  0  0  0999 V2000
    4.9503    1.8136   16.9727 H   0  0  0  0  0  0  0  0  0  0  0  0
    5.4070    1.2963   17.8141 C   0  0  0  0  0  0  0  0  0  0  0  0
    6.5620    0.6576   17.5652 N   0  0  0  0  0  0  0  0  0  0  0  0
    7.1554    0.0470   18.5965 C   0  0  0  0  0  0  0  0  0  0  0  0
    8.0916   -0.4700   18.3766 H   0  0  0  0  0  0  0  0  0  0  0  0
    6.6358    0.0193   19.8995 C   0  0  0  0  0  0  0  0  0  0  0  0
    7.4064   -0.6494   20.9455 C   0  0  0  0  0  0  0  0  0  0  0  0
    8.7712   -0.5492   21.0803 C   0  0  0  0  0  0  0  0  0  0  0  0
    9.3601    0.0768   20.4229 H   0  0  0  0  0  0  0  0  0  0  0  0
    9.4209   -1.2426   22.1244 C   0  0  0  0  0  0  0  0  0  0  0  0
   10.4983   -1.1870   22.2727 H   0  0  0  0  0  0  0  0  0  0  0  0
    8.7137   -2.0468   22.9835 C   0  0  0  0  0  0  0  0  0  0  0  0
    9.4551   -2.6243   23.9726 O   0  0  0  0  0  0  0  0  0  0  0  0
    9.2722   -3.9133   24.3980 C   0  0  0  0  0  0  0  0  0  0  0  0
    8.8008   -4.9376   23.5757 C   0  0  0  0  0  0  0  0  0  0  0  0
    8.5357   -4.7325   22.5450 H   0  0  0  0  0  0  0  0  0  0  0  0
    8.6338   -6.2113   24.1228 C   0  0  0  0  0  0  0  0  0  0  0  0
    8.2432   -6.9968   23.4820 H   0  0  0  0  0  0  0  0  0  0  0  0
    8.9499   -6.4553   25.4655 C   0  0  0  0  0  0  0  0  0  0  0  0
    8.7908   -7.4271   25.9185 H   0  0  0  0  0  0  0  0  0  0  0  0
    9.4683   -5.4231   26.2554 C   0  0  0  0  0  0  0  0  0  0  0  0
    9.7236   -5.5980   27.2953 H   0  0  0  0  0  0  0  0  0  0  0  0
    9.6449   -4.1530   25.7181 C   0  0  0  0  0  0  0  0  0  0  0  0
   10.0314   -3.3174   26.2872 H   0  0  0  0  0  0  0  0  0  0  0  0
    7.2437   -2.1770   22.8747 C   0  0  0  0  0  0  0  0  0  0  0  0
    6.4958   -2.8647   23.5466 O   0  0  0  0  0  0  0  0  0  0  0  0
    6.7085   -1.4206   21.8463 N   0  0  0  0  0  0  0  0  0  0  0  0
    5.7064   -1.5340   21.8141 H   0  0  0  0  0  0  0  0  0  0  0  0
    5.4083    0.6645   20.1348 C   0  0  0  0  0  0  0  0  0  0  0  0
    4.9728    0.6737   21.1350 H   0  0  0  0  0  0  0  0  0  0  0  0
    4.7932    1.3203   19.0716 C   0  0  0  0  0  0  0  0  0  0  0  0
    3.8572    1.8501   19.2067 H   0  0  0  0  0  0  0  0  0  0  0  0
  1  2  1  0
  2  3  2  0
  3  4  1  0
  4  5  1  0
  4  6  2  0
  6  7  1  0
  7  8  2  0
  8  9  1  0
  8 10  1  0
 10 11  1  0
 10 12  2  0
 12 13  1  0
 13 14  1  0
 14 15  2  0
 15 16  1  0
 15 17  1  0
 17 18  1  0
 17 19  2  0
 19 20  1  0
 19 21  1  0
 21 22  1  0
 21 23  2  0
 23 24  1  0
 12 25  1  0
 25 26  2  0
 25 27  1  0
 27 28  1  0
  6 29  1  0
 29 30  1  0
 29 31  2  0
 31 32  1  0
 31  2  1  0
 27  7  1  0
 23 14  1  0
M  END
>  <cnnaffinity>  (1) 
-5.10226

>  <filename>  (1) 
O=c1[nH]c(-c2cccnc2)ccc1Oc1ccccc1

$$$$
