
     RDKit          3D

 34 37  0  0  0  0  0  0  0  0999 V2000
    4.9920    1.7972   16.9012 H   0  0  0  0  0  0  0  0  0  0  0  0
    5.4363    1.2850   17.7521 C   0  0  0  0  0  0  0  0  0  0  0  0
    6.5572    0.5818   17.5067 N   0  0  0  0  0  0  0  0  0  0  0  0
    7.1194   -0.0535   18.5382 C   0  0  0  0  0  0  0  0  0  0  0  0
    7.9968   -0.6546   18.3227 H   0  0  0  0  0  0  0  0  0  0  0  0
    6.6375    0.0329   19.8607 C   0  0  0  0  0  0  0  0  0  0  0  0
    7.3519   -0.5694   20.9369 N   0  0  0  0  0  0  0  0  0  0  0  0
    7.7964   -1.8345   20.6575 N   0  0  0  0  0  0  0  0  0  0  0  0
    8.4262   -2.4750   21.5915 C   0  0  0  0  0  0  0  0  0  0  0  0
    8.6695   -3.5031   21.3444 H   0  0  0  0  0  0  0  0  0  0  0  0
    8.7453   -1.9145   22.8768 C   0  0  0  0  0  0  0  0  0  0  0  0
    9.3436   -2.7798   23.9138 C   0  0  0  0  0  0  0  0  0  0  0  0
   10.4827   -3.5542   23.6668 C   0  0  0  0  0  0  0  0  0  0  0  0
   10.9969   -3.4497   22.7175 H   0  0  0  0  0  0  0  0  0  0  0  0
   10.9727   -4.4690   24.6232 C   0  0  0  0  0  0  0  0  0  0  0  0
   11.7805   -5.1410   24.3545 H   0  0  0  0  0  0  0  0  0  0  0  0
   10.3845   -4.5906   25.8768 C   0  0  0  0  0  0  0  0  0  0  0  0
   10.7254   -5.3405   26.5872 H   0  0  0  0  0  0  0  0  0  0  0  0
    9.2788   -3.7662   26.1462 C   0  0  0  0  0  0  0  0  0  0  0  0
    8.7182   -2.8957   25.1796 C   0  0  0  0  0  0  0  0  0  0  0  0
    7.5109   -2.3677   25.7608 C   0  0  0  0  0  0  0  0  0  0  0  0
    6.7998   -1.7224   25.2572 H   0  0  0  0  0  0  0  0  0  0  0  0
    7.4087   -2.8870   27.0149 C   0  0  0  0  0  0  0  0  0  0  0  0
    6.5949   -2.8294   27.7214 H   0  0  0  0  0  0  0  0  0  0  0  0
    8.4796   -3.7201   27.2582 N   0  0  0  0  0  0  0  0  0  0  0  0
    8.7698   -4.0753   28.1560 H   0  0  0  0  0  0  0  0  0  0  0  0
    8.3693   -0.6219   23.1146 C   0  0  0  0  0  0  0  0  0  0  0  0
    8.5623   -0.1125   24.0480 H   0  0  0  0  0  0  0  0  0  0  0  0
    7.5717    0.1365   22.1824 C   0  0  0  0  0  0  0  0  0  0  0  0
    7.1139    1.2454   22.3997 O   0  0  0  0  0  0  0  0  0  0  0  0
    5.4500    0.7260   20.1008 C   0  0  0  0  0  0  0  0  0  0  0  0
    5.0517    0.7877   21.1114 H   0  0  0  0  0  0  0  0  0  0  0  0
    4.8297    1.3424   19.0106 C   0  0  0  0  0  0  0  0  0  0  0  0
    3.8876    1.8661   19.1350 H   0  0  0  0  0  0  0  0  0  0  0  0
  1  2  1  0
  2  3  2  0
  3  4  1  0
  4  5  1  0
  4  6  2  0
  6  7  1  0
  7  8  1  0
  8  9  2  0
  9 10  1  0
  9 11  1  0
 11 12  1  0
 12 13  2  0
 13 14  1  0
 13 15  1  0
 15 16  1  0
 15 17  2  0
 17 18  1  0
 17 19  1  0
 19 20  2  0
 20 21  1  0
 21 22  1  0
 21 23  2  0
 23 24  1  0
 23 25  1  0
 25 26  1  0
 11 27  2  0
 27 28  1  0
 27 29  1  0
 29 30  2  0
  6 31  1  0
 31 32  1  0
 31 33  2  0
 33 34  1  0
 33  2  1  0
 29  7  1  0
 20 12  1  0
 25 19  1  0
M  END
>  <cnnaffinity>  (1) 
-5.40873

>  <filename>  (1) 
O=c1cc(-c2cccc3[nH]ccc23)cnn1-c1cccnc1

$$$$
