
     RDKit          3D

 39 42  0  0  0  0  0  0  0  0999 V2000
   14.6129    4.0785   22.7554 O   0  0  0  0  0  0  0  0  0  0  0  0
   13.6244    3.3731   22.6696 C   0  0  0  0  0  0  0  0  0  0  0  0
   12.3919    4.0205   22.6368 N   0  0  0  0  0  0  0  0  0  0  0  0
   11.1723    3.4381   22.4680 C   0  0  0  0  0  0  0  0  0  0  0  0
   11.0526    2.0784   22.4561 C   0  0  0  0  0  0  0  0  0  0  0  0
    9.7457    1.4387   22.3487 C   0  0  0  0  0  0  0  0  0  0  0  0
    9.3959    0.4917   21.4970 N   0  0  0  0  0  0  0  0  0  0  0  0
    8.0866    0.2875   21.7878 C   0  0  0  0  0  0  0  0  0  0  0  0
    7.2630   -0.6888   20.9951 C   0  0  0  0  0  0  0  0  0  0  0  0
    6.5432   -0.0474   19.8057 C   0  0  0  0  0  0  0  0  0  0  0  0
    5.3450    0.6545   20.0048 C   0  0  0  0  0  0  0  0  0  0  0  0
    4.7689    1.3431   18.9351 C   0  0  0  0  0  0  0  0  0  0  0  0
    5.4123    1.2974   17.6955 C   0  0  0  0  0  0  0  0  0  0  0  0
    6.5380    0.6037   17.4653 N   0  0  0  0  0  0  0  0  0  0  0  0
    7.0783   -0.0492   18.5031 C   0  0  0  0  0  0  0  0  0  0  0  0
    7.9903   -0.6104   18.2888 H   0  0  0  0  0  0  0  0  0  0  0  0
    5.0115    1.8508   16.8503 H   0  0  0  0  0  0  0  0  0  0  0  0
    3.8594    1.9259   19.0527 H   0  0  0  0  0  0  0  0  0  0  0  0
    4.8776    0.6642   20.9909 H   0  0  0  0  0  0  0  0  0  0  0  0
    7.9631   -1.4651   20.6626 H   0  0  0  0  0  0  0  0  0  0  0  0
    6.5373   -1.1478   21.6792 H   0  0  0  0  0  0  0  0  0  0  0  0
    7.6150    1.0289   22.7719 N   0  0  0  0  0  0  0  0  0  0  0  0
    8.6858    1.7739   23.1342 N   0  0  0  0  0  0  0  0  0  0  0  0
    8.5735    2.6726   24.2753 C   0  0  0  0  0  0  0  0  0  0  0  0
    7.8560    3.9713   23.9275 C   0  0  0  0  0  0  0  0  0  0  0  0
    7.9832    4.8283   25.0067 F   0  0  0  0  0  0  0  0  0  0  0  0
    8.2841    4.4538   23.0435 H   0  0  0  0  0  0  0  0  0  0  0  0
    6.7967    3.7929   23.7306 H   0  0  0  0  0  0  0  0  0  0  0  0
    8.0119    2.1564   25.0552 H   0  0  0  0  0  0  0  0  0  0  0  0
    9.5610    2.8947   24.6834 H   0  0  0  0  0  0  0  0  0  0  0  0
   12.2525    1.2987   22.5405 C   0  0  0  0  0  0  0  0  0  0  0  0
   13.5061    1.9056   22.6168 C   0  0  0  0  0  0  0  0  0  0  0  0
   14.5719    0.9613   22.5905 C   0  0  0  0  0  0  0  0  0  0  0  0
   14.1209   -0.3180   22.6062 C   0  0  0  0  0  0  0  0  0  0  0  0
   12.3937   -0.4208   22.5669 S   0  0  0  0  0  0  0  0  0  0  0  0
   14.6861   -1.2379   22.6616 H   0  0  0  0  0  0  0  0  0  0  0  0
   15.6014    1.2708   22.4352 H   0  0  0  0  0  0  0  0  0  0  0  0
   10.3228    4.0997   22.3022 H   0  0  0  0  0  0  0  0  0  0  0  0
   12.5409    5.0118   22.7224 H   0  0  0  0  0  0  0  0  0  0  0  0
  1  2  2  0
  2  3  1  0
  3  4  1  0
  4  5  2  0
  5  6  1  0
  6  7  2  0
  7  8  1  0
  8  9  1  0
  9 10  1  0
 10 11  2  0
 11 12  1  0
 12 13  2  0
 13 14  1  0
 14 15  2  0
 15 16  1  0
 13 17  1  0
 12 18  1  0
 11 19  1  0
  9 20  1  0
  9 21  1  0
  8 22  2  0
 22 23  1  0
 23 24  1  0
 24 25  1  0
 25 26  1  0
 25 27  1  0
 25 28  1  0
 24 29  1  0
 24 30  1  0
  5 31  1  0
 31 32  2  0
 32 33  1  0
 33 34  2  0
 34 35  1  0
 34 36  1  0
 33 37  1  0
  4 38  1  0
  3 39  1  0
 32  2  1  0
 23  6  1  0
 35 31  1  0
 15 10  1  0
M  END
>  <cnnaffinity>  (1) 
-6.46377

>  <filename>  (1) 
O=c1[nH]cc(-c2nc(Cc3cccnc3)nn2CCF)c2sccc12

$$$$
