
     RDKit          3D

 32 34  0  0  0  0  0  0  0  0999 V2000
    4.9710    1.8445   16.9393 H   0  0  0  0  0  0  0  0  0  0  0  0
    5.4530    1.3400   17.7765 C   0  0  0  0  0  0  0  0  0  0  0  0
    6.6483    0.7802   17.5271 N   0  0  0  0  0  0  0  0  0  0  0  0
    7.2541    0.1499   18.5369 C   0  0  0  0  0  0  0  0  0  0  0  0
    8.2312   -0.2703   18.3160 H   0  0  0  0  0  0  0  0  0  0  0  0
    6.6910   -0.0161   19.8161 C   0  0  0  0  0  0  0  0  0  0  0  0
    7.4298   -0.8445   20.8197 C   0  0  0  0  0  0  0  0  0  0  0  0
    8.7228   -0.6390   20.8581 N   0  0  0  0  0  0  0  0  0  0  0  0
    9.4659   -1.2658   21.8065 N   0  0  0  0  0  0  0  0  0  0  0  0
   10.8720   -0.8411   21.8800 C   0  0  0  0  0  0  0  0  0  0  0  0
   11.4615   -1.6899   22.2372 H   0  0  0  0  0  0  0  0  0  0  0  0
   11.1770   -0.5938   20.8606 H   0  0  0  0  0  0  0  0  0  0  0  0
   11.0838    0.3606   22.7906 C   0  0  0  0  0  0  0  0  0  0  0  0
   11.1222    1.6668   22.2865 C   0  0  0  0  0  0  0  0  0  0  0  0
   11.0494    1.8688   21.2181 H   0  0  0  0  0  0  0  0  0  0  0  0
   11.2063    2.7380   23.1850 C   0  0  0  0  0  0  0  0  0  0  0  0
   11.2686    3.7593   22.8140 H   0  0  0  0  0  0  0  0  0  0  0  0
   11.2294    2.5935   24.5175 N   0  0  0  0  0  0  0  0  0  0  0  0
   11.2039    1.3402   24.9935 C   0  0  0  0  0  0  0  0  0  0  0  0
   11.1806    1.2058   26.0707 H   0  0  0  0  0  0  0  0  0  0  0  0
   11.1638    0.2089   24.1804 C   0  0  0  0  0  0  0  0  0  0  0  0
   11.1619   -0.7691   24.6486 H   0  0  0  0  0  0  0  0  0  0  0  0
    8.8977   -1.9747   22.8335 C   0  0  0  0  0  0  0  0  0  0  0  0
    9.5689   -2.2869   23.6397 H   0  0  0  0  0  0  0  0  0  0  0  0
    7.5809   -2.2708   22.8444 C   0  0  0  0  0  0  0  0  0  0  0  0
    7.1141   -2.8583   23.6212 H   0  0  0  0  0  0  0  0  0  0  0  0
    6.7408   -1.8636   21.7267 C   0  0  0  0  0  0  0  0  0  0  0  0
    5.6194   -2.3238   21.5439 O   0  0  0  0  0  0  0  0  0  0  0  0
    5.4722    0.6353   20.0784 C   0  0  0  0  0  0  0  0  0  0  0  0
    5.0337    0.6149   21.0789 H   0  0  0  0  0  0  0  0  0  0  0  0
    4.8436    1.3138   19.0343 C   0  0  0  0  0  0  0  0  0  0  0  0
    3.9091    1.8451   19.1828 H   0  0  0  0  0  0  0  0  0  0  0  0
  1  2  1  0
  2  3  2  0
  3  4  1  0
  4  5  1  0
  4  6  2  0
  6  7  1  0
  7  8  2  0
  8  9  1  0
  9 10  1  0
 10 11  1  0
 10 12  1  0
 10 13  1  0
 13 14  2  0
 14 15  1  0
 14 16  1  0
 16 17  1  0
 16 18  2  0
 18 19  1  0
 19 20  1  0
 19 21  2  0
 21 22  1  0
  9 23  1  0
 23 24  1  0
 23 25  2  0
 25 26  1  0
 25 27  1  0
 27 28  2  0
  6 29  1  0
 29 30  1  0
 29 31  2  0
 31 32  1  0
 31  2  1  0
 27  7  1  0
 21 13  1  0
M  END
>  <cnnaffinity>  (1) 
-5.23124

>  <filename>  (1) 
O=c1ccn(Cc2ccncc2)nc1-c1cccnc1

$$$$
