
     RDKit          3D

 41 43  0  0  0  0  0  0  0  0999 V2000
    4.9686    1.8491   16.9978 H   0  0  0  0  0  0  0  0  0  0  0  0
    5.4199    1.3026   17.8247 C   0  0  0  0  0  0  0  0  0  0  0  0
    6.5634    0.6564   17.5502 N   0  0  0  0  0  0  0  0  0  0  0  0
    7.1565   -0.0183   18.5420 C   0  0  0  0  0  0  0  0  0  0  0  0
    8.0906   -0.5133   18.2882 H   0  0  0  0  0  0  0  0  0  0  0  0
    6.6357   -0.0916   19.8485 C   0  0  0  0  0  0  0  0  0  0  0  0
    7.3211   -0.7691   20.9020 N   0  0  0  0  0  0  0  0  0  0  0  0
    6.5200   -1.6160   21.6599 N   0  0  0  0  0  0  0  0  0  0  0  0
    7.0831   -2.2674   22.6389 C   0  0  0  0  0  0  0  0  0  0  0  0
    6.3659   -3.1618   23.4099 N   0  0  0  0  0  0  0  0  0  0  0  0
    6.9931   -3.8070   23.8635 H   0  0  0  0  0  0  0  0  0  0  0  0
    5.1206   -3.7775   22.9358 C   0  0  0  0  0  0  0  0  0  0  0  0
    4.4441   -2.9763   22.6389 H   0  0  0  0  0  0  0  0  0  0  0  0
    5.2755   -4.3838   22.0269 H   0  0  0  0  0  0  0  0  0  0  0  0
    4.4386   -4.6548   24.0204 C   0  0  0  0  0  0  0  0  0  0  0  0
    4.6650   -4.2024   24.9956 H   0  0  0  0  0  0  0  0  0  0  0  0
    3.3403   -4.5853   23.9081 H   0  0  0  0  0  0  0  0  0  0  0  0
    4.9081   -6.0516   24.0219 N   0  0  0  0  0  0  0  0  0  0  0  0
    4.3891   -6.8821   22.9246 C   0  0  0  0  0  0  0  0  0  0  0  0
    5.0995   -7.7092   22.8068 H   0  0  0  0  0  0  0  0  0  0  0  0
    4.3842   -6.3087   21.9906 H   0  0  0  0  0  0  0  0  0  0  0  0
    2.9829   -7.4639   23.1897 C   0  0  0  0  0  0  0  0  0  0  0  0
    2.2374   -6.6482   23.2013 H   0  0  0  0  0  0  0  0  0  0  0  0
    2.7012   -8.1682   22.4008 H   0  0  0  0  0  0  0  0  0  0  0  0
    2.9425   -8.1878   24.4160 O   0  0  0  0  0  0  0  0  0  0  0  0
    3.3587   -7.3736   25.5108 C   0  0  0  0  0  0  0  0  0  0  0  0
    3.3473   -8.0167   26.3968 H   0  0  0  0  0  0  0  0  0  0  0  0
    2.6478   -6.5435   25.6653 H   0  0  0  0  0  0  0  0  0  0  0  0
    4.7659   -6.7893   25.2860 C   0  0  0  0  0  0  0  0  0  0  0  0
    5.0518   -6.1446   26.1263 H   0  0  0  0  0  0  0  0  0  0  0  0
    5.4752   -7.6238   25.2714 H   0  0  0  0  0  0  0  0  0  0  0  0
    8.4750   -2.0834   22.9983 C   0  0  0  0  0  0  0  0  0  0  0  0
    8.8571   -2.6445   23.8485 H   0  0  0  0  0  0  0  0  0  0  0  0
    9.2421   -1.2205   22.2992 C   0  0  0  0  0  0  0  0  0  0  0  0
   10.2907   -1.0290   22.4877 H   0  0  0  0  0  0  0  0  0  0  0  0
    8.6981   -0.4570   21.1708 C   0  0  0  0  0  0  0  0  0  0  0  0
    9.3359    0.3478   20.5121 O   0  0  0  0  0  0  0  0  0  0  0  0
    5.4226    0.5497   20.1142 C   0  0  0  0  0  0  0  0  0  0  0  0
    4.9923    0.4601   21.1120 H   0  0  0  0  0  0  0  0  0  0  0  0
    4.8157    1.2784   19.0879 C   0  0  0  0  0  0  0  0  0  0  0  0
    3.8928    1.8252   19.2487 H   0  0  0  0  0  0  0  0  0  0  0  0
  1  2  1  0
  2  3  2  0
  3  4  1  0
  4  5  1  0
  4  6  2  0
  6  7  1  0
  7  8  1  0
  8  9  2  0
  9 10  1  0
 10 11  1  0
 10 12  1  0
 12 13  1  0
 12 14  1  0
 12 15  1  0
 15 16  1  0
 15 17  1  0
 15 18  1  0
 18 19  1  0
 19 20  1  0
 19 21  1  0
 19 22  1  0
 22 23  1  0
 22 24  1  0
 22 25  1  0
 25 26  1  0
 26 27  1  0
 26 28  1  0
 26 29  1  0
 29 30  1  0
 29 31  1  0
  9 32  1  0
 32 33  1  0
 32 34  2  0
 34 35  1  0
 34 36  1  0
 36 37  2  0
  6 38  1  0
 38 39  1  0
 38 40  2  0
 40 41  1  0
 40  2  1  0
 36  7  1  0
 29 18  1  0
M  END
>  <cnnaffinity>  (1) 
-5.02588

>  <filename>  (1) 
O=c1ccc(NCCN2CCOCC2)nn1-c1cccnc1

$$$$
