
     RDKit          3D

 32 34  0  0  0  0  0  0  0  0999 V2000
    6.9275    0.2140   24.7400 H   0  0  0  0  0  0  0  0  0  0  0  0
    6.8153    1.0777   24.0854 C   0  0  0  0  0  0  0  0  0  0  0  0
    7.1195    0.9279   22.7948 C   0  0  0  0  0  0  0  0  0  0  0  0
    7.1009    1.7445   22.0748 H   0  0  0  0  0  0  0  0  0  0  0  0
    7.5292   -0.3030   22.2402 N   0  0  0  0  0  0  0  0  0  0  0  0
    7.3876   -0.7123   20.9197 C   0  0  0  0  0  0  0  0  0  0  0  0
    6.6472    0.0183   19.8992 C   0  0  0  0  0  0  0  0  0  0  0  0
    7.1626    0.0517   18.5947 C   0  0  0  0  0  0  0  0  0  0  0  0
    8.1098   -0.4355   18.3657 H   0  0  0  0  0  0  0  0  0  0  0  0
    6.5642    0.6790   17.5780 N   0  0  0  0  0  0  0  0  0  0  0  0
    5.4007    1.2974   17.8349 C   0  0  0  0  0  0  0  0  0  0  0  0
    4.9285    1.7914   16.9888 H   0  0  0  0  0  0  0  0  0  0  0  0
    4.7976    1.3137   19.0978 C   0  0  0  0  0  0  0  0  0  0  0  0
    3.8673    1.8441   19.2458 H   0  0  0  0  0  0  0  0  0  0  0  0
    5.4283    0.6600   20.1520 C   0  0  0  0  0  0  0  0  0  0  0  0
    4.9954    0.6301   21.1534 H   0  0  0  0  0  0  0  0  0  0  0  0
    7.9800   -1.8421   20.6923 N   0  0  0  0  0  0  0  0  0  0  0  0
    8.4885   -2.1996   21.9059 N   0  0  0  0  0  0  0  0  0  0  0  0
    9.0469   -3.0207   22.0605 H   0  0  0  0  0  0  0  0  0  0  0  0
    8.2797   -1.3022   22.8981 C   0  0  0  0  0  0  0  0  0  0  0  0
    8.6780   -1.3841   24.0435 O   0  0  0  0  0  0  0  0  0  0  0  0
    6.3945    2.3504   24.7110 C   0  0  0  0  0  0  0  0  0  0  0  0
    5.8689    3.4332   23.9779 C   0  0  0  0  0  0  0  0  0  0  0  0
    5.7358    3.3448   22.9034 H   0  0  0  0  0  0  0  0  0  0  0  0
    5.4923    4.6194   24.6187 C   0  0  0  0  0  0  0  0  0  0  0  0
    5.0847    5.4387   24.0309 H   0  0  0  0  0  0  0  0  0  0  0  0
    5.6390    4.7529   26.0036 C   0  0  0  0  0  0  0  0  0  0  0  0
    5.3458    5.6780   26.4978 H   0  0  0  0  0  0  0  0  0  0  0  0
    6.1607    3.6879   26.7488 C   0  0  0  0  0  0  0  0  0  0  0  0
    6.2745    3.7825   27.8269 H   0  0  0  0  0  0  0  0  0  0  0  0
    6.5281    2.5008   26.1066 C   0  0  0  0  0  0  0  0  0  0  0  0
    6.9382    1.6796   26.6900 H   0  0  0  0  0  0  0  0  0  0  0  0
  1  2  1  0
  2  3  2  3
  3  4  1  0
  3  5  1  0
  5  6  1  0
  6  7  1  0
  7  8  2  0
  8  9  1  0
  8 10  1  0
 10 11  2  0
 11 12  1  0
 11 13  1  0
 13 14  1  0
 13 15  2  0
 15 16  1  0
  6 17  2  0
 17 18  1  0
 18 19  1  0
 18 20  1  0
 20 21  2  0
  2 22  1  0
 22 23  2  0
 23 24  1  0
 23 25  1  0
 25 26  1  0
 25 27  2  0
 27 28  1  0
 27 29  1  0
 29 30  1  0
 29 31  2  0
 31 32  1  0
 20  5  1  0
 31 22  1  0
 15  7  1  0
M  END
>  <cnnaffinity>  (1) 
-4.92545

>  <filename>  (1) 
O=c1[nH]nc(-c2cccnc2)n1C=Cc1ccccc1

$$$$
