
     RDKit          3D

 34 36  0  0  0  0  0  0  0  0999 V2000
    4.9307    1.7257   17.0079 H   0  0  0  0  0  0  0  0  0  0  0  0
    5.4218    1.2741   17.8675 C   0  0  0  0  0  0  0  0  0  0  0  0
    6.5853    0.6505   17.6159 N   0  0  0  0  0  0  0  0  0  0  0  0
    7.2116    0.0948   18.6551 C   0  0  0  0  0  0  0  0  0  0  0  0
    8.1720   -0.3647   18.4277 H   0  0  0  0  0  0  0  0  0  0  0  0
    6.7311    0.0958   19.9862 C   0  0  0  0  0  0  0  0  0  0  0  0
    7.4736   -0.5915   21.0592 C   0  0  0  0  0  0  0  0  0  0  0  0
    8.4777   -1.4903   20.8968 C   0  0  0  0  0  0  0  0  0  0  0  0
    8.9116   -1.8328   19.9695 H   0  0  0  0  0  0  0  0  0  0  0  0
    9.0127   -1.9182   22.0983 N   0  0  0  0  0  0  0  0  0  0  0  0
    9.2632   -2.9037   22.2013 H   0  0  0  0  0  0  0  0  0  0  0  0
    8.1122   -1.4324   23.0816 N   0  0  0  0  0  0  0  0  0  0  0  0
    8.5169   -1.3484   24.4705 C   0  0  0  0  0  0  0  0  0  0  0  0
    7.6414   -1.5809   25.0833 H   0  0  0  0  0  0  0  0  0  0  0  0
    9.2943   -2.1031   24.6689 H   0  0  0  0  0  0  0  0  0  0  0  0
    8.9704   -0.0446   24.8750 N   0  0  0  0  0  0  0  0  0  0  0  0
    8.2379    0.6276   24.6611 H   0  0  0  0  0  0  0  0  0  0  0  0
   10.2071    0.4274   24.4233 C   0  0  0  0  0  0  0  0  0  0  0  0
   10.5280    1.7518   24.7502 C   0  0  0  0  0  0  0  0  0  0  0  0
    9.8102    2.2974   25.3542 H   0  0  0  0  0  0  0  0  0  0  0  0
   11.7321    2.3156   24.3316 C   0  0  0  0  0  0  0  0  0  0  0  0
   11.9596    3.3447   24.5915 H   0  0  0  0  0  0  0  0  0  0  0  0
   12.6390    1.5596   23.5812 C   0  0  0  0  0  0  0  0  0  0  0  0
   13.5741    1.9978   23.2466 H   0  0  0  0  0  0  0  0  0  0  0  0
   12.3398    0.2289   23.2801 C   0  0  0  0  0  0  0  0  0  0  0  0
   13.0472   -0.3745   22.7149 H   0  0  0  0  0  0  0  0  0  0  0  0
   11.1353   -0.3442   23.7048 C   0  0  0  0  0  0  0  0  0  0  0  0
   10.9023   -1.3693   23.4625 H   0  0  0  0  0  0  0  0  0  0  0  0
    7.3057   -0.4366   22.5257 C   0  0  0  0  0  0  0  0  0  0  0  0
    6.6542    0.3524   23.2055 O   0  0  0  0  0  0  0  0  0  0  0  0
    5.5246    0.7779   20.2275 C   0  0  0  0  0  0  0  0  0  0  0  0
    5.1503    0.8585   21.2486 H   0  0  0  0  0  0  0  0  0  0  0  0
    4.8612    1.3592   19.1443 C   0  0  0  0  0  0  0  0  0  0  0  0
    3.9305    1.8974   19.2739 H   0  0  0  0  0  0  0  0  0  0  0  0
  1  2  1  0
  2  3  2  0
  3  4  1  0
  4  5  1  0
  4  6  2  0
  6  7  1  0
  7  8  2  0
  8  9  1  0
  8 10  1  0
 10 11  1  0
 10 12  1  0
 12 13  1  0
 13 14  1  0
 13 15  1  0
 13 16  1  0
 16 17  1  0
 16 18  1  0
 18 19  2  0
 19 20  1  0
 19 21  1  0
 21 22  1  0
 21 23  2  0
 23 24  1  0
 23 25  1  0
 25 26  1  0
 25 27  2  0
 27 28  1  0
 12 29  1  0
 29 30  2  0
  6 31  1  0
 31 32  1  0
 31 33  2  0
 33 34  1  0
 33  2  1  0
 29  7  1  0
 27 18  1  0
M  END
>  <cnnaffinity>  (1) 
-4.82139

>  <filename>  (1) 
O=c1c(-c2cccnc2)c[nH]n1CNc1ccccc1

$$$$
