
     RDKit          3D

 32 34  0  0  0  0  0  0  0  0999 V2000
    6.8096   -0.4424   22.0596 H   0  0  0  0  0  0  0  0  0  0  0  0
    7.2510   -0.6563   21.0824 C   0  0  0  0  0  0  0  0  0  0  0  0
    8.2848   -1.5027   20.9488 C   0  0  0  0  0  0  0  0  0  0  0  0
    8.7778   -1.6097   19.9830 H   0  0  0  0  0  0  0  0  0  0  0  0
    8.9161   -2.3111   22.0564 C   0  0  0  0  0  0  0  0  0  0  0  0
    8.1807   -2.6317   22.8064 H   0  0  0  0  0  0  0  0  0  0  0  0
    9.3846   -3.2029   21.6375 H   0  0  0  0  0  0  0  0  0  0  0  0
    9.9475   -1.5413   22.7501 N   0  0  0  0  0  0  0  0  0  0  0  0
    9.5831   -0.5648   23.6793 C   0  0  0  0  0  0  0  0  0  0  0  0
    8.5219   -0.5464   24.2573 O   0  0  0  0  0  0  0  0  0  0  0  0
   10.7020    0.4055   23.7580 C   0  0  0  0  0  0  0  0  0  0  0  0
   10.8119    1.5895   24.4850 C   0  0  0  0  0  0  0  0  0  0  0  0
   10.0533    1.8664   25.2121 H   0  0  0  0  0  0  0  0  0  0  0  0
   11.9251    2.3956   24.2441 C   0  0  0  0  0  0  0  0  0  0  0  0
   11.9749    3.3639   24.7356 H   0  0  0  0  0  0  0  0  0  0  0  0
   12.9337    1.9912   23.3393 C   0  0  0  0  0  0  0  0  0  0  0  0
   13.7866    2.6468   23.1737 H   0  0  0  0  0  0  0  0  0  0  0  0
   12.8254    0.7795   22.6401 C   0  0  0  0  0  0  0  0  0  0  0  0
   13.6093    0.4609   21.9531 H   0  0  0  0  0  0  0  0  0  0  0  0
   11.6769    0.0101   22.8461 C   0  0  0  0  0  0  0  0  0  0  0  0
   11.1839   -1.2273   22.1728 C   0  0  0  0  0  0  0  0  0  0  0  0
   11.7098   -1.8593   21.2882 O   0  0  0  0  0  0  0  0  0  0  0  0
    6.5930    0.0462   19.9554 C   0  0  0  0  0  0  0  0  0  0  0  0
    7.1270    0.0549   18.6499 C   0  0  0  0  0  0  0  0  0  0  0  0
    8.0684   -0.4506   18.4441 H   0  0  0  0  0  0  0  0  0  0  0  0
    6.5703    0.6601   17.5966 N   0  0  0  0  0  0  0  0  0  0  0  0
    5.4119    1.3079   17.8012 C   0  0  0  0  0  0  0  0  0  0  0  0
    4.9687    1.7919   16.9354 H   0  0  0  0  0  0  0  0  0  0  0  0
    4.7756    1.3671   19.0474 C   0  0  0  0  0  0  0  0  0  0  0  0
    3.8338    1.9026   19.1463 H   0  0  0  0  0  0  0  0  0  0  0  0
    5.3796    0.7392   20.1383 C   0  0  0  0  0  0  0  0  0  0  0  0
    4.9182    0.7853   21.1285 H   0  0  0  0  0  0  0  0  0  0  0  0
  1  2  1  0
  2  3  2  3
  3  4  1  0
  3  5  1  0
  5  6  1  0
  5  7  1  0
  5  8  1  0
  8  9  1  0
  9 10  2  0
  9 11  1  0
 11 12  2  0
 12 13  1  0
 12 14  1  0
 14 15  1  0
 14 16  2  0
 16 17  1  0
 16 18  1  0
 18 19  1  0
 18 20  2  0
 20 21  1  0
 21 22  2  0
  2 23  1  0
 23 24  2  0
 24 25  1  0
 24 26  1  0
 26 27  2  0
 27 28  1  0
 27 29  1  0
 29 30  1  0
 29 31  2  0
 31 32  1  0
 21  8  1  0
 31 23  1  0
 20 11  1  0
M  END
>  <cnnaffinity>  (1) 
-5.19385

>  <filename>  (1) 
O=C1c2ccccc2C(=O)N1CC=Cc1cccnc1

$$$$
