
     RDKit          3D

 33 35  0  0  0  0  0  0  0  0999 V2000
    5.0045    1.8463   16.9120 H   0  0  0  0  0  0  0  0  0  0  0  0
    5.4371    1.3301   17.7695 C   0  0  0  0  0  0  0  0  0  0  0  0
    6.5914    0.6767   17.5579 N   0  0  0  0  0  0  0  0  0  0  0  0
    7.1286    0.0229   18.5926 C   0  0  0  0  0  0  0  0  0  0  0  0
    8.0629   -0.4958   18.3867 H   0  0  0  0  0  0  0  0  0  0  0  0
    6.5714   -0.0254   19.8913 C   0  0  0  0  0  0  0  0  0  0  0  0
    7.2404   -0.7171   21.0196 C   0  0  0  0  0  0  0  0  0  0  0  0
    7.8977   -0.1369   22.0625 C   0  0  0  0  0  0  0  0  0  0  0  0
    7.8721    1.2828   22.5512 C   0  0  0  0  0  0  0  0  0  0  0  0
    7.2385    1.9003   21.9068 H   0  0  0  0  0  0  0  0  0  0  0  0
    8.8766    1.7232   22.4889 H   0  0  0  0  0  0  0  0  0  0  0  0
    7.3892    1.3880   23.9912 C   0  0  0  0  0  0  0  0  0  0  0  0
    8.2875    1.4030   25.0699 C   0  0  0  0  0  0  0  0  0  0  0  0
    9.3592    1.3589   24.8831 H   0  0  0  0  0  0  0  0  0  0  0  0
    7.8305    1.4651   26.3887 C   0  0  0  0  0  0  0  0  0  0  0  0
    8.5229    1.4847   27.2275 H   0  0  0  0  0  0  0  0  0  0  0  0
    6.4555    1.5080   26.6525 C   0  0  0  0  0  0  0  0  0  0  0  0
    5.9275    1.6144   28.2995 Cl  0  0  0  0  0  0  0  0  0  0  0  0
    5.5409    1.4679   25.5860 C   0  0  0  0  0  0  0  0  0  0  0  0
    3.8258    1.5101   25.8500 Cl  0  0  0  0  0  0  0  0  0  0  0  0
    6.0169    1.4046   24.2713 C   0  0  0  0  0  0  0  0  0  0  0  0
    5.2918    1.3644   23.4630 H   0  0  0  0  0  0  0  0  0  0  0  0
    8.6531   -1.1753   22.8473 C   0  0  0  0  0  0  0  0  0  0  0  0
    9.7130   -0.9321   23.0223 H   0  0  0  0  0  0  0  0  0  0  0  0
    8.1856   -1.2965   23.8353 H   0  0  0  0  0  0  0  0  0  0  0  0
    8.4691   -2.3513   22.0202 N   0  0  0  0  0  0  0  0  0  0  0  0
    8.6040   -3.2939   22.3478 H   0  0  0  0  0  0  0  0  0  0  0  0
    7.3815   -2.1973   21.1839 C   0  0  0  0  0  0  0  0  0  0  0  0
    6.7244   -3.1244   20.7535 O   0  0  0  0  0  0  0  0  0  0  0  0
    5.3576    0.6517   20.0732 C   0  0  0  0  0  0  0  0  0  0  0  0
    4.8648    0.6189   21.0470 H   0  0  0  0  0  0  0  0  0  0  0  0
    4.7783    1.3369   19.0031 C   0  0  0  0  0  0  0  0  0  0  0  0
    3.8363    1.8669   19.1082 H   0  0  0  0  0  0  0  0  0  0  0  0
  1  2  1  0
  2  3  2  0
  3  4  1  0
  4  5  1  0
  4  6  2  0
  6  7  1  0
  7  8  2  0
  8  9  1  0
  9 10  1  0
  9 11  1  0
  9 12  1  0
 12 13  2  0
 13 14  1  0
 13 15  1  0
 15 16  1  0
 15 17  2  0
 17 18  1  0
 17 19  1  0
 19 20  1  0
 19 21  2  0
 21 22  1  0
  8 23  1  0
 23 24  1  0
 23 25  1  0
 23 26  1  0
 26 27  1  0
 26 28  1  0
 28 29  2  0
  6 30  1  0
 30 31  1  0
 30 32  2  0
 32 33  1  0
 32  2  1  0
 28  7  1  0
 21 12  1  0
M  END
>  <cnnaffinity>  (1) 
-5.28917

>  <filename>  (1) 
O=C1NCC(Cc2ccc(Cl)c(Cl)c2)=C1c1cccnc1

$$$$
