
     RDKit          3D

 31 33  0  0  0  0  0  0  0  0999 V2000
    4.8460    1.8675   16.9730 H   0  0  0  0  0  0  0  0  0  0  0  0
    5.3774    1.3247   17.7517 C   0  0  0  0  0  0  0  0  0  0  0  0
    6.5243    0.7315   17.3833 N   0  0  0  0  0  0  0  0  0  0  0  0
    7.2202    0.0808   18.3237 C   0  0  0  0  0  0  0  0  0  0  0  0
    8.1565   -0.3818   18.0213 H   0  0  0  0  0  0  0  0  0  0  0  0
    6.7931   -0.0332   19.6665 C   0  0  0  0  0  0  0  0  0  0  0  0
    7.5403   -0.7635   20.6639 N   0  0  0  0  0  0  0  0  0  0  0  0
    8.8049   -0.4335   21.1394 C   0  0  0  0  0  0  0  0  0  0  0  0
    9.5929    0.2837   20.5870 O   0  0  0  0  0  0  0  0  0  0  0  0
    8.9680   -1.1787   22.4709 C   0  0  0  0  0  0  0  0  0  0  0  0
    9.9282   -1.2133   23.1998 O   0  0  0  0  0  0  0  0  0  0  0  0
    7.7482   -1.8177   22.6535 N   0  0  0  0  0  0  0  0  0  0  0  0
    7.2587   -2.3271   23.8665 N   0  0  0  0  0  0  0  0  0  0  0  0
    6.7770   -1.6271   24.4302 H   0  0  0  0  0  0  0  0  0  0  0  0
    8.0685   -3.1174   24.7069 C   0  0  0  0  0  0  0  0  0  0  0  0
    7.8085   -2.9837   26.0776 C   0  0  0  0  0  0  0  0  0  0  0  0
    6.9791   -2.3559   26.3960 H   0  0  0  0  0  0  0  0  0  0  0  0
    8.5848   -3.6507   27.0178 C   0  0  0  0  0  0  0  0  0  0  0  0
    8.3682   -3.5629   28.0726 H   0  0  0  0  0  0  0  0  0  0  0  0
    9.6395   -4.4525   26.5736 C   0  0  0  0  0  0  0  0  0  0  0  0
   10.6765   -5.2092   27.7400 Cl  0  0  0  0  0  0  0  0  0  0  0  0
    9.8640   -4.6588   25.2107 C   0  0  0  0  0  0  0  0  0  0  0  0
   10.6901   -5.3034   24.9197 H   0  0  0  0  0  0  0  0  0  0  0  0
    9.0451   -4.0212   24.2690 C   0  0  0  0  0  0  0  0  0  0  0  0
    9.1625   -4.1923   23.2028 H   0  0  0  0  0  0  0  0  0  0  0  0
    6.9518   -1.7126   21.4992 C   0  0  0  0  0  0  0  0  0  0  0  0
    5.9504   -2.3216   21.2535 O   0  0  0  0  0  0  0  0  0  0  0  0
    5.5839    0.5681   20.0298 C   0  0  0  0  0  0  0  0  0  0  0  0
    5.2161    0.4704   21.0521 H   0  0  0  0  0  0  0  0  0  0  0  0
    4.8693    1.2698   19.0532 C   0  0  0  0  0  0  0  0  0  0  0  0
    3.9373    1.7713   19.2879 H   0  0  0  0  0  0  0  0  0  0  0  0
  1  2  1  0
  2  3  2  0
  3  4  1  0
  4  5  1  0
  4  6  2  0
  6  7  1  0
  7  8  1  0
  8  9  2  0
  8 10  1  0
 10 11  2  0
 10 12  1  0
 12 13  1  0
 13 14  1  0
 13 15  1  0
 15 16  2  0
 16 17  1  0
 16 18  1  0
 18 19  1  0
 18 20  2  0
 20 21  1  0
 20 22  1  0
 22 23  1  0
 22 24  2  0
 24 25  1  0
 12 26  1  0
 26 27  2  0
  6 28  1  0
 28 29  1  0
 28 30  2  0
 30 31  1  0
 30  2  1  0
 26  7  1  0
 24 15  1  0
M  END
>  <cnnaffinity>  (1) 
-4.89686

>  <filename>  (1) 
O=C1C(=O)N(c2cccnc2)C(=O)N1Nc1ccc(Cl)cc1

$$$$
