
     RDKit          3D

 27 29  0  0  0  0  0  0  0  0999 V2000
    4.9359    1.8110   16.9540 H   0  0  0  0  0  0  0  0  0  0  0  0
    5.3843    1.3222   17.8156 C   0  0  0  0  0  0  0  0  0  0  0  0
    6.5511    0.6982   17.5931 N   0  0  0  0  0  0  0  0  0  0  0  0
    7.1416    0.1049   18.6339 C   0  0  0  0  0  0  0  0  0  0  0  0
    8.0699   -0.4401   18.4545 H   0  0  0  0  0  0  0  0  0  0  0  0
    6.6207    0.1355   19.9313 C   0  0  0  0  0  0  0  0  0  0  0  0
    7.3753   -0.5709   20.9864 C   0  0  0  0  0  0  0  0  0  0  0  0
    8.0200   -1.6314   20.5954 N   0  0  0  0  0  0  0  0  0  0  0  0
    8.5320   -2.4418   21.5585 C   0  0  0  0  0  0  0  0  0  0  0  0
    8.8130   -3.6047   21.4017 O   0  0  0  0  0  0  0  0  0  0  0  0
    8.7488   -1.8916   22.8260 N   0  0  0  0  0  0  0  0  0  0  0  0
    9.0878   -2.6116   23.4327 H   0  0  0  0  0  0  0  0  0  0  0  0
    8.0430   -0.8215   23.2844 C   0  0  0  0  0  0  0  0  0  0  0  0
    8.1012   -0.5080   24.7090 C   0  0  0  0  0  0  0  0  0  0  0  0
    6.9817    0.6465   25.3613 S   0  0  0  0  0  0  0  0  0  0  0  0
    7.6971    0.5265   26.9174 C   0  0  0  0  0  0  0  0  0  0  0  0
    7.1131    1.4869   28.2140 Cl  0  0  0  0  0  0  0  0  0  0  0  0
    8.7320   -0.3599   26.9530 C   0  0  0  0  0  0  0  0  0  0  0  0
    9.3170   -0.5582   27.8435 H   0  0  0  0  0  0  0  0  0  0  0  0
    8.9603   -0.9622   25.6842 C   0  0  0  0  0  0  0  0  0  0  0  0
    9.7450   -1.6918   25.4950 H   0  0  0  0  0  0  0  0  0  0  0  0
    7.3431   -0.1168   22.3340 C   0  0  0  0  0  0  0  0  0  0  0  0
    6.7810    0.7656   22.5771 H   0  0  0  0  0  0  0  0  0  0  0  0
    5.3816    0.7502   20.1441 C   0  0  0  0  0  0  0  0  0  0  0  0
    4.9121    0.7123   21.1290 H   0  0  0  0  0  0  0  0  0  0  0  0
    4.7522    1.3608   19.0632 C   0  0  0  0  0  0  0  0  0  0  0  0
    3.8036    1.8731   19.1761 H   0  0  0  0  0  0  0  0  0  0  0  0
  1  2  1  0
  2  3  2  0
  3  4  1  0
  4  5  1  0
  4  6  2  0
  6  7  1  0
  7  8  2  0
  8  9  1  0
  9 10  2  0
  9 11  1  0
 11 12  1  0
 11 13  1  0
 13 14  1  0
 14 15  1  0
 15 16  1  0
 16 17  1  0
 16 18  2  0
 18 19  1  0
 18 20  1  0
 20 21  1  0
 13 22  2  0
 22 23  1  0
  6 24  1  0
 24 25  1  0
 24 26  2  0
 26 27  1  0
 26  2  1  0
 22  7  1  0
 20 14  2  0
M  END
>  <cnnaffinity>  (1) 
-5.23235

>  <filename>  (1) 
O=c1nc(-c2cccnc2)cc(-c2ccc(Cl)s2)[nH]1

$$$$
