
     RDKit          3D

 24 25  0  0  0  0  0  0  0  0999 V2000
    8.8417   -1.9485   22.6759 H   0  0  0  0  0  0  0  0  0  0  0  0
    8.1132   -1.2625   23.1270 C   0  0  0  0  0  0  0  0  0  0  0  0
    8.0374   -1.1749   24.4756 C   0  0  0  0  0  0  0  0  0  0  0  0
    9.1351   -2.0364   25.5431 S   0  0  0  0  0  0  0  0  0  0  0  0
    8.5313   -1.1138   26.9486 C   0  0  0  0  0  0  0  0  0  0  0  0
    9.0765   -1.0333   28.0102 O   0  0  0  0  0  0  0  0  0  0  0  0
    7.3530   -0.5012   26.6117 N   0  0  0  0  0  0  0  0  0  0  0  0
    6.9304    0.1124   27.2834 H   0  0  0  0  0  0  0  0  0  0  0  0
    7.0991   -0.3150   25.2709 C   0  0  0  0  0  0  0  0  0  0  0  0
    6.2505    0.4470   24.8747 O   0  0  0  0  0  0  0  0  0  0  0  0
    7.2984   -0.4904   22.2249 C   0  0  0  0  0  0  0  0  0  0  0  0
    6.6252    0.2477   22.6711 H   0  0  0  0  0  0  0  0  0  0  0  0
    7.4044   -0.6719   20.8929 C   0  0  0  0  0  0  0  0  0  0  0  0
    8.1407   -1.3910   20.5338 H   0  0  0  0  0  0  0  0  0  0  0  0
    6.6465    0.0185   19.8488 C   0  0  0  0  0  0  0  0  0  0  0  0
    7.1437    0.0449   18.5284 C   0  0  0  0  0  0  0  0  0  0  0  0
    8.0896   -0.4578   18.3023 H   0  0  0  0  0  0  0  0  0  0  0  0
    6.5482    0.6731   17.5139 N   0  0  0  0  0  0  0  0  0  0  0  0
    5.3927    1.3123   17.7861 C   0  0  0  0  0  0  0  0  0  0  0  0
    4.9314    1.8420   16.9581 H   0  0  0  0  0  0  0  0  0  0  0  0
    4.7930    1.3284   19.0486 C   0  0  0  0  0  0  0  0  0  0  0  0
    3.8619    1.8642   19.2068 H   0  0  0  0  0  0  0  0  0  0  0  0
    5.4308    0.6749   20.0992 C   0  0  0  0  0  0  0  0  0  0  0  0
    5.0053    0.6619   21.1047 H   0  0  0  0  0  0  0  0  0  0  0  0
  1  2  1  0
  2  3  2  3
  3  4  1  0
  4  5  1  0
  5  6  2  0
  5  7  1  0
  7  8  1  0
  7  9  1  0
  9 10  2  0
  2 11  1  0
 11 12  1  0
 11 13  2  3
 13 14  1  0
 13 15  1  0
 15 16  2  0
 16 17  1  0
 16 18  1  0
 18 19  2  0
 19 20  1  0
 19 21  1  0
 21 22  1  0
 21 23  2  0
 23 24  1  0
  9  3  1  0
 23 15  1  0
M  END
>  <cnnaffinity>  (1) 
-4.36385

>  <filename>  (1) 
O=C1NC(=O)C(=CC=Cc2cccnc2)S1

$$$$
