
     RDKit          3D

 36 38  0  0  0  0  0  0  0  0999 V2000
    4.9554    1.7692   16.8944 H   0  0  0  0  0  0  0  0  0  0  0  0
    5.4118    1.3061   17.7637 C   0  0  0  0  0  0  0  0  0  0  0  0
    6.5870    0.6930   17.5521 N   0  0  0  0  0  0  0  0  0  0  0  0
    7.1676    0.1055   18.6008 C   0  0  0  0  0  0  0  0  0  0  0  0
    8.1145   -0.3978   18.3976 H   0  0  0  0  0  0  0  0  0  0  0  0
    6.6374    0.1275   19.9070 C   0  0  0  0  0  0  0  0  0  0  0  0
    7.3573   -0.5171   21.0096 C   0  0  0  0  0  0  0  0  0  0  0  0
    7.5507    0.0130   22.2595 C   0  0  0  0  0  0  0  0  0  0  0  0
    7.1480    0.9888   22.5019 H   0  0  0  0  0  0  0  0  0  0  0  0
    8.2770   -0.7223   23.2250 C   0  0  0  0  0  0  0  0  0  0  0  0
    8.4639   -0.2837   24.2071 H   0  0  0  0  0  0  0  0  0  0  0  0
    8.7540   -2.0058   22.9929 C   0  0  0  0  0  0  0  0  0  0  0  0
    9.5029   -2.5805   24.0402 N   0  0  0  0  0  0  0  0  0  0  0  0
    9.3257   -2.0779   24.9004 H   0  0  0  0  0  0  0  0  0  0  0  0
    9.4149   -4.0044   24.2912 C   0  0  0  0  0  0  0  0  0  0  0  0
    9.8867   -4.5309   23.4581 H   0  0  0  0  0  0  0  0  0  0  0  0
    7.9987   -4.5600   24.4648 C   0  0  0  0  0  0  0  0  0  0  0  0
    7.4275   -3.8982   25.1273 H   0  0  0  0  0  0  0  0  0  0  0  0
    7.4651   -4.6109   23.5133 H   0  0  0  0  0  0  0  0  0  0  0  0
    8.2325   -5.9225   25.1254 C   0  0  0  0  0  0  0  0  0  0  0  0
    7.3757   -6.2429   25.7236 H   0  0  0  0  0  0  0  0  0  0  0  0
    8.3742   -6.6651   24.3382 H   0  0  0  0  0  0  0  0  0  0  0  0
    9.5346   -5.7805   25.9577 C   0  0  0  0  0  0  0  0  0  0  0  0
   10.2479   -6.5707   25.6970 H   0  0  0  0  0  0  0  0  0  0  0  0
    9.3404   -5.8665   27.0312 H   0  0  0  0  0  0  0  0  0  0  0  0
   10.0981   -4.3884   25.5977 C   0  0  0  0  0  0  0  0  0  0  0  0
    9.8221   -3.6508   26.3640 H   0  0  0  0  0  0  0  0  0  0  0  0
   11.1855   -4.3628   25.5016 H   0  0  0  0  0  0  0  0  0  0  0  0
    8.3953   -2.6530   21.6806 C   0  0  0  0  0  0  0  0  0  0  0  0
    8.4588   -3.8214   21.3127 O   0  0  0  0  0  0  0  0  0  0  0  0
    7.8890   -1.7597   20.7407 N   0  0  0  0  0  0  0  0  0  0  0  0
    7.6293   -2.2849   19.9221 H   0  0  0  0  0  0  0  0  0  0  0  0
    5.4084    0.7772   20.1073 C   0  0  0  0  0  0  0  0  0  0  0  0
    4.9485    0.7935   21.0960 H   0  0  0  0  0  0  0  0  0  0  0  0
    4.7822    1.3642   19.0102 C   0  0  0  0  0  0  0  0  0  0  0  0
    3.8283    1.8656   19.1052 H   0  0  0  0  0  0  0  0  0  0  0  0
  1  2  1  0
  2  3  2  0
  3  4  1  0
  4  5  1  0
  4  6  2  0
  6  7  1  0
  7  8  2  0
  8  9  1  0
  8 10  1  0
 10 11  1  0
 10 12  2  0
 12 13  1  0
 13 14  1  0
 13 15  1  0
 15 16  1  0
 15 17  1  0
 17 18  1  0
 17 19  1  0
 17 20  1  0
 20 21  1  0
 20 22  1  0
 20 23  1  0
 23 24  1  0
 23 25  1  0
 23 26  1  0
 26 27  1  0
 26 28  1  0
 12 29  1  0
 29 30  2  0
 29 31  1  0
 31 32  1  0
  6 33  1  0
 33 34  1  0
 33 35  2  0
 35 36  1  0
 35  2  1  0
 31  7  1  0
 26 15  1  0
M  END
>  <cnnaffinity>  (1) 
-5.30025

>  <filename>  (1) 
O=c1[nH]c(-c2cccnc2)ccc1NC1CCCC1

$$$$
