
     RDKit          3D

 33 35  0  0  0  0  0  0  0  0999 V2000
    7.1808    1.8649   21.9425 H   0  0  0  0  0  0  0  0  0  0  0  0
    7.2862    1.0825   22.7001 C   0  0  0  0  0  0  0  0  0  0  0  0
    7.6051   -0.2413   22.1990 C   0  0  0  0  0  0  0  0  0  0  0  0
    7.3485   -0.6975   20.9439 C   0  0  0  0  0  0  0  0  0  0  0  0
    6.6457    0.0099   19.8869 C   0  0  0  0  0  0  0  0  0  0  0  0
    7.1539    0.0584   18.5739 C   0  0  0  0  0  0  0  0  0  0  0  0
    8.1107   -0.4151   18.3642 H   0  0  0  0  0  0  0  0  0  0  0  0
    6.5576    0.6822   17.5560 N   0  0  0  0  0  0  0  0  0  0  0  0
    5.3961    1.2999   17.8228 C   0  0  0  0  0  0  0  0  0  0  0  0
    4.9176    1.7939   16.9839 H   0  0  0  0  0  0  0  0  0  0  0  0
    4.7985    1.3145   19.0887 C   0  0  0  0  0  0  0  0  0  0  0  0
    3.8696    1.8448   19.2477 H   0  0  0  0  0  0  0  0  0  0  0  0
    5.4288    0.6626   20.1437 C   0  0  0  0  0  0  0  0  0  0  0  0
    4.9975    0.6343   21.1492 H   0  0  0  0  0  0  0  0  0  0  0  0
    7.9101   -2.0736   20.8202 C   0  0  0  0  0  0  0  0  0  0  0  0
    8.7433   -2.0727   20.1142 H   0  0  0  0  0  0  0  0  0  0  0  0
    7.1622   -2.8273   20.5383 H   0  0  0  0  0  0  0  0  0  0  0  0
    8.4281   -2.3948   22.0917 O   0  0  0  0  0  0  0  0  0  0  0  0
    8.3070   -1.3378   22.9411 C   0  0  0  0  0  0  0  0  0  0  0  0
    8.7347   -1.4063   24.0605 O   0  0  0  0  0  0  0  0  0  0  0  0
    7.1527    1.3708   24.0092 C   0  0  0  0  0  0  0  0  0  0  0  0
    7.3016    0.5654   24.7286 H   0  0  0  0  0  0  0  0  0  0  0  0
    6.8267    2.7022   24.5354 C   0  0  0  0  0  0  0  0  0  0  0  0
    6.2247    3.7070   23.7507 C   0  0  0  0  0  0  0  0  0  0  0  0
    5.9542    3.4953   22.7176 H   0  0  0  0  0  0  0  0  0  0  0  0
    5.9485    4.9645   24.2952 C   0  0  0  0  0  0  0  0  0  0  0  0
    5.4797    5.7262   23.6743 H   0  0  0  0  0  0  0  0  0  0  0  0
    6.2748    5.2422   25.6281 C   0  0  0  0  0  0  0  0  0  0  0  0
    6.0601    6.2219   26.0489 H   0  0  0  0  0  0  0  0  0  0  0  0
    6.8746    4.2531   26.4193 C   0  0  0  0  0  0  0  0  0  0  0  0
    7.1264    4.4567   27.4580 H   0  0  0  0  0  0  0  0  0  0  0  0
    7.1402    2.9949   25.8766 C   0  0  0  0  0  0  0  0  0  0  0  0
    7.6112    2.2251   26.4852 H   0  0  0  0  0  0  0  0  0  0  0  0
  1  2  1  0
  2  3  1  0
  3  4  2  0
  4  5  1  0
  5  6  2  0
  6  7  1  0
  6  8  1  0
  8  9  2  0
  9 10  1  0
  9 11  1  0
 11 12  1  0
 11 13  2  0
 13 14  1  0
  4 15  1  0
 15 16  1  0
 15 17  1  0
 15 18  1  0
 18 19  1  0
 19 20  2  0
  2 21  2  3
 21 22  1  0
 21 23  1  0
 23 24  2  0
 24 25  1  0
 24 26  1  0
 26 27  1  0
 26 28  2  0
 28 29  1  0
 28 30  1  0
 30 31  1  0
 30 32  2  0
 32 33  1  0
 19  3  1  0
 32 23  1  0
 13  5  1  0
M  END
>  <cnnaffinity>  (1) 
-4.78813

>  <filename>  (1) 
O=C1OCC(c2cccnc2)=C1C=Cc1ccccc1

$$$$
