
     RDKit          3D

 43 46  0  0  0  0  0  0  0  0999 V2000
    8.4516    3.1077   30.7179 H   0  0  0  0  0  0  0  0  0  0  0  0
    7.8421    2.2696   30.3733 C   0  0  0  0  0  0  0  0  0  0  0  0
    8.0668    1.8809   29.1181 N   0  0  0  0  0  0  0  0  0  0  0  0
    7.3963    0.8176   28.6492 C   0  0  0  0  0  0  0  0  0  0  0  0
    7.7322    0.3638   27.3956 N   0  0  0  0  0  0  0  0  0  0  0  0
    7.3278   -0.9673   26.9099 C   0  0  0  0  0  0  0  0  0  0  0  0
    6.2669   -0.9739   26.6254 H   0  0  0  0  0  0  0  0  0  0  0  0
    7.4578   -1.7205   27.6951 H   0  0  0  0  0  0  0  0  0  0  0  0
    8.1563   -1.4324   25.6977 C   0  0  0  0  0  0  0  0  0  0  0  0
    9.1850   -1.6115   26.0342 H   0  0  0  0  0  0  0  0  0  0  0  0
    7.7372   -2.3842   25.3561 H   0  0  0  0  0  0  0  0  0  0  0  0
    8.1417   -0.4380   24.6090 N   0  0  0  0  0  0  0  0  0  0  0  0
    7.9904   -0.7705   23.3048 C   0  0  0  0  0  0  0  0  0  0  0  0
    7.3599   -0.0135   22.3489 C   0  0  0  0  0  0  0  0  0  0  0  0
    6.9350    0.9379   22.6235 H   0  0  0  0  0  0  0  0  0  0  0  0
    7.2629   -0.5577   21.0492 C   0  0  0  0  0  0  0  0  0  0  0  0
    6.5557    0.1807   19.9696 C   0  0  0  0  0  0  0  0  0  0  0  0
    7.1203    0.1514   18.6850 C   0  0  0  0  0  0  0  0  0  0  0  0
    8.0612   -0.3721   18.5003 H   0  0  0  0  0  0  0  0  0  0  0  0
    6.5741    0.7462   17.6219 N   0  0  0  0  0  0  0  0  0  0  0  0
    5.3966    1.3616   17.7954 C   0  0  0  0  0  0  0  0  0  0  0  0
    4.9577    1.8039   16.9056 H   0  0  0  0  0  0  0  0  0  0  0  0
    4.7357    1.4333   19.0236 C   0  0  0  0  0  0  0  0  0  0  0  0
    3.7778    1.9377   19.0790 H   0  0  0  0  0  0  0  0  0  0  0  0
    5.3340    0.8537   20.1411 C   0  0  0  0  0  0  0  0  0  0  0  0
    4.8490    0.9207   21.1181 H   0  0  0  0  0  0  0  0  0  0  0  0
    7.7628   -1.7180   20.6964 N   0  0  0  0  0  0  0  0  0  0  0  0
    8.3182   -2.5042   21.6615 C   0  0  0  0  0  0  0  0  0  0  0  0
    8.6677   -3.6563   21.5174 O   0  0  0  0  0  0  0  0  0  0  0  0
    8.4993   -1.9634   22.9265 N   0  0  0  0  0  0  0  0  0  0  0  0
    8.9388   -2.5970   23.5602 H   0  0  0  0  0  0  0  0  0  0  0  0
    8.0792    0.9776   25.0330 C   0  0  0  0  0  0  0  0  0  0  0  0
    7.0444    1.3499   25.0061 H   0  0  0  0  0  0  0  0  0  0  0  0
    8.6788    1.5954   24.3509 H   0  0  0  0  0  0  0  0  0  0  0  0
    8.5829    1.1397   26.4776 C   0  0  0  0  0  0  0  0  0  0  0  0
    8.5801    2.1897   26.7673 H   0  0  0  0  0  0  0  0  0  0  0  0
    9.6227    0.7896   26.5420 H   0  0  0  0  0  0  0  0  0  0  0  0
    6.3738    0.1928   29.4038 C   0  0  0  0  0  0  0  0  0  0  0  0
    5.8167   -0.6135   28.9474 H   0  0  0  0  0  0  0  0  0  0  0  0
    6.1264    0.6338   30.6986 C   0  0  0  0  0  0  0  0  0  0  0  0
    5.3518    0.1616   31.3048 H   0  0  0  0  0  0  0  0  0  0  0  0
    6.8957    1.6870   31.2122 C   0  0  0  0  0  0  0  0  0  0  0  0
    6.7738    2.0592   32.2216 H   0  0  0  0  0  0  0  0  0  0  0  0
  1  2  1  0
  2  3  2  0
  3  4  1  0
  4  5  1  0
  5  6  1  0
  6  7  1  0
  6  8  1  0
  6  9  1  0
  9 10  1  0
  9 11  1  0
  9 12  1  0
 12 13  1  0
 13 14  2  0
 14 15  1  0
 14 16  1  0
 16 17  1  0
 17 18  2  0
 18 19  1  0
 18 20  1  0
 20 21  2  0
 21 22  1  0
 21 23  1  0
 23 24  1  0
 23 25  2  0
 25 26  1  0
 16 27  2  0
 27 28  1  0
 28 29  2  0
 28 30  1  0
 30 31  1  0
 12 32  1  0
 32 33  1  0
 32 34  1  0
 32 35  1  0
 35 36  1  0
 35 37  1  0
  4 38  2  0
 38 39  1  0
 38 40  1  0
 40 41  1  0
 40 42  2  0
 42 43  1  0
 42  2  1  0
 35  5  1  0
 30 13  1  0
 25 17  1  0
M  END
>  <cnnaffinity>  (1) 
-5.30551

>  <filename>  (1) 
O=c1nc(-c2cccnc2)cc(N2CCN(c3ccccn3)CC2)[nH]1

$$$$
