
     RDKit          3D

 33 35  0  0  0  0  0  0  0  0999 V2000
    8.8543   -1.2156   23.9129 O   0  0  0  0  0  0  0  0  0  0  0  0
    8.3797   -1.2348   22.8045 C   0  0  0  0  0  0  0  0  0  0  0  0
    8.4503   -2.2662   21.9171 O   0  0  0  0  0  0  0  0  0  0  0  0
    7.8278   -1.9175   20.7131 N   0  0  0  0  0  0  0  0  0  0  0  0
    7.3802   -0.7232   20.9063 C   0  0  0  0  0  0  0  0  0  0  0  0
    6.6472    0.0194   19.8936 C   0  0  0  0  0  0  0  0  0  0  0  0
    5.4354    0.6606   20.1591 C   0  0  0  0  0  0  0  0  0  0  0  0
    4.7993    1.3106   19.1054 C   0  0  0  0  0  0  0  0  0  0  0  0
    5.4042    1.2918   17.8430 C   0  0  0  0  0  0  0  0  0  0  0  0
    6.5712    0.6807   17.5811 N   0  0  0  0  0  0  0  0  0  0  0  0
    7.1715    0.0569   18.5965 C   0  0  0  0  0  0  0  0  0  0  0  0
    8.1187   -0.4347   18.3807 H   0  0  0  0  0  0  0  0  0  0  0  0
    4.9169    1.7759   17.0024 H   0  0  0  0  0  0  0  0  0  0  0  0
    3.8699    1.8460   19.2631 H   0  0  0  0  0  0  0  0  0  0  0  0
    4.9986    0.6337   21.1608 H   0  0  0  0  0  0  0  0  0  0  0  0
    7.6758   -0.2368   22.1524 N   0  0  0  0  0  0  0  0  0  0  0  0
    7.4686    1.0902   22.7251 C   0  0  0  0  0  0  0  0  0  0  0  0
    6.4358    1.0803   23.8573 C   0  0  0  0  0  0  0  0  0  0  0  0
    6.3111    2.4355   24.5131 C   0  0  0  0  0  0  0  0  0  0  0  0
    7.1277    2.7502   25.6140 C   0  0  0  0  0  0  0  0  0  0  0  0
    7.0831    4.0040   26.2268 C   0  0  0  0  0  0  0  0  0  0  0  0
    6.2171    4.9826   25.7312 C   0  0  0  0  0  0  0  0  0  0  0  0
    5.4096    4.7128   24.6246 C   0  0  0  0  0  0  0  0  0  0  0  0
    5.4684    3.4509   24.0252 C   0  0  0  0  0  0  0  0  0  0  0  0
    4.4480    3.1745   22.6342 Cl  0  0  0  0  0  0  0  0  0  0  0  0
    4.7375    5.4667   24.2238 H   0  0  0  0  0  0  0  0  0  0  0  0
    6.1715    5.9594   26.2021 H   0  0  0  0  0  0  0  0  0  0  0  0
    7.7166    4.2140   27.0846 H   0  0  0  0  0  0  0  0  0  0  0  0
    7.8093    1.9922   25.9941 H   0  0  0  0  0  0  0  0  0  0  0  0
    5.4682    0.7573   23.4643 H   0  0  0  0  0  0  0  0  0  0  0  0
    6.7468    0.3352   24.5964 H   0  0  0  0  0  0  0  0  0  0  0  0
    7.1673    1.7964   21.9445 H   0  0  0  0  0  0  0  0  0  0  0  0
    8.4245    1.4550   23.1126 H   0  0  0  0  0  0  0  0  0  0  0  0
  1  2  2  0
  2  3  1  0
  3  4  1  0
  4  5  2  0
  5  6  1  0
  6  7  2  0
  7  8  1  0
  8  9  2  0
  9 10  1  0
 10 11  2  0
 11 12  1  0
  9 13  1  0
  8 14  1  0
  7 15  1  0
  5 16  1  0
 16 17  1  0
 17 18  1  0
 18 19  1  0
 19 20  2  0
 20 21  1  0
 21 22  2  0
 22 23  1  0
 23 24  2  0
 24 25  1  0
 23 26  1  0
 22 27  1  0
 21 28  1  0
 20 29  1  0
 18 30  1  0
 18 31  1  0
 17 32  1  0
 17 33  1  0
 16  2  1  0
 24 19  1  0
 11  6  1  0
M  END
>  <cnnaffinity>  (1) 
-5.10462

>  <filename>  (1) 
O=c1onc(-c2cccnc2)n1CCc1ccccc1Cl

$$$$
