
     RDKit          3D

 35 38  0  0  0  0  0  0  0  0999 V2000
    4.8613    1.8570   16.9693 H   0  0  0  0  0  0  0  0  0  0  0  0
    5.3560    1.3731   17.8090 C   0  0  0  0  0  0  0  0  0  0  0  0
    6.5308    0.7758   17.5458 N   0  0  0  0  0  0  0  0  0  0  0  0
    7.1314    0.1429   18.5602 C   0  0  0  0  0  0  0  0  0  0  0  0
    8.0663   -0.3684   18.3233 H   0  0  0  0  0  0  0  0  0  0  0  0
    6.6325    0.0652   19.8941 C   0  0  0  0  0  0  0  0  0  0  0  0
    7.3042   -0.8313   20.9082 C   0  0  0  0  0  0  0  0  0  0  0  0
    7.6414   -0.3138   22.2080 C   0  0  0  0  0  0  0  0  0  0  0  0
    7.2996    1.0199   22.6909 C   0  0  0  0  0  0  0  0  0  0  0  0
    7.7403    2.1626   22.0056 C   0  0  0  0  0  0  0  0  0  0  0  0
    8.2963    2.0366   21.0815 H   0  0  0  0  0  0  0  0  0  0  0  0
    7.4786    3.4662   22.4724 C   0  0  0  0  0  0  0  0  0  0  0  0
    7.8444    4.3123   21.8963 H   0  0  0  0  0  0  0  0  0  0  0  0
    6.7635    3.6727   23.6293 C   0  0  0  0  0  0  0  0  0  0  0  0
    6.5515    4.6802   23.9832 H   0  0  0  0  0  0  0  0  0  0  0  0
    6.2858    2.5637   24.3786 C   0  0  0  0  0  0  0  0  0  0  0  0
    5.5289    2.7332   25.5791 C   0  0  0  0  0  0  0  0  0  0  0  0
    5.3216    3.7443   25.9409 H   0  0  0  0  0  0  0  0  0  0  0  0
    5.0780    1.6215   26.2440 C   0  0  0  0  0  0  0  0  0  0  0  0
    4.4999    1.6968   27.1582 H   0  0  0  0  0  0  0  0  0  0  0  0
    5.3877    0.3374   25.7221 C   0  0  0  0  0  0  0  0  0  0  0  0
    5.0243   -0.5489   26.2431 H   0  0  0  0  0  0  0  0  0  0  0  0
    6.1032    0.1319   24.6374 N   0  0  0  0  0  0  0  0  0  0  0  0
    6.5583    1.2204   23.9306 C   0  0  0  0  0  0  0  0  0  0  0  0
    8.4823   -1.2850   23.1196 C   0  0  0  0  0  0  0  0  0  0  0  0
    9.2660   -0.6703   23.6017 H   0  0  0  0  0  0  0  0  0  0  0  0
    7.8153   -1.6720   23.9207 H   0  0  0  0  0  0  0  0  0  0  0  0
    9.1304   -2.3545   22.3615 N   0  0  0  0  0  0  0  0  0  0  0  0
    8.7542   -3.2617   22.6303 H   0  0  0  0  0  0  0  0  0  0  0  0
    7.7970   -2.2586   20.8216 C   0  0  0  0  0  0  0  0  0  0  0  0
    7.6157   -2.1076   20.5400 O   0  0  0  0  0  0  0  0  0  0  0  0
    5.4185    0.7364   20.1345 C   0  0  0  0  0  0  0  0  0  0  0  0
    4.9921    0.7585   21.1412 H   0  0  0  0  0  0  0  0  0  0  0  0
    4.7703    1.3752   19.0759 C   0  0  0  0  0  0  0  0  0  0  0  0
    3.8247    1.8780   19.2247 H   0  0  0  0  0  0  0  0  0  0  0  0
  1  2  1  0
  2  3  2  0
  3  4  1  0
  4  5  1  0
  4  6  2  0
  6  7  1  0
  7  8  2  0
  8  9  1  0
  9 10  2  0
 10 11  1  0
 10 12  1  0
 12 13  1  0
 12 14  2  0
 14 15  1  0
 14 16  1  0
 16 17  2  0
 17 18  1  0
 17 19  1  0
 19 20  1  0
 19 21  2  0
 21 22  1  0
 21 23  1  0
 23 24  2  0
  8 25  1  0
 25 26  1  0
 25 27  1  0
 25 28  1  0
 28 29  1  0
 28 30  1  0
 30 31  2  0
  6 32  1  0
 32 33  1  0
 32 34  2  0
 34 35  1  0
 34  2  1  0
 30  7  1  0
 24  9  1  0
 24 16  1  0
M  END
>  <cnnaffinity>  (1) 
-4.67096

>  <filename>  (1) 
O=C1NCC(c2cccc3cccnc23)=C1c1cccnc1

$$$$
