
     RDKit          3D

 36 39  0  0  0  0  0  0  0  0999 V2000
    8.1541   -3.4040   27.5361 O   0  0  0  0  0  0  0  0  0  0  0  0
    7.9316   -2.8327   26.4841 C   0  0  0  0  0  0  0  0  0  0  0  0
    7.8053   -3.6297   25.3452 N   0  0  0  0  0  0  0  0  0  0  0  0
    7.7469   -3.1987   24.0521 C   0  0  0  0  0  0  0  0  0  0  0  0
    7.6548   -1.8593   23.7906 C   0  0  0  0  0  0  0  0  0  0  0  0
    7.6907   -1.3603   22.4054 C   0  0  0  0  0  0  0  0  0  0  0  0
    6.7237   -0.7451   21.7634 N   0  0  0  0  0  0  0  0  0  0  0  0
    7.2734   -0.4680   20.5602 C   0  0  0  0  0  0  0  0  0  0  0  0
    6.5573    0.2270   19.5020 C   0  0  0  0  0  0  0  0  0  0  0  0
    5.3426    0.8992   19.7032 C   0  0  0  0  0  0  0  0  0  0  0  0
    4.7650    1.5269   18.6018 C   0  0  0  0  0  0  0  0  0  0  0  0
    5.4155    1.4607   17.3629 C   0  0  0  0  0  0  0  0  0  0  0  0
    6.5743    0.8171   17.1684 N   0  0  0  0  0  0  0  0  0  0  0  0
    7.1301    0.2215   18.2231 C   0  0  0  0  0  0  0  0  0  0  0  0
    8.0776   -0.2799   18.0389 H   0  0  0  0  0  0  0  0  0  0  0  0
    4.9871    1.9335   16.4842 H   0  0  0  0  0  0  0  0  0  0  0  0
    3.8341    2.0752   18.6831 H   0  0  0  0  0  0  0  0  0  0  0  0
    4.8805    0.9367   20.6945 H   0  0  0  0  0  0  0  0  0  0  0  0
    8.5212   -0.8764   20.4144 N   0  0  0  0  0  0  0  0  0  0  0  0
    8.7833   -1.4751   21.5973 N   0  0  0  0  0  0  0  0  0  0  0  0
   10.1195   -2.0224   21.7456 C   0  0  0  0  0  0  0  0  0  0  0  0
   11.1728   -0.9529   21.9676 C   0  0  0  0  0  0  0  0  0  0  0  0
   12.3940   -1.5384   21.8189 F   0  0  0  0  0  0  0  0  0  0  0  0
   11.1027   -0.4810   23.2416 F   0  0  0  0  0  0  0  0  0  0  0  0
   11.0914   -0.1126   21.2749 H   0  0  0  0  0  0  0  0  0  0  0  0
   10.3414   -2.5245   20.8057 H   0  0  0  0  0  0  0  0  0  0  0  0
   10.1838   -2.7352   22.5642 H   0  0  0  0  0  0  0  0  0  0  0  0
    7.5785   -0.9564   24.9112 C   0  0  0  0  0  0  0  0  0  0  0  0
    7.7600   -1.4009   26.2207 C   0  0  0  0  0  0  0  0  0  0  0  0
    7.7129   -0.3435   27.1787 C   0  0  0  0  0  0  0  0  0  0  0  0
    7.4279    0.8464   26.5999 C   0  0  0  0  0  0  0  0  0  0  0  0
    7.2752    0.7446   24.8763 S   0  0  0  0  0  0  0  0  0  0  0  0
    7.2802    1.7954   27.0958 H   0  0  0  0  0  0  0  0  0  0  0  0
    7.9050   -0.4717   28.2407 H   0  0  0  0  0  0  0  0  0  0  0  0
    7.8080   -3.9531   23.2664 H   0  0  0  0  0  0  0  0  0  0  0  0
    7.8840   -4.5946   25.6333 H   0  0  0  0  0  0  0  0  0  0  0  0
  1  2  2  0
  2  3  1  0
  3  4  1  0
  4  5  2  0
  5  6  1  0
  6  7  2  0
  7  8  1  0
  8  9  1  0
  9 10  2  0
 10 11  1  0
 11 12  2  0
 12 13  1  0
 13 14  2  0
 14 15  1  0
 12 16  1  0
 11 17  1  0
 10 18  1  0
  8 19  2  0
 19 20  1  0
 20 21  1  0
 21 22  1  0
 22 23  1  0
 22 24  1  0
 22 25  1  0
 21 26  1  0
 21 27  1  0
  5 28  1  0
 28 29  2  0
 29 30  1  0
 30 31  2  0
 31 32  1  0
 31 33  1  0
 30 34  1  0
  4 35  1  0
  3 36  1  0
 29  2  1  0
 20  6  1  0
 32 28  1  0
 14  9  1  0
M  END
>  <cnnaffinity>  (1) 
-5.87364

>  <filename>  (1) 
O=c1[nH]cc(-c2nc(-c3cccnc3)nn2CC(F)F)c2sccc12

$$$$
