
     RDKit          3D

 34 36  0  0  0  0  0  0  0  0999 V2000
   11.2182    0.6442   21.2780 H   0  0  0  0  0  0  0  0  0  0  0  0
   10.4651    1.3782   21.5553 C   0  0  0  0  0  0  0  0  0  0  0  0
    9.1835    1.0179   21.5091 C   0  0  0  0  0  0  0  0  0  0  0  0
    8.3797    1.7410   21.6646 H   0  0  0  0  0  0  0  0  0  0  0  0
    8.7695   -0.2776   21.1896 N   0  0  0  0  0  0  0  0  0  0  0  0
    9.5891   -1.3940   21.2268 C   0  0  0  0  0  0  0  0  0  0  0  0
   10.7905   -1.4836   21.2962 O   0  0  0  0  0  0  0  0  0  0  0  0
    8.7708   -2.4857   21.1701 N   0  0  0  0  0  0  0  0  0  0  0  0
    9.1863   -3.3899   21.1139 H   0  0  0  0  0  0  0  0  0  0  0  0
    7.4522   -2.2011   20.9794 C   0  0  0  0  0  0  0  0  0  0  0  0
    6.5855   -3.0235   20.8419 O   0  0  0  0  0  0  0  0  0  0  0  0
    7.3587   -0.6542   21.0546 C   0  0  2  0  0  0  0  0  0  0  0  0
    6.7940   -0.4538   21.9822 H   0  0  0  0  0  0  0  0  0  0  0  0
    6.6605    0.0610   19.9042 C   0  0  0  0  0  0  0  0  0  0  0  0
    7.2318    0.1561   18.6203 C   0  0  0  0  0  0  0  0  0  0  0  0
    8.2068   -0.2860   18.4096 H   0  0  0  0  0  0  0  0  0  0  0  0
    6.6300    0.7582   17.5868 N   0  0  0  0  0  0  0  0  0  0  0  0
    5.4362    1.3298   17.8022 C   0  0  0  0  0  0  0  0  0  0  0  0
    4.9845    1.8321   16.9496 H   0  0  0  0  0  0  0  0  0  0  0  0
    4.7928    1.3132   19.0396 C   0  0  0  0  0  0  0  0  0  0  0  0
    3.8422    1.8160   19.1584 H   0  0  0  0  0  0  0  0  0  0  0  0
    5.4132    0.6642   20.1065 C   0  0  0  0  0  0  0  0  0  0  0  0
    4.9465    0.6438   21.0918 H   0  0  0  0  0  0  0  0  0  0  0  0
   10.9309    2.7263   21.9201 C   0  0  0  0  0  0  0  0  0  0  0  0
   12.0821    3.2158   21.2806 C   0  0  0  0  0  0  0  0  0  0  0  0
   12.5111    2.6129   20.4906 H   0  0  0  0  0  0  0  0  0  0  0  0
   12.6210    4.4587   21.6135 C   0  0  0  0  0  0  0  0  0  0  0  0
   13.5118    4.8162   21.1055 H   0  0  0  0  0  0  0  0  0  0  0  0
   12.0070    5.2283   22.6097 C   0  0  0  0  0  0  0  0  0  0  0  0
   12.4097    6.1952   22.8895 H   0  0  0  0  0  0  0  0  0  0  0  0
   10.8558    4.7556   23.2517 C   0  0  0  0  0  0  0  0  0  0  0  0
   10.3859    5.3413   24.0357 H   0  0  0  0  0  0  0  0  0  0  0  0
   10.3057    3.5217   22.8955 C   0  0  0  0  0  0  0  0  0  0  0  0
    9.4029    3.1540   23.3770 H   0  0  0  0  0  0  0  0  0  0  0  0
  1  2  1  0
  2  3  2  3
  3  4  1  0
  3  5  1  0
  5  6  1  0
  6  7  2  0
  6  8  1  0
  8  9  1  0
  8 10  1  0
 10 11  2  0
 10 12  1  0
 12 13  1  1
 12 14  1  0
 14 15  2  0
 15 16  1  0
 15 17  1  0
 17 18  2  0
 18 19  1  0
 18 20  1  0
 20 21  1  0
 20 22  2  0
 22 23  1  0
  2 24  1  0
 24 25  2  0
 25 26  1  0
 25 27  1  0
 27 28  1  0
 27 29  2  0
 29 30  1  0
 29 31  1  0
 31 32  1  0
 31 33  2  0
 33 34  1  0
 12  5  1  0
 22 14  1  0
 33 24  1  0
M  END
>  <cnnaffinity>  (1) 
-5.52803

>  <filename>  (1) 
O=C1NC(=O)N(C=Cc2ccccc2)[C@H]1c1cccnc1

$$$$
