
     RDKit          3D

 32 34  0  0  0  0  0  0  0  0999 V2000
    4.9722    1.8504   16.9145 H   0  0  0  0  0  0  0  0  0  0  0  0
    5.4053    1.3315   17.7678 C   0  0  0  0  0  0  0  0  0  0  0  0
    6.5603    0.6840   17.5443 N   0  0  0  0  0  0  0  0  0  0  0  0
    7.1117    0.0454   18.5861 C   0  0  0  0  0  0  0  0  0  0  0  0
    8.0544   -0.4610   18.3818 H   0  0  0  0  0  0  0  0  0  0  0  0
    6.5555   -0.0223   19.8807 C   0  0  0  0  0  0  0  0  0  0  0  0
    7.2438   -0.7907   20.9681 C   0  0  0  0  0  0  0  0  0  0  0  0
    8.6678   -0.6953   21.1352 C   0  0  0  0  0  0  0  0  0  0  0  0
    9.2428   -0.0413   20.4814 H   0  0  0  0  0  0  0  0  0  0  0  0
    9.3552   -1.3524   22.1306 C   0  0  0  0  0  0  0  0  0  0  0  0
   10.7580   -1.2153   22.2437 N   0  0  0  0  0  0  0  0  0  0  0  0
   11.2771   -1.9903   22.6433 H   0  0  0  0  0  0  0  0  0  0  0  0
   11.4932   -0.0423   22.2784 C   0  0  0  0  0  0  0  0  0  0  0  0
   12.8815   -0.1618   22.4023 C   0  0  0  0  0  0  0  0  0  0  0  0
   13.3831   -1.1171   22.3121 H   0  0  0  0  0  0  0  0  0  0  0  0
   13.6297    0.9921   22.5872 C   0  0  0  0  0  0  0  0  0  0  0  0
   14.7068    0.9347   22.7179 H   0  0  0  0  0  0  0  0  0  0  0  0
   13.1092    2.2256   22.6420 N   0  0  0  0  0  0  0  0  0  0  0  0
   11.7872    2.3221   22.4805 C   0  0  0  0  0  0  0  0  0  0  0  0
   11.3714    3.3278   22.5316 H   0  0  0  0  0  0  0  0  0  0  0  0
   10.9334    1.2386   22.3020 C   0  0  0  0  0  0  0  0  0  0  0  0
    9.8632    1.3865   22.2435 H   0  0  0  0  0  0  0  0  0  0  0  0
    8.5913   -2.2543   23.0499 C   0  0  0  0  0  0  0  0  0  0  0  0
    9.0071   -2.9683   23.9520 O   0  0  0  0  0  0  0  0  0  0  0  0
    7.2153   -2.2778   22.8150 N   0  0  0  0  0  0  0  0  0  0  0  0
    6.7742   -2.8428   23.5294 H   0  0  0  0  0  0  0  0  0  0  0  0
    6.5473   -1.5889   21.8355 C   0  0  0  0  0  0  0  0  0  0  0  0
    5.4721   -1.7399   21.7684 H   0  0  0  0  0  0  0  0  0  0  0  0
    5.3513    0.6775   20.0860 C   0  0  0  0  0  0  0  0  0  0  0  0
    4.8949    0.7190   21.0763 H   0  0  0  0  0  0  0  0  0  0  0  0
    4.7685    1.3592   19.0135 C   0  0  0  0  0  0  0  0  0  0  0  0
    3.8426    1.9142   19.1307 H   0  0  0  0  0  0  0  0  0  0  0  0
  1  2  1  0
  2  3  2  0
  3  4  1  0
  4  5  1  0
  4  6  2  0
  6  7  1  0
  7  8  1  0
  8  9  1  0
  8 10  2  0
 10 11  1  0
 11 12  1  0
 11 13  1  0
 13 14  2  0
 14 15  1  0
 14 16  1  0
 16 17  1  0
 16 18  2  0
 18 19  1  0
 19 20  1  0
 19 21  2  0
 21 22  1  0
 10 23  1  0
 23 24  2  0
 23 25  1  0
 25 26  1  0
 25 27  1  0
 27 28  1  0
  6 29  1  0
 29 30  1  0
 29 31  2  0
 31 32  1  0
 31  2  1  0
 27  7  2  0
 21 13  1  0
M  END
>  <cnnaffinity>  (1) 
-5.24343

>  <filename>  (1) 
O=c1[nH]cc(-c2cccnc2)cc1Nc1ccncc1

$$$$
