
     RDKit          3D

 38 40  0  0  0  0  0  0  0  0999 V2000
    4.9278    1.8100   16.8322 H   0  0  0  0  0  0  0  0  0  0  0  0
    5.3545    1.3972   17.7446 C   0  0  0  0  0  0  0  0  0  0  0  0
    6.5375    0.7784   17.6023 N   0  0  0  0  0  0  0  0  0  0  0  0
    7.0721    0.2345   18.6988 C   0  0  0  0  0  0  0  0  0  0  0  0
    8.0495   -0.2372   18.5837 H   0  0  0  0  0  0  0  0  0  0  0  0
    6.4751    0.2737   19.9725 C   0  0  0  0  0  0  0  0  0  0  0  0
    7.1258   -0.4388   21.0864 C   0  0  0  0  0  0  0  0  0  0  0  0
    7.6048    0.2966   22.2348 C   0  0  0  0  0  0  0  0  0  0  0  0
    7.3968    1.3552   22.3502 H   0  0  0  0  0  0  0  0  0  0  0  0
    8.3269   -0.2405   23.1666 N   0  0  0  0  0  0  0  0  0  0  0  0
    8.5826   -1.5824   23.0484 N   0  0  0  0  0  0  0  0  0  0  0  0
    9.2665   -2.2037   24.1524 C   0  0  0  0  0  0  0  0  0  0  0  0
    9.6197   -1.4197   24.8308 H   0  0  0  0  0  0  0  0  0  0  0  0
   10.1454   -2.7282   23.7359 H   0  0  0  0  0  0  0  0  0  0  0  0
    8.3403   -3.1121   24.8167 N   0  0  0  0  0  0  0  0  0  0  0  0
    7.9765   -3.7307   24.0932 H   0  0  0  0  0  0  0  0  0  0  0  0
    8.9353   -3.9117   25.8522 C   0  0  0  0  0  0  0  0  0  0  0  0
    9.4171   -3.2550   26.6043 H   0  0  0  0  0  0  0  0  0  0  0  0
    7.9090   -4.7987   26.5555 C   0  0  0  0  0  0  0  0  0  0  0  0
    7.2233   -4.2221   27.1879 H   0  0  0  0  0  0  0  0  0  0  0  0
    7.2927   -5.2932   25.7892 H   0  0  0  0  0  0  0  0  0  0  0  0
    8.7755   -5.8125   27.3137 C   0  0  0  0  0  0  0  0  0  0  0  0
    8.2593   -6.7562   27.5102 H   0  0  0  0  0  0  0  0  0  0  0  0
    9.0364   -5.3946   28.2943 H   0  0  0  0  0  0  0  0  0  0  0  0
   10.0588   -5.9777   26.4496 C   0  0  0  0  0  0  0  0  0  0  0  0
   10.9212   -5.7839   27.0872 H   0  0  0  0  0  0  0  0  0  0  0  0
   10.1806   -6.9878   26.0458 H   0  0  0  0  0  0  0  0  0  0  0  0
    9.9662   -4.9313   25.3312 C   0  0  0  0  0  0  0  0  0  0  0  0
   10.9419   -4.4922   25.0815 H   0  0  0  0  0  0  0  0  0  0  0  0
    9.5739   -5.3775   24.4032 H   0  0  0  0  0  0  0  0  0  0  0  0
    8.0985   -2.4530   22.0538 C   0  0  0  0  0  0  0  0  0  0  0  0
    8.3324   -3.6621   22.0858 O   0  0  0  0  0  0  0  0  0  0  0  0
    7.3467   -1.7867   21.0168 C   0  0  0  0  0  0  0  0  0  0  0  0
    6.9865   -2.4205   20.2120 H   0  0  0  0  0  0  0  0  0  0  0  0
    5.2734    0.9795   20.1153 C   0  0  0  0  0  0  0  0  0  0  0  0
    4.8246    1.0967   21.1064 H   0  0  0  0  0  0  0  0  0  0  0  0
    4.6829    1.5188   18.9691 C   0  0  0  0  0  0  0  0  0  0  0  0
    3.7323    2.0419   19.0091 H   0  0  0  0  0  0  0  0  0  0  0  0
  1  2  1  0
  2  3  2  0
  3  4  1  0
  4  5  1  0
  4  6  2  0
  6  7  1  0
  7  8  1  0
  8  9  1  0
  8 10  2  0
 10 11  1  0
 11 12  1  0
 12 13  1  0
 12 14  1  0
 12 15  1  0
 15 16  1  0
 15 17  1  0
 17 18  1  0
 17 19  1  0
 19 20  1  0
 19 21  1  0
 19 22  1  0
 22 23  1  0
 22 24  1  0
 22 25  1  0
 25 26  1  0
 25 27  1  0
 25 28  1  0
 28 29  1  0
 28 30  1  0
 11 31  1  0
 31 32  2  0
 31 33  1  0
 33 34  1  0
  6 35  1  0
 35 36  1  0
 35 37  2  0
 37 38  1  0
 37  2  1  0
 33  7  2  0
 28 17  1  0
M  END
>  <cnnaffinity>  (1) 
-4.9863

>  <filename>  (1) 
O=c1cc(-c2cccnc2)cnn1CNC1CCCC1

$$$$
