
     RDKit          3D

 29 31  0  0  0  0  0  0  0  0999 V2000
    4.9204    1.8004   16.9712 H   0  0  0  0  0  0  0  0  0  0  0  0
    5.3914    1.3005   17.8169 C   0  0  0  0  0  0  0  0  0  0  0  0
    6.5567    0.6795   17.5599 N   0  0  0  0  0  0  0  0  0  0  0  0
    7.1606    0.0577   18.5804 C   0  0  0  0  0  0  0  0  0  0  0  0
    8.1200   -0.4018   18.3393 H   0  0  0  0  0  0  0  0  0  0  0  0
    6.6453    0.0065   19.8893 C   0  0  0  0  0  0  0  0  0  0  0  0
    7.3352   -0.6482   20.9900 C   0  0  0  0  0  0  0  0  0  0  0  0
    7.2384   -0.4175   22.3153 C   0  0  0  0  0  0  0  0  0  0  0  0
    6.6443    0.3114   22.8430 H   0  0  0  0  0  0  0  0  0  0  0  0
    8.0884   -1.2973   22.9704 N   0  0  0  0  0  0  0  0  0  0  0  0
    8.1766   -1.5120   24.3921 C   0  0  0  0  0  0  0  0  0  0  0  0
    9.1762   -1.8924   24.6234 H   0  0  0  0  0  0  0  0  0  0  0  0
    8.0307   -0.5422   24.8848 H   0  0  0  0  0  0  0  0  0  0  0  0
    7.1898   -2.4552   24.8731 N   0  0  0  0  0  0  0  0  0  0  0  0
    5.8840   -2.1867   25.1866 C   0  0  0  0  0  0  0  0  0  0  0  0
    5.4775   -1.1819   25.2022 H   0  0  0  0  0  0  0  0  0  0  0  0
    5.2162   -3.2648   25.4944 N   0  0  0  0  0  0  0  0  0  0  0  0
    6.1161   -4.2992   25.3669 C   0  0  0  0  0  0  0  0  0  0  0  0
    5.8217   -5.3237   25.5505 H   0  0  0  0  0  0  0  0  0  0  0  0
    7.3339   -3.8253   24.9824 C   0  0  0  0  0  0  0  0  0  0  0  0
    8.2645   -4.3275   24.7532 H   0  0  0  0  0  0  0  0  0  0  0  0
    8.6959   -2.1376   22.0446 C   0  0  0  0  0  0  0  0  0  0  0  0
    9.4443   -3.0735   22.2402 O   0  0  0  0  0  0  0  0  0  0  0  0
    8.2568   -1.6742   20.8300 N   0  0  0  0  0  0  0  0  0  0  0  0
    8.5214   -2.1795   20.0097 H   0  0  0  0  0  0  0  0  0  0  0  0
    5.4269    0.6609   20.1318 C   0  0  0  0  0  0  0  0  0  0  0  0
    4.9916    0.6419   21.1311 H   0  0  0  0  0  0  0  0  0  0  0  0
    4.7938    1.3193   19.0826 C   0  0  0  0  0  0  0  0  0  0  0  0
    3.8622    1.8529   19.2338 H   0  0  0  0  0  0  0  0  0  0  0  0
  1  2  1  0
  2  3  2  0
  3  4  1  0
  4  5  1  0
  4  6  2  0
  6  7  1  0
  7  8  2  0
  8  9  1  0
  8 10  1  0
 10 11  1  0
 11 12  1  0
 11 13  1  0
 11 14  1  0
 14 15  1  0
 15 16  1  0
 15 17  2  0
 17 18  1  0
 18 19  1  0
 18 20  2  0
 20 21  1  0
 10 22  1  0
 22 23  2  0
 22 24  1  0
 24 25  1  0
  6 26  1  0
 26 27  1  0
 26 28  2  0
 28 29  1  0
 28  2  1  0
 24  7  1  0
 20 14  1  0
M  END
>  <cnnaffinity>  (1) 
-5.09443

>  <filename>  (1) 
O=c1[nH]c(-c2cccnc2)cn1Cn1ccnc1

$$$$
