
     RDKit          3D

 31 33  0  0  0  0  0  0  0  0999 V2000
    4.9463    1.8309   17.0041 H   0  0  0  0  0  0  0  0  0  0  0  0
    5.4124    1.3039   17.8339 C   0  0  0  0  0  0  0  0  0  0  0  0
    6.5689    0.6782   17.5638 N   0  0  0  0  0  0  0  0  0  0  0  0
    7.1748    0.0187   18.5647 C   0  0  0  0  0  0  0  0  0  0  0  0
    8.1205   -0.4646   18.3205 H   0  0  0  0  0  0  0  0  0  0  0  0
    6.6615   -0.0702   19.8820 C   0  0  0  0  0  0  0  0  0  0  0  0
    7.2714   -0.8224   20.9076 N   0  0  0  0  0  0  0  0  0  0  0  0
    6.7012   -0.8725   21.7486 H   0  0  0  0  0  0  0  0  0  0  0  0
    8.6838   -0.8797   21.1185 C   0  0  0  0  0  0  0  0  0  0  0  0
    9.6954    0.0513   20.7669 C   0  0  0  0  0  0  0  0  0  0  0  0
    9.5619    0.9865   20.2471 H   0  0  0  0  0  0  0  0  0  0  0  0
   10.9065   -0.3220   21.1620 N   0  0  0  0  0  0  0  0  0  0  0  0
   10.7028   -1.5147   21.7519 N   0  0  0  0  0  0  0  0  0  0  0  0
   11.3977   -2.0025   22.3050 H   0  0  0  0  0  0  0  0  0  0  0  0
    9.4043   -1.8850   21.7494 C   0  0  0  0  0  0  0  0  0  0  0  0
    8.9994   -3.1093   22.2649 N   0  0  0  0  0  0  0  0  0  0  0  0
    9.5820   -3.7601   23.3363 C   0  0  0  0  0  0  0  0  0  0  0  0
   10.6301   -3.4404   23.8640 O   0  0  0  0  0  0  0  0  0  0  0  0
    8.6853   -4.9256   23.6781 C   0  0  0  0  0  0  0  0  0  0  0  0
    8.0792   -4.6074   24.5318 H   0  0  0  0  0  0  0  0  0  0  0  0
    9.2907   -5.7693   24.0033 H   0  0  0  0  0  0  0  0  0  0  0  0
    7.8353   -5.1285   22.4137 C   0  0  0  0  0  0  0  0  0  0  0  0
    8.3407   -5.7961   21.7036 H   0  0  0  0  0  0  0  0  0  0  0  0
    6.8354   -5.5331   22.5983 H   0  0  0  0  0  0  0  0  0  0  0  0
    7.7496   -3.7142   21.8271 C   0  0  0  0  0  0  0  0  0  0  0  0
    7.6952   -3.7069   20.7352 H   0  0  0  0  0  0  0  0  0  0  0  0
    6.8937   -3.1383   22.2156 H   0  0  0  0  0  0  0  0  0  0  0  0
    5.4527    0.5999   20.1378 C   0  0  0  0  0  0  0  0  0  0  0  0
    5.0383    0.5933   21.1458 H   0  0  0  0  0  0  0  0  0  0  0  0
    4.8186    1.2936   19.1014 C   0  0  0  0  0  0  0  0  0  0  0  0
    3.8859    1.8296   19.2595 H   0  0  0  0  0  0  0  0  0  0  0  0
  1  2  1  0
  2  3  2  0
  3  4  1  0
  4  5  1  0
  4  6  2  0
  6  7  1  0
  7  8  1  0
  7  9  1  0
  9 10  1  0
 10 11  1  0
 10 12  2  0
 12 13  1  0
 13 14  1  0
 13 15  1  0
 15 16  1  0
 16 17  1  0
 17 18  2  0
 17 19  1  0
 19 20  1  0
 19 21  1  0
 19 22  1  0
 22 23  1  0
 22 24  1  0
 22 25  1  0
 25 26  1  0
 25 27  1  0
  6 28  1  0
 28 29  1  0
 28 30  2  0
 30 31  1  0
 30  2  1  0
 15  9  2  0
 25 16  1  0
M  END
>  <cnnaffinity>  (1) 
-5.37812

>  <filename>  (1) 
O=C1CCCN1c1[nH]ncc1Nc1cccnc1

$$$$
