
     RDKit          3D

 31 33  0  0  0  0  0  0  0  0999 V2000
    6.8400    2.6990   22.5140 H   0  0  0  0  0  0  0  0  0  0  0  0
    7.2094    1.7415   22.8755 C   0  0  0  0  0  0  0  0  0  0  0  0
    6.5786    1.0882   23.8646 C   0  0  0  0  0  0  0  0  0  0  0  0
    7.1277   -0.4038   24.6559 S   0  0  0  0  0  0  0  0  0  0  0  0
    5.7360   -0.3738   25.7904 C   0  0  0  0  0  0  0  0  0  0  0  0
    5.4871   -1.1498   26.6690 O   0  0  0  0  0  0  0  0  0  0  0  0
    4.9677    0.7188   25.5089 N   0  0  0  0  0  0  0  0  0  0  0  0
    4.1469    0.8919   26.0523 H   0  0  0  0  0  0  0  0  0  0  0  0
    5.3110    1.5649   24.4955 C   0  0  0  0  0  0  0  0  0  0  0  0
    4.6346    2.5277   24.2149 O   0  0  0  0  0  0  0  0  0  0  0  0
    8.3929    1.2767   22.2543 N   0  0  0  0  0  0  0  0  0  0  0  0
    9.6139    1.9237   22.3299 C   0  0  0  0  0  0  0  0  0  0  0  0
    9.7078    2.8046   22.9530 H   0  0  0  0  0  0  0  0  0  0  0  0
   10.5334    1.2169   21.6030 C   0  0  0  0  0  0  0  0  0  0  0  0
   11.5795    1.4623   21.4775 H   0  0  0  0  0  0  0  0  0  0  0  0
    9.8518    0.0981   21.0497 C   0  0  0  0  0  0  0  0  0  0  0  0
   10.2465   -0.6541   20.3776 H   0  0  0  0  0  0  0  0  0  0  0  0
    8.5461    0.1458   21.4647 C   0  0  0  0  0  0  0  0  0  0  0  0
    7.3927   -0.6979   21.0083 C   0  0  0  0  0  0  0  0  0  0  0  0
    7.8063   -1.6487   20.6470 H   0  0  0  0  0  0  0  0  0  0  0  0
    6.7216   -0.9543   21.8388 H   0  0  0  0  0  0  0  0  0  0  0  0
    6.6215   -0.0148   19.8932 C   0  0  0  0  0  0  0  0  0  0  0  0
    7.1475    0.0572   18.5911 C   0  0  0  0  0  0  0  0  0  0  0  0
    8.1012   -0.4203   18.3623 H   0  0  0  0  0  0  0  0  0  0  0  0
    6.5538    0.6856   17.5700 N   0  0  0  0  0  0  0  0  0  0  0  0
    5.3900    1.3028   17.8275 C   0  0  0  0  0  0  0  0  0  0  0  0
    4.9183    1.7986   16.9808 H   0  0  0  0  0  0  0  0  0  0  0  0
    4.7904    1.3196   19.0901 C   0  0  0  0  0  0  0  0  0  0  0  0
    3.8619    1.8563   19.2360 H   0  0  0  0  0  0  0  0  0  0  0  0
    5.4175    0.6462   20.1417 C   0  0  0  0  0  0  0  0  0  0  0  0
    5.0058    0.6363   21.1536 H   0  0  0  0  0  0  0  0  0  0  0  0
  1  2  1  0
  2  3  2  3
  3  4  1  0
  4  5  1  0
  5  6  2  0
  5  7  1  0
  7  8  1  0
  7  9  1  0
  9 10  2  0
  2 11  1  0
 11 12  1  0
 12 13  1  0
 12 14  2  0
 14 15  1  0
 14 16  1  0
 16 17  1  0
 16 18  2  0
 18 19  1  0
 19 20  1  0
 19 21  1  0
 19 22  1  0
 22 23  2  0
 23 24  1  0
 23 25  1  0
 25 26  2  0
 26 27  1  0
 26 28  1  0
 28 29  1  0
 28 30  2  0
 30 31  1  0
  9  3  1  0
 18 11  1  0
 30 22  1  0
M  END
>  <cnnaffinity>  (1) 
-4.72086

>  <filename>  (1) 
O=C1NC(=O)C(=Cn2cccc2Cc2cccnc2)S1

$$$$
