
     RDKit          3D

 35 38  0  0  0  0  0  0  0  0999 V2000
    4.9731    1.7915   17.0137 H   0  0  0  0  0  0  0  0  0  0  0  0
    5.4197    1.2741   17.8601 C   0  0  0  0  0  0  0  0  0  0  0  0
    6.5791    0.6340   17.6235 N   0  0  0  0  0  0  0  0  0  0  0  0
    7.1709    0.0149   18.6459 C   0  0  0  0  0  0  0  0  0  0  0  0
    8.1048   -0.5039   18.4301 H   0  0  0  0  0  0  0  0  0  0  0  0
    6.6534    0.0239   19.9484 C   0  0  0  0  0  0  0  0  0  0  0  0
    7.3845   -0.6576   20.9598 N   0  0  0  0  0  0  0  0  0  0  0  0
    7.7177   -1.9438   20.7540 N   0  0  0  0  0  0  0  0  0  0  0  0
    8.3380   -2.3256   21.8549 C   0  0  0  0  0  0  0  0  0  0  0  0
    8.6831   -3.3484   21.9266 H   0  0  0  0  0  0  0  0  0  0  0  0
    8.4443   -1.2743   22.7844 C   0  0  0  0  0  0  0  0  0  0  0  0
    8.9141   -1.2977   23.7539 H   0  0  0  0  0  0  0  0  0  0  0  0
    7.8301   -0.2010   22.1712 C   0  0  0  0  0  0  0  0  0  0  0  0
    7.7091    1.2329   22.6088 C   0  0  0  0  0  0  0  0  0  0  0  0
    8.6748    1.7388   22.5142 H   0  0  0  0  0  0  0  0  0  0  0  0
    6.9869    1.7811   22.0011 H   0  0  0  0  0  0  0  0  0  0  0  0
    7.3070    1.3499   23.9970 N   0  0  0  0  0  0  0  0  0  0  0  0
    6.0082    1.1221   24.4353 C   0  0  0  0  0  0  0  0  0  0  0  0
    5.0444    1.1058   23.7039 O   0  0  0  0  0  0  0  0  0  0  0  0
    6.0845    0.9490   25.9163 C   0  0  0  0  0  0  0  0  0  0  0  0
    5.1099    0.7278   26.8903 C   0  0  0  0  0  0  0  0  0  0  0  0
    4.0624    0.6080   26.6416 H   0  0  0  0  0  0  0  0  0  0  0  0
    5.5319    0.6189   28.2184 C   0  0  0  0  0  0  0  0  0  0  0  0
    4.8032    0.4642   29.0005 H   0  0  0  0  0  0  0  0  0  0  0  0
    6.8927    0.6749   28.5682 C   0  0  0  0  0  0  0  0  0  0  0  0
    7.1886    0.6148   29.6120 H   0  0  0  0  0  0  0  0  0  0  0  0
    7.8621    0.8091   27.5776 C   0  0  0  0  0  0  0  0  0  0  0  0
    8.9114    0.6870   27.8114 H   0  0  0  0  0  0  0  0  0  0  0  0
    7.4324    1.0030   26.2694 C   0  0  0  0  0  0  0  0  0  0  0  0
    8.2220    1.2638   25.0398 C   0  0  0  0  0  0  0  0  0  0  0  0
    9.4154    1.3769   24.8958 O   0  0  0  0  0  0  0  0  0  0  0  0
    5.4315    0.6661   20.1938 C   0  0  0  0  0  0  0  0  0  0  0  0
    4.9952    0.6703   21.1962 H   0  0  0  0  0  0  0  0  0  0  0  0
    4.8036    1.2981   19.1137 C   0  0  0  0  0  0  0  0  0  0  0  0
    3.8682    1.8314   19.2447 H   0  0  0  0  0  0  0  0  0  0  0  0
  1  2  1  0
  2  3  2  0
  3  4  1  0
  4  5  1  0
  4  6  2  0
  6  7  1  0
  7  8  1  0
  8  9  2  0
  9 10  1  0
  9 11  1  0
 11 12  1  0
 11 13  2  0
 13 14  1  0
 14 15  1  0
 14 16  1  0
 14 17  1  0
 17 18  1  0
 18 19  2  0
 18 20  1  0
 20 21  2  0
 21 22  1  0
 21 23  1  0
 23 24  1  0
 23 25  2  0
 25 26  1  0
 25 27  1  0
 27 28  1  0
 27 29  2  0
 29 30  1  0
 30 31  2  0
  6 32  1  0
 32 33  1  0
 32 34  2  0
 34 35  1  0
 34  2  1  0
 13  7  1  0
 30 17  1  0
 29 20  1  0
M  END
>  <cnnaffinity>  (1) 
-5.03278

>  <filename>  (1) 
O=C1c2ccccc2C(=O)N1Cc1ccnn1-c1cccnc1

$$$$
