
     RDKit          3D

 33 35  0  0  0  0  0  0  0  0999 V2000
    5.0201    1.7734   16.9918 H   0  0  0  0  0  0  0  0  0  0  0  0
    5.4579    1.2595   17.8451 C   0  0  0  0  0  0  0  0  0  0  0  0
    6.6152    0.6213   17.6168 N   0  0  0  0  0  0  0  0  0  0  0  0
    7.1891   -0.0086   18.6493 C   0  0  0  0  0  0  0  0  0  0  0  0
    8.1445   -0.4918   18.4452 H   0  0  0  0  0  0  0  0  0  0  0  0
    6.6358   -0.0512   19.9405 C   0  0  0  0  0  0  0  0  0  0  0  0
    7.3470   -0.7656   21.0605 C   0  0  2  0  0  0  0  0  0  0  0  0
    6.9808   -0.3722   22.0194 H   0  0  0  0  0  0  0  0  0  0  0  0
    8.7472   -0.4882   21.0033 O   0  0  0  0  0  0  0  0  0  0  0  0
    9.4872   -1.6107   21.1565 C   0  0  0  0  0  0  0  0  0  0  0  0
   10.6796   -1.6493   21.2086 O   0  0  0  0  0  0  0  0  0  0  0  0
    8.6374   -2.6983   21.2503 N   0  0  0  0  0  0  0  0  0  0  0  0
    9.0648   -3.5227   20.8597 H   0  0  0  0  0  0  0  0  0  0  0  0
    7.2419   -2.3214   21.0152 C   0  0  1  0  0  0  0  0  0  0  0  0
    6.8568   -2.6547   20.0445 H   0  0  0  0  0  0  0  0  0  0  0  0
    6.1658   -2.8232   22.0214 C   0  0  0  0  0  0  0  0  0  0  0  0
    5.0258   -3.0178   21.6441 O   0  0  0  0  0  0  0  0  0  0  0  0
    6.6305   -3.0034   23.2919 N   0  0  0  0  0  0  0  0  0  0  0  0
    7.6248   -2.8702   23.3827 H   0  0  0  0  0  0  0  0  0  0  0  0
    5.9408   -3.2804   24.4654 C   0  0  0  0  0  0  0  0  0  0  0  0
    4.5530   -3.1960   24.5838 C   0  0  0  0  0  0  0  0  0  0  0  0
    3.9190   -3.0104   23.7305 H   0  0  0  0  0  0  0  0  0  0  0  0
    4.0042   -3.3687   25.8551 C   0  0  0  0  0  0  0  0  0  0  0  0
    2.9290   -3.2454   25.9999 H   0  0  0  0  0  0  0  0  0  0  0  0
    4.7129   -3.6709   26.9504 N   0  0  0  0  0  0  0  0  0  0  0  0
    6.0394   -3.7843   26.7980 C   0  0  0  0  0  0  0  0  0  0  0  0
    6.6025   -4.0287   27.6960 H   0  0  0  0  0  0  0  0  0  0  0  0
    6.7044   -3.6008   25.5897 C   0  0  0  0  0  0  0  0  0  0  0  0
    7.7815   -3.7130   25.5252 H   0  0  0  0  0  0  0  0  0  0  0  0
    5.4162    0.6040   20.1533 C   0  0  0  0  0  0  0  0  0  0  0  0
    4.9579    0.6044   21.1447 H   0  0  0  0  0  0  0  0  0  0  0  0
    4.8178    1.2764   19.0873 C   0  0  0  0  0  0  0  0  0  0  0  0
    3.8912    1.8261   19.2074 H   0  0  0  0  0  0  0  0  0  0  0  0
  1  2  1  0
  2  3  2  0
  3  4  1  0
  4  5  1  0
  4  6  2  0
  6  7  1  0
  7  8  1  1
  7  9  1  0
  9 10  1  0
 10 11  2  0
 10 12  1  0
 12 13  1  0
 12 14  1  0
 14 15  1  6
 14 16  1  0
 16 17  2  0
 16 18  1  0
 18 19  1  0
 18 20  1  0
 20 21  2  0
 21 22  1  0
 21 23  1  0
 23 24  1  0
 23 25  2  0
 25 26  1  0
 26 27  1  0
 26 28  2  0
 28 29  1  0
  6 30  1  0
 30 31  1  0
 30 32  2  0
 32 33  1  0
 32  2  1  0
 14  7  1  0
 28 20  1  0
M  END
>  <cnnaffinity>  (1) 
-5.02165

>  <filename>  (1) 
O=C1N[C@@H](C(=O)Nc2ccncc2)[C@H](c2cccnc2)O1

$$$$
