
     RDKit          3D

 29 31  0  0  0  0  0  0  0  0999 V2000
    8.9345   -3.3786   21.0110 H   0  0  0  0  0  0  0  0  0  0  0  0
    8.4401   -3.2289   21.9808 C   0  0  0  0  0  0  0  0  0  0  0  0
    7.9907   -4.3006   22.6608 C   0  0  0  0  0  0  0  0  0  0  0  0
    7.6350   -5.8931   21.9329 S   0  0  0  0  0  0  0  0  0  0  0  0
    6.4472   -6.2581   23.2017 C   0  0  0  0  0  0  0  0  0  0  0  0
    5.3265   -7.4361   23.2379 S   0  0  0  0  0  0  0  0  0  0  0  0
    6.5748   -5.3344   24.1850 N   0  0  0  0  0  0  0  0  0  0  0  0
    6.0609   -5.3726   25.0516 H   0  0  0  0  0  0  0  0  0  0  0  0
    7.4012   -4.2589   24.0300 C   0  0  0  0  0  0  0  0  0  0  0  0
    7.5667   -3.4658   24.9249 O   0  0  0  0  0  0  0  0  0  0  0  0
    8.1310   -1.8024   22.2048 C   0  0  0  0  0  0  0  0  0  0  0  0
    7.7575   -1.1647   21.0315 N   0  0  0  0  0  0  0  0  0  0  0  0
    7.2523    0.0516   21.0767 C   0  0  0  0  0  0  0  0  0  0  0  0
    6.6080    0.5831   19.8605 C   0  0  0  0  0  0  0  0  0  0  0  0
    7.0688    0.1635   18.5971 C   0  0  0  0  0  0  0  0  0  0  0  0
    7.9179   -0.5149   18.5250 H   0  0  0  0  0  0  0  0  0  0  0  0
    6.5345    0.5708   17.4433 N   0  0  0  0  0  0  0  0  0  0  0  0
    5.4846    1.4052   17.5032 C   0  0  0  0  0  0  0  0  0  0  0  0
    5.0779    1.7289   16.5476 H   0  0  0  0  0  0  0  0  0  0  0  0
    4.9310    1.8618   18.7007 C   0  0  0  0  0  0  0  0  0  0  0  0
    4.0960    2.5548   18.6792 H   0  0  0  0  0  0  0  0  0  0  0  0
    5.5083    1.4588   19.9017 C   0  0  0  0  0  0  0  0  0  0  0  0
    5.1378    1.8323   20.8559 H   0  0  0  0  0  0  0  0  0  0  0  0
    7.3062    0.8873   22.3596 C   0  0  0  0  0  0  0  0  0  0  0  0
    6.9615    2.0386   22.5715 O   0  0  0  0  0  0  0  0  0  0  0  0
    7.8264    0.1793   23.4394 N   0  0  0  0  0  0  0  0  0  0  0  0
    7.7888    0.7452   24.2802 H   0  0  0  0  0  0  0  0  0  0  0  0
    8.1611   -1.1467   23.4184 C   0  0  0  0  0  0  0  0  0  0  0  0
    8.4175   -1.6519   24.3379 H   0  0  0  0  0  0  0  0  0  0  0  0
  1  2  1  0
  2  3  2  3
  3  4  1  0
  4  5  1  0
  5  6  2  0
  5  7  1  0
  7  8  1  0
  7  9  1  0
  9 10  2  0
  2 11  1  0
 11 12  1  0
 12 13  2  0
 13 14  1  0
 14 15  2  0
 15 16  1  0
 15 17  1  0
 17 18  2  0
 18 19  1  0
 18 20  1  0
 20 21  1  0
 20 22  2  0
 22 23  1  0
 13 24  1  0
 24 25  2  0
 24 26  1  0
 26 27  1  0
 26 28  1  0
 28 29  1  0
  9  3  1  0
 28 11  2  0
 22 14  1  0
M  END
>  <cnnaffinity>  (1) 
-5.45204

>  <filename>  (1) 
O=C1NC(=S)SC1=Cc1c[nH]c(=O)c(-c2cccnc2)n1

$$$$
