
     RDKit          3D

 37 39  0  0  0  0  0  0  0  0999 V2000
    4.9184    1.7997   16.9836 H   0  0  0  0  0  0  0  0  0  0  0  0
    5.3989    1.3039   17.8246 C   0  0  0  0  0  0  0  0  0  0  0  0
    6.5634    0.6895   17.5608 N   0  0  0  0  0  0  0  0  0  0  0  0
    7.1882    0.0819   18.5768 C   0  0  0  0  0  0  0  0  0  0  0  0
    8.1216   -0.4248   18.3378 H   0  0  0  0  0  0  0  0  0  0  0  0
    6.6826    0.0325   19.8922 C   0  0  0  0  0  0  0  0  0  0  0  0
    7.3704   -0.6740   20.9499 N   0  0  0  0  0  0  0  0  0  0  0  0
    8.6586   -0.3003   21.2856 C   0  0  0  0  0  0  0  0  0  0  0  0
    9.0604    0.5370   20.7161 H   0  0  0  0  0  0  0  0  0  0  0  0
    9.3395   -0.9117   22.2927 C   0  0  0  0  0  0  0  0  0  0  0  0
   10.3437   -0.6009   22.5487 H   0  0  0  0  0  0  0  0  0  0  0  0
    8.6969   -1.9289   23.0562 C   0  0  0  0  0  0  0  0  0  0  0  0
    9.3652   -2.4335   24.1811 N   0  0  0  0  0  0  0  0  0  0  0  0
   10.3316   -2.6838   24.0479 H   0  0  0  0  0  0  0  0  0  0  0  0
    8.8701   -3.1825   25.2189 C   0  0  0  0  0  0  0  0  0  0  0  0
    9.8794   -4.2627   25.9558 S   0  0  0  0  0  0  0  0  0  0  0  0
    7.6123   -2.8332   25.5873 N   0  0  0  0  0  0  0  0  0  0  0  0
    7.3932   -1.8716   25.3899 H   0  0  0  0  0  0  0  0  0  0  0  0
    6.6696   -3.6026   26.3048 C   0  0  0  0  0  0  0  0  0  0  0  0
    5.8096   -2.9799   27.2153 C   0  0  0  0  0  0  0  0  0  0  0  0
    5.8966   -1.9100   27.3848 H   0  0  0  0  0  0  0  0  0  0  0  0
    4.8566   -3.7448   27.8987 C   0  0  0  0  0  0  0  0  0  0  0  0
    4.1851   -3.2598   28.6034 H   0  0  0  0  0  0  0  0  0  0  0  0
    4.7587   -5.1212   27.6675 C   0  0  0  0  0  0  0  0  0  0  0  0
    4.0162   -5.7122   28.1946 H   0  0  0  0  0  0  0  0  0  0  0  0
    5.6233   -5.7365   26.7564 C   0  0  0  0  0  0  0  0  0  0  0  0
    5.5618   -6.8065   26.5728 H   0  0  0  0  0  0  0  0  0  0  0  0
    6.5819   -4.9813   26.0795 C   0  0  0  0  0  0  0  0  0  0  0  0
    7.2724   -5.4369   25.3785 H   0  0  0  0  0  0  0  0  0  0  0  0
    7.4691   -2.3800   22.6835 C   0  0  0  0  0  0  0  0  0  0  0  0
    6.9736   -3.2020   23.1602 H   0  0  0  0  0  0  0  0  0  0  0  0
    6.7176   -1.7756   21.6210 C   0  0  0  0  0  0  0  0  0  0  0  0
    5.6108   -2.1626   21.2801 O   0  0  0  0  0  0  0  0  0  0  0  0
    5.4582    0.6596   20.1484 C   0  0  0  0  0  0  0  0  0  0  0  0
    5.0276    0.6035   21.1455 H   0  0  0  0  0  0  0  0  0  0  0  0
    4.8149    1.3183   19.0952 C   0  0  0  0  0  0  0  0  0  0  0  0
    3.8755    1.8369   19.2476 H   0  0  0  0  0  0  0  0  0  0  0  0
  1  2  1  0
  2  3  2  0
  3  4  1  0
  4  5  1  0
  4  6  2  0
  6  7  1  0
  7  8  1  0
  8  9  1  0
  8 10  2  0
 10 11  1  0
 10 12  1  0
 12 13  1  0
 13 14  1  0
 13 15  1  0
 15 16  2  0
 15 17  1  0
 17 18  1  0
 17 19  1  0
 19 20  2  0
 20 21  1  0
 20 22  1  0
 22 23  1  0
 22 24  2  0
 24 25  1  0
 24 26  1  0
 26 27  1  0
 26 28  2  0
 28 29  1  0
 12 30  2  0
 30 31  1  0
 30 32  1  0
 32 33  2  0
  6 34  1  0
 34 35  1  0
 34 36  2  0
 36 37  1  0
 36  2  1  0
 32  7  1  0
 28 19  1  0
M  END
>  <cnnaffinity>  (1) 
-5.40263

>  <filename>  (1) 
O=c1cc(NC(=S)Nc2ccccc2)ccn1-c1cccnc1

$$$$
