
     RDKit          3D

 27 29  0  0  0  0  0  0  0  0999 V2000
    3.5175   -3.7595   25.1192 H   0  0  0  0  0  0  0  0  0  0  0  0
    4.5532   -3.4531   25.0387 C   0  0  0  0  0  0  0  0  0  0  0  0
    5.5085   -3.2737   25.9493 C   0  0  0  0  0  0  0  0  0  0  0  0
    5.5361   -3.3878   27.0260 H   0  0  0  0  0  0  0  0  0  0  0  0
    6.7501   -2.8453   25.2570 C   0  0  0  0  0  0  0  0  0  0  0  0
    7.8217   -2.6265   25.7623 O   0  0  0  0  0  0  0  0  0  0  0  0
    6.4430   -2.7459   23.8954 N   0  0  0  0  0  0  0  0  0  0  0  0
    7.2188   -2.0739   22.9490 C   0  0  0  0  0  0  0  0  0  0  0  0
    6.5562   -1.4324   21.9911 N   0  0  0  0  0  0  0  0  0  0  0  0
    7.3058   -0.7996   21.0651 C   0  0  0  0  0  0  0  0  0  0  0  0
    6.5707   -0.0670   20.0068 C   0  0  0  0  0  0  0  0  0  0  0  0
    7.1260   -0.0397   18.7229 C   0  0  0  0  0  0  0  0  0  0  0  0
    8.0567   -0.5737   18.5392 H   0  0  0  0  0  0  0  0  0  0  0  0
    6.5927    0.5976   17.6800 N   0  0  0  0  0  0  0  0  0  0  0  0
    5.4473    1.2623   17.8885 C   0  0  0  0  0  0  0  0  0  0  0  0
    5.0279    1.7895   17.0308 H   0  0  0  0  0  0  0  0  0  0  0  0
    4.7994    1.2918   19.1281 C   0  0  0  0  0  0  0  0  0  0  0  0
    3.8829    1.8592   19.2310 H   0  0  0  0  0  0  0  0  0  0  0  0
    5.3569    0.6087   20.2093 C   0  0  0  0  0  0  0  0  0  0  0  0
    4.8721    0.6131   21.1873 H   0  0  0  0  0  0  0  0  0  0  0  0
    8.7261   -0.8419   21.1088 C   0  0  0  0  0  0  0  0  0  0  0  0
    9.3274   -0.3332   20.3635 H   0  0  0  0  0  0  0  0  0  0  0  0
    9.4005   -1.4825   22.0858 N   0  0  0  0  0  0  0  0  0  0  0  0
    8.6404   -2.0832   23.0126 C   0  0  0  0  0  0  0  0  0  0  0  0
    9.0997   -2.5842   23.8500 H   0  0  0  0  0  0  0  0  0  0  0  0
    5.1309   -3.2063   23.6800 C   0  0  0  0  0  0  0  0  0  0  0  0
    4.6185   -3.4567   22.6261 O   0  0  0  0  0  0  0  0  0  0  0  0
  1  2  1  0
  2  3  2  0
  3  4  1  0
  3  5  1  0
  5  6  2  0
  5  7  1  0
  7  8  1  0
  8  9  2  0
  9 10  1  0
 10 11  1  0
 11 12  2  0
 12 13  1  0
 12 14  1  0
 14 15  2  0
 15 16  1  0
 15 17  1  0
 17 18  1  0
 17 19  2  0
 19 20  1  0
 10 21  2  0
 21 22  1  0
 21 23  1  0
 23 24  2  0
 24 25  1  0
  7 26  1  0
 26 27  2  0
 26  2  1  0
 24  8  1  0
 19 11  1  0
M  END
>  <cnnaffinity>  (1) 
-5.05639

>  <filename>  (1) 
O=C1C=CC(=O)N1c1cncc(-c2cccnc2)n1

$$$$
