
     RDKit          3D

 42 46  0  0  0  0  0  0  0  0999 V2000
    4.9228    1.8577   16.9347 H   0  0  0  0  0  0  0  0  0  0  0  0
    5.3802    1.3158   17.7591 C   0  0  0  0  0  0  0  0  0  0  0  0
    6.5240    0.6703   17.4760 N   0  0  0  0  0  0  0  0  0  0  0  0
    7.1312    0.0184   18.4733 C   0  0  0  0  0  0  0  0  0  0  0  0
    8.0658   -0.4728   18.2009 H   0  0  0  0  0  0  0  0  0  0  0  0
    6.6450   -0.0339   19.7966 C   0  0  0  0  0  0  0  0  0  0  0  0
    7.3980   -0.6374   20.9146 C   0  0  0  0  0  0  0  0  0  0  0  0
    7.5828   -0.1968   22.2146 C   0  0  0  0  0  0  0  0  0  0  0  0
    8.4977   -1.0808   22.7785 C   0  0  0  0  0  0  0  0  0  0  0  0
    8.8582   -2.0530   21.9547 N   0  0  0  0  0  0  0  0  0  0  0  0
    8.1775   -1.7544   20.8223 N   0  0  0  0  0  0  0  0  0  0  0  0
    8.2077   -2.4027   20.0468 H   0  0  0  0  0  0  0  0  0  0  0  0
    8.9489   -0.6556   24.1455 C   0  0  0  0  0  0  0  0  0  0  0  0
    8.9790   -1.4745   24.8650 H   0  0  0  0  0  0  0  0  0  0  0  0
    9.9671   -0.2497   24.0804 H   0  0  0  0  0  0  0  0  0  0  0  0
    7.9506    0.5051   24.4948 C   0  0  2  0  0  0  0  0  0  0  0  0
    8.5501    1.3529   24.8341 H   0  0  0  0  0  0  0  0  0  0  0  0
    7.0070    0.2637   25.6997 C   0  0  0  0  0  0  0  0  0  0  0  0
    7.6129    0.0661   26.5932 H   0  0  0  0  0  0  0  0  0  0  0  0
    6.4316    1.1754   25.8848 H   0  0  0  0  0  0  0  0  0  0  0  0
    6.0423   -0.8140   25.5712 N   0  0  0  0  0  0  0  0  0  0  0  0
    6.3582   -2.1555   25.7147 C   0  0  0  0  0  0  0  0  0  0  0  0
    7.4345   -2.5680   26.0828 O   0  0  0  0  0  0  0  0  0  0  0  0
    5.1223   -2.9295   25.4235 C   0  0  0  0  0  0  0  0  0  0  0  0
    4.9233   -4.2959   25.2327 C   0  0  0  0  0  0  0  0  0  0  0  0
    5.7281   -5.0013   25.4183 H   0  0  0  0  0  0  0  0  0  0  0  0
    3.6564   -4.7157   24.8168 C   0  0  0  0  0  0  0  0  0  0  0  0
    3.4834   -5.7574   24.5665 H   0  0  0  0  0  0  0  0  0  0  0  0
    2.6028   -3.7908   24.6621 C   0  0  0  0  0  0  0  0  0  0  0  0
    1.6198   -4.1308   24.3457 H   0  0  0  0  0  0  0  0  0  0  0  0
    2.8093   -2.4307   24.9096 C   0  0  0  0  0  0  0  0  0  0  0  0
    2.0112   -1.7055   24.7951 H   0  0  0  0  0  0  0  0  0  0  0  0
    4.0854   -2.0156   25.2858 C   0  0  0  0  0  0  0  0  0  0  0  0
    4.6658   -0.6468   25.4296 C   0  0  0  0  0  0  0  0  0  0  0  0
    4.1139    0.4281   25.4102 O   0  0  0  0  0  0  0  0  0  0  0  0
    7.2553    0.9331   23.1511 C   0  0  0  0  0  0  0  0  0  0  0  0
    6.1784    1.1175   23.2522 H   0  0  0  0  0  0  0  0  0  0  0  0
    7.6969    1.8795   22.7975 H   0  0  0  0  0  0  0  0  0  0  0  0
    5.4259    0.6144   20.0516 C   0  0  0  0  0  0  0  0  0  0  0  0
    4.9886    0.5696   21.0477 H   0  0  0  0  0  0  0  0  0  0  0  0
    4.7862    1.3024   19.0231 C   0  0  0  0  0  0  0  0  0  0  0  0
    3.8608    1.8432   19.1885 H   0  0  0  0  0  0  0  0  0  0  0  0
  1  2  1  0
  2  3  2  0
  3  4  1  0
  4  5  1  0
  4  6  2  0
  6  7  1  0
  7  8  2  0
  8  9  1  0
  9 10  2  0
 10 11  1  0
 11 12  1  0
  9 13  1  0
 13 14  1  0
 13 15  1  0
 13 16  1  0
 16 17  1  1
 16 18  1  0
 18 19  1  0
 18 20  1  0
 18 21  1  0
 21 22  1  0
 22 23  2  0
 22 24  1  0
 24 25  2  0
 25 26  1  0
 25 27  1  0
 27 28  1  0
 27 29  2  0
 29 30  1  0
 29 31  1  0
 31 32  1  0
 31 33  2  0
 33 34  1  0
 34 35  2  0
 16 36  1  0
 36 37  1  0
 36 38  1  0
  6 39  1  0
 39 40  1  0
 39 41  2  0
 41 42  1  0
 41  2  1  0
 11  7  1  0
 34 21  1  0
 36  8  1  0
 33 24  1  0
M  END
>  <cnnaffinity>  (1) 
-5.75305

>  <filename>  (1) 
O=C1c2ccccc2C(=O)N1C[C@H]1Cc2n[nH]c(-c3cccnc3)c2C1

$$$$
