
     RDKit          3D

 34 36  0  0  0  0  0  0  0  0999 V2000
    8.1931   -0.9219   26.7232 H   0  0  0  0  0  0  0  0  0  0  0  0
    7.9781   -1.3388   25.7402 C   0  0  0  0  0  0  0  0  0  0  0  0
    8.0218   -0.4832   24.7042 C   0  0  0  0  0  0  0  0  0  0  0  0
    8.0588    0.5814   24.9328 H   0  0  0  0  0  0  0  0  0  0  0  0
    8.0376   -0.7952   23.2691 C   0  0  0  0  0  0  0  0  0  0  0  0
    7.3513   -0.0754   22.3232 C   0  0  0  0  0  0  0  0  0  0  0  0
    6.7870    0.7995   22.5981 H   0  0  0  0  0  0  0  0  0  0  0  0
    7.3706   -0.5359   20.9806 C   0  0  0  0  0  0  0  0  0  0  0  0
    6.6111    0.1500   19.9186 C   0  0  0  0  0  0  0  0  0  0  0  0
    7.1297    0.1101   18.6182 C   0  0  0  0  0  0  0  0  0  0  0  0
    8.0579   -0.4333   18.4341 H   0  0  0  0  0  0  0  0  0  0  0  0
    6.5407    0.7009   17.5764 N   0  0  0  0  0  0  0  0  0  0  0  0
    5.3764    1.3289   17.7989 C   0  0  0  0  0  0  0  0  0  0  0  0
    4.9331    1.8220   16.9388 H   0  0  0  0  0  0  0  0  0  0  0  0
    4.7425    1.3656   19.0449 C   0  0  0  0  0  0  0  0  0  0  0  0
    3.7975    1.8815   19.1586 H   0  0  0  0  0  0  0  0  0  0  0  0
    5.3679    0.7560   20.1286 C   0  0  0  0  0  0  0  0  0  0  0  0
    4.8949    0.7176   21.1119 H   0  0  0  0  0  0  0  0  0  0  0  0
    8.0120   -1.6056   20.5932 N   0  0  0  0  0  0  0  0  0  0  0  0
    8.5357   -2.4115   21.5519 C   0  0  0  0  0  0  0  0  0  0  0  0
    8.8246   -3.5750   21.3973 O   0  0  0  0  0  0  0  0  0  0  0  0
    8.7534   -1.8595   22.8155 N   0  0  0  0  0  0  0  0  0  0  0  0
    9.0654   -2.5862   23.4323 H   0  0  0  0  0  0  0  0  0  0  0  0
    7.6816   -2.7907   25.7236 C   0  0  0  0  0  0  0  0  0  0  0  0
    8.3668   -3.6446   26.6116 C   0  0  0  0  0  0  0  0  0  0  0  0
    9.1163   -3.2348   27.2848 H   0  0  0  0  0  0  0  0  0  0  0  0
    8.1053   -5.0153   26.6182 C   0  0  0  0  0  0  0  0  0  0  0  0
    8.6594   -5.6727   27.2813 H   0  0  0  0  0  0  0  0  0  0  0  0
    7.1400   -5.5493   25.7606 C   0  0  0  0  0  0  0  0  0  0  0  0
    6.9306   -6.6136   25.7841 H   0  0  0  0  0  0  0  0  0  0  0  0
    6.4453   -4.7116   24.8844 C   0  0  0  0  0  0  0  0  0  0  0  0
    5.7076   -5.1217   24.2035 H   0  0  0  0  0  0  0  0  0  0  0  0
    6.7076   -3.3394   24.8693 C   0  0  0  0  0  0  0  0  0  0  0  0
    6.1425   -2.6859   24.2064 H   0  0  0  0  0  0  0  0  0  0  0  0
  1  2  1  0
  2  3  2  3
  3  4  1  0
  3  5  1  0
  5  6  2  0
  6  7  1  0
  6  8  1  0
  8  9  1  0
  9 10  2  0
 10 11  1  0
 10 12  1  0
 12 13  2  0
 13 14  1  0
 13 15  1  0
 15 16  1  0
 15 17  2  0
 17 18  1  0
  8 19  2  0
 19 20  1  0
 20 21  2  0
 20 22  1  0
 22 23  1  0
  2 24  1  0
 24 25  2  0
 25 26  1  0
 25 27  1  0
 27 28  1  0
 27 29  2  0
 29 30  1  0
 29 31  1  0
 31 32  1  0
 31 33  2  0
 33 34  1  0
 22  5  1  0
 33 24  1  0
 17  9  1  0
M  END
>  <cnnaffinity>  (1) 
-5.4104

>  <filename>  (1) 
O=c1nc(-c2cccnc2)cc(C=Cc2ccccc2)[nH]1

$$$$
