
     RDKit          3D

 30 32  0  0  0  0  0  0  0  0999 V2000
    5.0522    1.7406   16.9245 H   0  0  0  0  0  0  0  0  0  0  0  0
    5.5297    1.2671   17.7810 C   0  0  0  0  0  0  0  0  0  0  0  0
    6.7056    0.6630   17.5537 N   0  0  0  0  0  0  0  0  0  0  0  0
    7.3250    0.0868   18.5911 C   0  0  0  0  0  0  0  0  0  0  0  0
    8.2856   -0.3807   18.3799 H   0  0  0  0  0  0  0  0  0  0  0  0
    6.7879    0.0465   19.8855 C   0  0  0  0  0  0  0  0  0  0  0  0
    7.5136   -0.6703   20.9685 C   0  0  0  0  0  0  0  0  0  0  0  0
    8.8194   -0.5659   21.0216 N   0  0  0  0  0  0  0  0  0  0  0  0
    9.4860   -1.1926   22.0570 N   0  0  0  0  0  0  0  0  0  0  0  0
   10.8990   -0.9562   22.1367 C   0  0  0  0  0  0  0  0  0  0  0  0
   11.7653   -2.0548   22.1102 C   0  0  0  0  0  0  0  0  0  0  0  0
   11.3499   -3.0506   22.1748 H   0  0  0  0  0  0  0  0  0  0  0  0
   13.1463   -1.8638   22.0827 C   0  0  0  0  0  0  0  0  0  0  0  0
   13.8072   -2.7157   21.9556 H   0  0  0  0  0  0  0  0  0  0  0  0
   13.6766   -0.5922   22.2813 C   0  0  0  0  0  0  0  0  0  0  0  0
   14.7494   -0.4577   22.3724 H   0  0  0  0  0  0  0  0  0  0  0  0
   12.8247    0.5107   22.3806 C   0  0  0  0  0  0  0  0  0  0  0  0
   13.5142    2.0581   22.7577 Cl  0  0  0  0  0  0  0  0  0  0  0  0
   11.4294    0.3545   22.2165 C   0  0  0  0  0  0  0  0  0  0  0  0
   10.4224    1.7520   22.0984 Cl  0  0  0  0  0  0  0  0  0  0  0  0
    8.8685   -2.0499   23.0333 C   0  0  0  0  0  0  0  0  0  0  0  0
    9.5080   -2.6607   23.8700 O   0  0  0  0  0  0  0  0  0  0  0  0
    7.4153   -2.0919   22.9237 C   0  0  0  0  0  0  0  0  0  0  0  0
    6.9201   -2.6828   23.6831 H   0  0  0  0  0  0  0  0  0  0  0  0
    6.7671   -1.4401   21.9264 C   0  0  0  0  0  0  0  0  0  0  0  0
    5.6912   -1.5035   21.8079 H   0  0  0  0  0  0  0  0  0  0  0  0
    5.5524    0.6761   20.1072 C   0  0  0  0  0  0  0  0  0  0  0  0
    5.0997    0.6877   21.1003 H   0  0  0  0  0  0  0  0  0  0  0  0
    4.9187    1.3035   19.0382 C   0  0  0  0  0  0  0  0  0  0  0  0
    3.9719    1.8131   19.1664 H   0  0  0  0  0  0  0  0  0  0  0  0
  1  2  1  0
  2  3  2  0
  3  4  1  0
  4  5  1  0
  4  6  2  0
  6  7  1  0
  7  8  2  0
  8  9  1  0
  9 10  1  0
 10 11  2  0
 11 12  1  0
 11 13  1  0
 13 14  1  0
 13 15  2  0
 15 16  1  0
 15 17  1  0
 17 18  1  0
 17 19  2  0
 19 20  1  0
  9 21  1  0
 21 22  2  0
 21 23  1  0
 23 24  1  0
 23 25  2  0
 25 26  1  0
  6 27  1  0
 27 28  1  0
 27 29  2  0
 29 30  1  0
 29  2  1  0
 25  7  1  0
 19 10  1  0
M  END
>  <cnnaffinity>  (1) 
-5.81849

>  <filename>  (1) 
O=c1ccc(-c2cccnc2)nn1-c1cccc(Cl)c1Cl

$$$$
