
     RDKit          3D

 21 22  0  0  0  0  0  0  0  0999 V2000
    4.9070    1.7763   17.0011 H   0  0  0  0  0  0  0  0  0  0  0  0
    5.3995    1.2943   17.8417 C   0  0  0  0  0  0  0  0  0  0  0  0
    6.5647    0.6817   17.5778 N   0  0  0  0  0  0  0  0  0  0  0  0
    7.1815    0.0642   18.5908 C   0  0  0  0  0  0  0  0  0  0  0  0
    8.1250   -0.4381   18.3762 H   0  0  0  0  0  0  0  0  0  0  0  0
    6.6730    0.0142   19.9049 C   0  0  0  0  0  0  0  0  0  0  0  0
    7.3570   -0.6872   20.9494 N   0  0  0  0  0  0  0  0  0  0  0  0
    8.6314   -0.4684   21.4565 C   0  0  0  0  0  0  0  0  0  0  0  0
    9.5376    0.6042   20.9747 C   0  0  0  0  0  0  0  0  0  0  0  0
    9.6228    0.6030   19.8878 H   0  0  0  0  0  0  0  0  0  0  0  0
   10.5181    0.4610   21.4233 H   0  0  0  0  0  0  0  0  0  0  0  0
    8.9158    2.2109   21.4551 Cl  0  0  0  0  0  0  0  0  0  0  0  0
    8.9179   -1.2582   22.4456 N   0  0  0  0  0  0  0  0  0  0  0  0
    7.7753   -2.0036   22.6015 N   0  0  0  0  0  0  0  0  0  0  0  0
    7.6591   -2.7006   23.3153 H   0  0  0  0  0  0  0  0  0  0  0  0
    6.7703   -1.7000   21.7329 C   0  0  0  0  0  0  0  0  0  0  0  0
    5.6667   -2.1968   21.6257 O   0  0  0  0  0  0  0  0  0  0  0  0
    5.4497    0.6454   20.1628 C   0  0  0  0  0  0  0  0  0  0  0  0
    5.0180    0.6166   21.1645 H   0  0  0  0  0  0  0  0  0  0  0  0
    4.8104    1.3113   19.1110 C   0  0  0  0  0  0  0  0  0  0  0  0
    3.8751    1.8433   19.2663 H   0  0  0  0  0  0  0  0  0  0  0  0
  1  2  1  0
  2  3  2  0
  3  4  1  0
  4  5  1  0
  4  6  2  0
  6  7  1  0
  7  8  1  0
  8  9  1  0
  9 10  1  0
  9 11  1  0
  9 12  1  0
  8 13  2  0
 13 14  1  0
 14 15  1  0
 14 16  1  0
 16 17  2  0
  6 18  1  0
 18 19  1  0
 18 20  2  0
 20 21  1  0
 20  2  1  0
 16  7  1  0
M  END
>  <cnnaffinity>  (1) 
-4.08943

>  <filename>  (1) 
O=c1[nH]nc(CCl)n1-c1cccnc1

$$$$
