
     RDKit          3D

 29 31  0  0  0  0  0  0  0  0999 V2000
    6.8335    3.2437   25.0603 H   0  0  0  0  0  0  0  0  0  0  0  0
    7.1591    3.0253   24.0415 C   0  0  0  0  0  0  0  0  0  0  0  0
    7.3280    1.7436   23.7460 N   0  0  0  0  0  0  0  0  0  0  0  0
    7.7047    1.4341   22.4924 C   0  0  0  0  0  0  0  0  0  0  0  0
    7.8163   -0.0061   22.2055 C   0  0  0  0  0  0  0  0  0  0  0  0
    8.3748   -0.8572   23.2238 C   0  0  0  0  0  0  0  0  0  0  0  0
    8.6286   -0.4227   24.1919 H   0  0  0  0  0  0  0  0  0  0  0  0
    8.5757   -2.1769   22.9906 C   0  0  0  0  0  0  0  0  0  0  0  0
    8.9882   -2.8582   23.7219 H   0  0  0  0  0  0  0  0  0  0  0  0
    8.2146   -2.7652   21.7119 C   0  0  0  0  0  0  0  0  0  0  0  0
    8.2957   -3.9440   21.4069 O   0  0  0  0  0  0  0  0  0  0  0  0
    7.7243   -1.8717   20.7761 N   0  0  0  0  0  0  0  0  0  0  0  0
    7.3947   -2.3583   19.9585 H   0  0  0  0  0  0  0  0  0  0  0  0
    7.4077   -0.5581   21.0096 C   0  0  0  0  0  0  0  0  0  0  0  0
    6.6411    0.0829   19.9295 C   0  0  0  0  0  0  0  0  0  0  0  0
    7.1472    0.0609   18.6157 C   0  0  0  0  0  0  0  0  0  0  0  0
    8.0878   -0.4487   18.3976 H   0  0  0  0  0  0  0  0  0  0  0  0
    6.5587    0.6522   17.5738 N   0  0  0  0  0  0  0  0  0  0  0  0
    5.3974    1.2890   17.7996 C   0  0  0  0  0  0  0  0  0  0  0  0
    4.9535    1.7923   16.9420 H   0  0  0  0  0  0  0  0  0  0  0  0
    4.7738    1.3245   19.0494 C   0  0  0  0  0  0  0  0  0  0  0  0
    3.8273    1.8427   19.1570 H   0  0  0  0  0  0  0  0  0  0  0  0
    5.3990    0.7096   20.1353 C   0  0  0  0  0  0  0  0  0  0  0  0
    4.9367    0.6971   21.1241 H   0  0  0  0  0  0  0  0  0  0  0  0
    8.0266    2.3202   21.5380 N   0  0  0  0  0  0  0  0  0  0  0  0
    7.9141    3.6037   21.8874 C   0  0  0  0  0  0  0  0  0  0  0  0
    8.1987    4.3696   21.1727 H   0  0  0  0  0  0  0  0  0  0  0  0
    7.4439    4.0238   23.1233 C   0  0  0  0  0  0  0  0  0  0  0  0
    7.3103    5.0684   23.3306 H   0  0  0  0  0  0  0  0  0  0  0  0
  1  2  1  0
  2  3  2  0
  3  4  1  0
  4  5  1  0
  5  6  1  0
  6  7  1  0
  6  8  2  0
  8  9  1  0
  8 10  1  0
 10 11  2  0
 10 12  1  0
 12 13  1  0
 12 14  1  0
 14 15  1  0
 15 16  2  0
 16 17  1  0
 16 18  1  0
 18 19  2  0
 19 20  1  0
 19 21  1  0
 21 22  1  0
 21 23  2  0
 23 24  1  0
  4 25  2  0
 25 26  1  0
 26 27  1  0
 26 28  2  0
 28 29  1  0
 28  2  1  0
 14  5  2  0
 23 15  1  0
M  END
>  <cnnaffinity>  (1) 
-5.20057

>  <filename>  (1) 
O=c1ccc(-c2ncccn2)c(-c2cccnc2)[nH]1

$$$$
