
     RDKit          3D

 26 28  0  0  0  0  0  0  0  0999 V2000
    4.9158    1.7780   16.9968 H   0  0  0  0  0  0  0  0  0  0  0  0
    5.4011    1.2935   17.8371 C   0  0  0  0  0  0  0  0  0  0  0  0
    6.5660    0.6783   17.5769 N   0  0  0  0  0  0  0  0  0  0  0  0
    7.1662    0.0667   18.6017 C   0  0  0  0  0  0  0  0  0  0  0  0
    8.1095   -0.4294   18.3805 H   0  0  0  0  0  0  0  0  0  0  0  0
    6.6390    0.0107   19.9005 C   0  0  0  0  0  0  0  0  0  0  0  0
    7.3873   -0.6938   20.9374 C   0  0  0  0  0  0  0  0  0  0  0  0
    8.7126   -0.9434   21.0111 C   0  0  0  0  0  0  0  0  0  0  0  0
    9.4864   -0.6535   20.3287 H   0  0  0  0  0  0  0  0  0  0  0  0
    8.9966   -1.6593   22.2267 C   0  0  0  0  0  0  0  0  0  0  0  0
   10.0569   -2.0801   22.6640 O   0  0  0  0  0  0  0  0  0  0  0  0
    7.7235   -1.7939   22.8432 N   0  0  0  0  0  0  0  0  0  0  0  0
    7.4278   -2.4364   24.0587 C   0  0  0  0  0  0  0  0  0  0  0  0
    6.2313   -3.0110   24.3872 C   0  0  0  0  0  0  0  0  0  0  0  0
    5.3504   -3.0407   23.7654 H   0  0  0  0  0  0  0  0  0  0  0  0
    6.2594   -3.7149   25.9469 S   0  0  0  0  0  0  0  0  0  0  0  0
    7.9001   -3.2437   26.1722 C   0  0  0  0  0  0  0  0  0  0  0  0
    8.4162   -3.4841   27.0931 H   0  0  0  0  0  0  0  0  0  0  0  0
    8.4033   -2.5800   25.1014 C   0  0  0  0  0  0  0  0  0  0  0  0
    9.4165   -2.1946   25.0185 H   0  0  0  0  0  0  0  0  0  0  0  0
    6.7698   -1.2086   22.0281 N   0  0  0  0  0  0  0  0  0  0  0  0
    5.7914   -1.1915   22.2769 H   0  0  0  0  0  0  0  0  0  0  0  0
    5.4217    0.6570   20.1543 C   0  0  0  0  0  0  0  0  0  0  0  0
    4.9970    0.6458   21.1632 H   0  0  0  0  0  0  0  0  0  0  0  0
    4.7984    1.3168   19.1019 C   0  0  0  0  0  0  0  0  0  0  0  0
    3.8676    1.8486   19.2587 H   0  0  0  0  0  0  0  0  0  0  0  0
  1  2  1  0
  2  3  2  0
  3  4  1  0
  4  5  1  0
  4  6  2  0
  6  7  1  0
  7  8  2  0
  8  9  1  0
  8 10  1  0
 10 11  2  0
 10 12  1  0
 12 13  1  0
 13 14  2  0
 14 15  1  0
 14 16  1  0
 16 17  1  0
 17 18  1  0
 17 19  2  0
 19 20  1  0
 12 21  1  0
 21 22  1  0
  6 23  1  0
 23 24  1  0
 23 25  2  0
 25 26  1  0
 25  2  1  0
 21  7  1  0
 19 13  1  0
M  END
>  <cnnaffinity>  (1) 
-4.99639

>  <filename>  (1) 
O=c1cc(-c2cccnc2)[nH]n1-c1ccsc1

$$$$
