
     RDKit          3D

 35 37  0  0  0  0  0  0  0  0999 V2000
    5.4152   -2.1026   21.1917 O   0  0  0  0  0  0  0  0  0  0  0  0
    6.4706   -1.6131   21.5438 C   0  0  0  0  0  0  0  0  0  0  0  0
    7.0572   -1.9918   22.9248 C   0  0  0  0  0  0  0  0  0  0  0  0
    8.4869   -1.7316   23.1466 N   0  0  0  0  0  0  0  0  0  0  0  0
    9.2858   -2.6788   23.7223 C   0  0  0  0  0  0  0  0  0  0  0  0
    8.6871   -3.4793   24.5973 N   0  0  0  0  0  0  0  0  0  0  0  0
    9.4352   -4.4137   25.1823 C   0  0  0  0  0  0  0  0  0  0  0  0
    8.7540   -5.3153   26.2817 C   0  0  0  0  0  0  0  0  0  0  0  0
    9.2333   -5.0389   27.5099 F   0  0  0  0  0  0  0  0  0  0  0  0
    8.9680   -6.6242   26.0628 F   0  0  0  0  0  0  0  0  0  0  0  0
    7.4238   -5.1398   26.3341 F   0  0  0  0  0  0  0  0  0  0  0  0
   10.7308   -4.6151   24.9343 N   0  0  0  0  0  0  0  0  0  0  0  0
   11.3023   -3.8131   24.0344 C   0  0  0  0  0  0  0  0  0  0  0  0
   10.6257   -2.8227   23.3661 C   0  0  0  0  0  0  0  0  0  0  0  0
   11.0740   -2.2478   22.5761 H   0  0  0  0  0  0  0  0  0  0  0  0
   12.3580   -3.9741   23.8450 H   0  0  0  0  0  0  0  0  0  0  0  0
    8.9665   -0.5095   22.5194 C   0  0  0  0  0  0  0  0  0  0  0  0
    8.6585   -0.5291   21.0147 C   0  0  0  0  0  0  0  0  0  0  0  0
    7.2001   -0.6850   20.7836 N   0  0  0  0  0  0  0  0  0  0  0  0
    6.5622    0.0252   19.7072 C   0  0  0  0  0  0  0  0  0  0  0  0
    5.3276    0.6652   19.9166 C   0  0  0  0  0  0  0  0  0  0  0  0
    4.7635    1.3994   18.8656 C   0  0  0  0  0  0  0  0  0  0  0  0
    5.4254    1.4491   17.6333 C   0  0  0  0  0  0  0  0  0  0  0  0
    6.5897    0.8220   17.3992 N   0  0  0  0  0  0  0  0  0  0  0  0
    7.1375    0.1453   18.4192 C   0  0  0  0  0  0  0  0  0  0  0  0
    8.0836   -0.3478   18.2071 H   0  0  0  0  0  0  0  0  0  0  0  0
    4.9959    1.9954   16.7952 H   0  0  0  0  0  0  0  0  0  0  0  0
    3.8217    1.9290   18.9905 H   0  0  0  0  0  0  0  0  0  0  0  0
    4.8268    0.5852   20.8817 H   0  0  0  0  0  0  0  0  0  0  0  0
    8.9769    0.4248   20.5837 H   0  0  0  0  0  0  0  0  0  0  0  0
    9.2152   -1.3423   20.5175 H   0  0  0  0  0  0  0  0  0  0  0  0
    8.4399    0.3511   22.9584 H   0  0  0  0  0  0  0  0  0  0  0  0
   10.0341   -0.3692   22.7103 H   0  0  0  0  0  0  0  0  0  0  0  0
    6.8364   -3.0536   23.0656 H   0  0  0  0  0  0  0  0  0  0  0  0
    6.4382   -1.4534   23.6568 H   0  0  0  0  0  0  0  0  0  0  0  0
  1  2  2  0
  2  3  1  0
  3  4  1  0
  4  5  1  0
  5  6  2  0
  6  7  1  0
  7  8  1  0
  8  9  1  0
  8 10  1  0
  8 11  1  0
  7 12  2  0
 12 13  1  0
 13 14  2  0
 14 15  1  0
 13 16  1  0
  4 17  1  0
 17 18  1  0
 18 19  1  0
 19 20  1  0
 20 21  2  0
 21 22  1  0
 22 23  2  0
 23 24  1  0
 24 25  2  0
 25 26  1  0
 23 27  1  0
 22 28  1  0
 21 29  1  0
 18 30  1  0
 18 31  1  0
 17 32  1  0
 17 33  1  0
  3 34  1  0
  3 35  1  0
 19  2  1  0
 25 20  1  0
 14  5  1  0
M  END
>  <cnnaffinity>  (1) 
-5.70071

>  <filename>  (1) 
O=C1CN(c2ccnc(C(F)(F)F)n2)CCN1c1cccnc1

$$$$
