
     RDKit          3D

 33 35  0  0  0  0  0  0  0  0999 V2000
    9.9008    0.0771   23.6576 H   0  0  0  0  0  0  0  0  0  0  0  0
    9.9253    0.8789   24.2003 O   0  0  0  0  0  0  0  0  0  0  0  0
    8.9112    0.8076   25.0935 C   0  0  0  0  0  0  0  0  0  0  0  0
    8.7482    1.9100   25.9457 C   0  0  0  0  0  0  0  0  0  0  0  0
    9.3977    2.7663   25.7926 H   0  0  0  0  0  0  0  0  0  0  0  0
    7.7659    1.8811   26.9383 C   0  0  0  0  0  0  0  0  0  0  0  0
    7.5161    3.2755   27.9488 Cl  0  0  0  0  0  0  0  0  0  0  0  0
    6.9626    0.7499   27.1303 C   0  0  0  0  0  0  0  0  0  0  0  0
    6.2207    0.7352   27.9265 H   0  0  0  0  0  0  0  0  0  0  0  0
    7.1105   -0.3346   26.2598 C   0  0  0  0  0  0  0  0  0  0  0  0
    6.5003   -1.2324   26.3258 H   0  0  0  0  0  0  0  0  0  0  0  0
    8.0205   -0.2845   25.2038 C   0  0  0  0  0  0  0  0  0  0  0  0
    7.9685   -1.3695   24.3324 O   0  0  0  0  0  0  0  0  0  0  0  0
    8.2844   -1.0890   22.9869 N   0  0  0  0  0  0  0  0  0  0  0  0
    7.3619   -0.2452   22.3191 C   0  0  0  0  0  0  0  0  0  0  0  0
    6.7776    0.6973   22.8036 O   0  0  0  0  0  0  0  0  0  0  0  0
    7.3455   -0.6714   21.0007 N   0  0  0  0  0  0  0  0  0  0  0  0
    6.6749   -0.0106   19.9456 C   0  0  0  0  0  0  0  0  0  0  0  0
    7.1847    0.0201   18.6242 C   0  0  0  0  0  0  0  0  0  0  0  0
    8.1329   -0.4655   18.3976 H   0  0  0  0  0  0  0  0  0  0  0  0
    6.5815    0.6414   17.6035 N   0  0  0  0  0  0  0  0  0  0  0  0
    5.4217    1.2712   17.8534 C   0  0  0  0  0  0  0  0  0  0  0  0
    4.9588    1.7797   17.0106 H   0  0  0  0  0  0  0  0  0  0  0  0
    4.8216    1.2875   19.1176 C   0  0  0  0  0  0  0  0  0  0  0  0
    3.8865    1.8226   19.2645 H   0  0  0  0  0  0  0  0  0  0  0  0
    5.4537    0.6450   20.1848 C   0  0  0  0  0  0  0  0  0  0  0  0
    5.0402    0.6574   21.1912 H   0  0  0  0  0  0  0  0  0  0  0  0
    8.0588   -1.9264   20.8146 C   0  0  0  0  0  0  0  0  0  0  0  0
    8.9295   -1.7765   20.1639 H   0  0  0  0  0  0  0  0  0  0  0  0
    7.3829   -2.6574   20.3604 H   0  0  0  0  0  0  0  0  0  0  0  0
    8.4677   -2.3352   22.2350 C   0  0  0  0  0  0  0  0  0  0  0  0
    9.5079   -2.6684   22.2927 H   0  0  0  0  0  0  0  0  0  0  0  0
    7.8255   -3.1299   22.6356 H   0  0  0  0  0  0  0  0  0  0  0  0
  1  2  1  0
  2  3  1  0
  3  4  2  0
  4  5  1  0
  4  6  1  0
  6  7  1  0
  6  8  2  0
  8  9  1  0
  8 10  1  0
 10 11  1  0
 10 12  2  0
 12 13  1  0
 13 14  1  0
 14 15  1  0
 15 16  2  0
 15 17  1  0
 17 18  1  0
 18 19  2  0
 19 20  1  0
 19 21  1  0
 21 22  2  0
 22 23  1  0
 22 24  1  0
 24 25  1  0
 24 26  2  0
 26 27  1  0
 17 28  1  0
 28 29  1  0
 28 30  1  0
 28 31  1  0
 31 32  1  0
 31 33  1  0
 12  3  1  0
 31 14  1  0
 26 18  1  0
M  END
>  <cnnaffinity>  (1) 
-5.11146

>  <filename>  (1) 
O=C1N(Oc2ccc(Cl)cc2O)CCN1c1cccnc1

$$$$
