
     RDKit          3D

 37 40  0  0  0  0  0  0  0  0999 V2000
    6.5483   -2.4880   19.8216 H   0  0  0  0  0  0  0  0  0  0  0  0
    6.6669   -2.2028   20.8684 C   0  0  0  0  0  0  0  0  0  0  0  0
    6.2761   -3.1139   21.7760 C   0  0  0  0  0  0  0  0  0  0  0  0
    6.4024   -3.1284   23.5436 S   0  0  0  0  0  0  0  0  0  0  0  0
    5.9771   -4.8346   23.6750 C   0  0  0  0  0  0  0  0  0  0  0  0
    6.0623   -5.7884   24.9898 S   0  0  0  0  0  0  0  0  0  0  0  0
    5.5725   -5.2569   22.4500 N   0  0  0  0  0  0  0  0  0  0  0  0
    5.2541   -6.1927   22.2683 H   0  0  0  0  0  0  0  0  0  0  0  0
    5.7463   -4.4511   21.3505 C   0  0  0  0  0  0  0  0  0  0  0  0
    5.5071   -4.8545   20.2356 O   0  0  0  0  0  0  0  0  0  0  0  0
    7.3181   -0.8310   20.9989 C   0  0  1  0  0  0  0  0  0  0  0  0
    6.6532    0.0166   19.8955 C   0  0  0  0  0  0  0  0  0  0  0  0
    7.1479    0.0599   18.5772 C   0  0  0  0  0  0  0  0  0  0  0  0
    8.1009   -0.4023   18.3198 H   0  0  0  0  0  0  0  0  0  0  0  0
    6.5381    0.6724   17.5499 N   0  0  0  0  0  0  0  0  0  0  0  0
    5.3854    1.3043   17.8097 C   0  0  0  0  0  0  0  0  0  0  0  0
    4.9233    1.8132   16.9669 H   0  0  0  0  0  0  0  0  0  0  0  0
    4.7911    1.3237   19.0769 C   0  0  0  0  0  0  0  0  0  0  0  0
    3.8620    1.8612   19.2305 H   0  0  0  0  0  0  0  0  0  0  0  0
    5.4264    0.6611   20.1280 C   0  0  0  0  0  0  0  0  0  0  0  0
    4.9838    0.6376   21.1256 H   0  0  0  0  0  0  0  0  0  0  0  0
    7.2459   -0.1660   22.4203 C   0  0  0  0  0  0  0  0  0  0  0  0
    6.5474   -0.6779   23.0808 H   0  0  0  0  0  0  0  0  0  0  0  0
    6.9144    0.8739   22.3124 H   0  0  0  0  0  0  0  0  0  0  0  0
    8.6969   -0.1850   22.9676 C   0  0  2  0  0  0  0  0  0  0  0  0
    8.7564   -0.1506   24.0616 H   0  0  0  0  0  0  0  0  0  0  0  0
    9.4617    0.9532   22.2506 C   0  0  0  0  0  0  0  0  0  0  0  0
    8.9479    1.9213   22.3053 H   0  0  0  0  0  0  0  0  0  0  0  0
   10.4584    1.1035   22.6825 H   0  0  0  0  0  0  0  0  0  0  0  0
    9.5934    0.3795   20.8143 C   0  0  0  0  0  0  0  0  0  0  0  0
   10.6504    0.1871   20.6386 H   0  0  0  0  0  0  0  0  0  0  0  0
    9.1836    1.0216   20.0324 H   0  0  0  0  0  0  0  0  0  0  0  0
    8.8763   -0.9839   20.8721 C   0  0  1  0  0  0  0  0  0  0  0  0
    9.1560   -1.6538   20.0517 H   0  0  0  0  0  0  0  0  0  0  0  0
    9.2947   -1.4336   22.2814 C   0  0  0  0  0  0  0  0  0  0  0  0
   10.3852   -1.5172   22.3847 H   0  0  0  0  0  0  0  0  0  0  0  0
    8.8500   -2.3844   22.5907 H   0  0  0  0  0  0  0  0  0  0  0  0
  1  2  1  0
  2  3  2  3
  3  4  1  0
  4  5  1  0
  5  6  2  0
  5  7  1  0
  7  8  1  0
  7  9  1  0
  9 10  2  0
 11  2  1  1
 11 12  1  0
 12 13  2  0
 13 14  1  0
 13 15  1  0
 15 16  2  0
 16 17  1  0
 16 18  1  0
 18 19  1  0
 18 20  2  0
 20 21  1  0
 11 22  1  0
 22 23  1  0
 22 24  1  0
 22 25  1  0
 25 26  1  1
 25 27  1  0
 27 28  1  0
 27 29  1  0
 27 30  1  0
 30 31  1  0
 30 32  1  0
 30 33  1  0
 33 34  1  6
 33 35  1  0
 35 36  1  0
 35 37  1  0
  9  3  1  0
 33 11  1  0
 20 12  1  0
 35 25  1  0
M  END
>  <cnnaffinity>  (1) 
-5.55998

>  <filename>  (1) 
O=C1NC(=S)SC1=C[C@@]1(c2cccnc2)C[C@@H]2CC[C@H]1C2

$$$$
