
     RDKit          3D

 33 35  0  0  0  0  0  0  0  0999 V2000
    4.9900    1.8239   16.9840 H   0  0  0  0  0  0  0  0  0  0  0  0
    5.4385    1.3011   17.8255 C   0  0  0  0  0  0  0  0  0  0  0  0
    6.5912    0.6614   17.5763 N   0  0  0  0  0  0  0  0  0  0  0  0
    7.1660    0.0283   18.6010 C   0  0  0  0  0  0  0  0  0  0  0  0
    8.1054   -0.4814   18.3863 H   0  0  0  0  0  0  0  0  0  0  0  0
    6.6391   -0.0178   19.8983 C   0  0  0  0  0  0  0  0  0  0  0  0
    7.3616   -0.7469   20.9436 C   0  0  0  0  0  0  0  0  0  0  0  0
    6.6498   -1.2956   21.8810 N   0  0  0  0  0  0  0  0  0  0  0  0
    7.2980   -1.9500   22.8708 N   0  0  0  0  0  0  0  0  0  0  0  0
    6.3737   -2.5185   23.7254 O   0  0  0  0  0  0  0  0  0  0  0  0
    6.6899   -3.7764   24.2175 C   0  0  0  0  0  0  0  0  0  0  0  0
    7.5962   -4.6538   23.5989 C   0  0  0  0  0  0  0  0  0  0  0  0
    7.9822   -4.4029   22.6136 H   0  0  0  0  0  0  0  0  0  0  0  0
    8.0032   -5.7919   24.3011 C   0  0  0  0  0  0  0  0  0  0  0  0
    8.7764   -6.4335   23.8778 H   0  0  0  0  0  0  0  0  0  0  0  0
    7.4367   -6.1053   25.5468 C   0  0  0  0  0  0  0  0  0  0  0  0
    7.7553   -6.9677   26.1229 H   0  0  0  0  0  0  0  0  0  0  0  0
    6.4180   -5.2889   26.0501 C   0  0  0  0  0  0  0  0  0  0  0  0
    5.6065   -5.7043   27.5278 Cl  0  0  0  0  0  0  0  0  0  0  0  0
    6.0338   -4.1211   25.4012 C   0  0  0  0  0  0  0  0  0  0  0  0
    5.2878   -3.4550   25.8224 H   0  0  0  0  0  0  0  0  0  0  0  0
    8.6364   -1.7726   23.3258 C   0  0  0  0  0  0  0  0  0  0  0  0
    9.0927   -2.2454   24.3407 O   0  0  0  0  0  0  0  0  0  0  0  0
    9.4340   -0.9143   22.3646 C   0  0  0  0  0  0  0  0  0  0  0  0
    9.4431    0.0922   22.8052 H   0  0  0  0  0  0  0  0  0  0  0  0
   10.4570   -1.2929   22.3915 H   0  0  0  0  0  0  0  0  0  0  0  0
    8.8669   -0.9053   20.9343 C   0  0  0  0  0  0  0  0  0  0  0  0
    9.1106   -1.8516   20.4265 H   0  0  0  0  0  0  0  0  0  0  0  0
    9.3466   -0.1085   20.3539 H   0  0  0  0  0  0  0  0  0  0  0  0
    5.4098    0.6281   20.1375 C   0  0  0  0  0  0  0  0  0  0  0  0
    4.9439    0.5908   21.1257 H   0  0  0  0  0  0  0  0  0  0  0  0
    4.8132    1.3092   19.0794 C   0  0  0  0  0  0  0  0  0  0  0  0
    3.8816    1.8507   19.2116 H   0  0  0  0  0  0  0  0  0  0  0  0
  1  2  1  0
  2  3  2  0
  3  4  1  0
  4  5  1  0
  4  6  2  0
  6  7  1  0
  7  8  2  0
  8  9  1  0
  9 10  1  0
 10 11  1  0
 11 12  2  0
 12 13  1  0
 12 14  1  0
 14 15  1  0
 14 16  2  0
 16 17  1  0
 16 18  1  0
 18 19  1  0
 18 20  2  0
 20 21  1  0
  9 22  1  0
 22 23  2  0
 22 24  1  0
 24 25  1  0
 24 26  1  0
 24 27  1  0
 27 28  1  0
 27 29  1  0
  6 30  1  0
 30 31  1  0
 30 32  2  0
 32 33  1  0
 32  2  1  0
 27  7  1  0
 20 11  1  0
M  END
>  <cnnaffinity>  (1) 
-5.25684

>  <filename>  (1) 
O=C1CCC(c2cccnc2)=NN1Oc1cccc(Cl)c1

$$$$
