
     RDKit          3D

 26 27  0  0  0  0  0  0  0  0999 V2000
    9.5081    0.7168   20.2539 H   0  0  0  0  0  0  0  0  0  0  0  0
    9.3041    0.9642   21.2923 C   0  0  0  0  0  0  0  0  0  0  0  0
   10.1151    1.8465   21.9138 C   0  0  0  0  0  0  0  0  0  0  0  0
   10.0088    2.4361   23.5779 S   0  0  0  0  0  0  0  0  0  0  0  0
   11.3977    3.5093   23.3622 C   0  0  0  0  0  0  0  0  0  0  0  0
   11.8724    4.6868   24.3769 S   0  0  0  0  0  0  0  0  0  0  0  0
   11.9852    3.2558   22.1631 N   0  0  0  0  0  0  0  0  0  0  0  0
   12.6983    3.8630   21.7848 H   0  0  0  0  0  0  0  0  0  0  0  0
   11.2652    2.5344   21.2394 C   0  0  0  0  0  0  0  0  0  0  0  0
   11.5646    2.5289   20.0765 O   0  0  0  0  0  0  0  0  0  0  0  0
    8.1672    0.2176   21.9379 C   0  0  0  0  0  0  0  0  0  0  0  0
    7.3133    1.1116   22.5319 F   0  0  0  0  0  0  0  0  0  0  0  0
    8.6685   -0.5611   22.9484 F   0  0  0  0  0  0  0  0  0  0  0  0
    7.3673   -0.7174   21.0009 C   0  0  0  0  0  0  0  0  0  0  0  0
    8.0634   -1.4802   20.6324 H   0  0  0  0  0  0  0  0  0  0  0  0
    6.6545   -1.2330   21.6546 H   0  0  0  0  0  0  0  0  0  0  0  0
    6.6370   -0.0326   19.8560 C   0  0  0  0  0  0  0  0  0  0  0  0
    7.1348    0.0122   18.5393 C   0  0  0  0  0  0  0  0  0  0  0  0
    8.0754   -0.4872   18.2915 H   0  0  0  0  0  0  0  0  0  0  0  0
    6.5396    0.6542   17.5247 N   0  0  0  0  0  0  0  0  0  0  0  0
    5.3943    1.2966   17.7941 C   0  0  0  0  0  0  0  0  0  0  0  0
    4.9401    1.8385   16.9668 H   0  0  0  0  0  0  0  0  0  0  0  0
    4.7973    1.3088   19.0574 C   0  0  0  0  0  0  0  0  0  0  0  0
    3.8741    1.8558   19.2109 H   0  0  0  0  0  0  0  0  0  0  0  0
    5.4329    0.6404   20.1065 C   0  0  0  0  0  0  0  0  0  0  0  0
    5.0165    0.6680   21.1151 H   0  0  0  0  0  0  0  0  0  0  0  0
  1  2  1  0
  2  3  2  3
  3  4  1  0
  4  5  1  0
  5  6  2  0
  5  7  1  0
  7  8  1  0
  7  9  1  0
  9 10  2  0
  2 11  1  0
 11 12  1  0
 11 13  1  0
 11 14  1  0
 14 15  1  0
 14 16  1  0
 14 17  1  0
 17 18  2  0
 18 19  1  0
 18 20  1  0
 20 21  2  0
 21 22  1  0
 21 23  1  0
 23 24  1  0
 23 25  2  0
 25 26  1  0
  9  3  1  0
 25 17  1  0
M  END
>  <cnnaffinity>  (1) 
-5.05271

>  <filename>  (1) 
O=C1NC(=S)SC1=CC(F)(F)Cc1cccnc1

$$$$
