
     RDKit          3D

 29 31  0  0  0  0  0  0  0  0999 V2000
    5.3670   -2.3052   23.7216 H   0  0  0  0  0  0  0  0  0  0  0  0
    6.3062   -2.8208   23.5774 C   0  0  0  0  0  0  0  0  0  0  0  0
    6.4151   -4.0425   24.1008 C   0  0  0  0  0  0  0  0  0  0  0  0
    5.3568   -4.7020   25.3454 S   0  0  0  0  0  0  0  0  0  0  0  0
    6.4760   -6.0837   25.5661 C   0  0  0  0  0  0  0  0  0  0  0  0
    6.3516   -6.9750   26.3509 O   0  0  0  0  0  0  0  0  0  0  0  0
    7.5207   -5.9831   24.6815 N   0  0  0  0  0  0  0  0  0  0  0  0
    8.0735   -6.8064   24.5331 H   0  0  0  0  0  0  0  0  0  0  0  0
    7.4550   -5.0320   23.7102 C   0  0  0  0  0  0  0  0  0  0  0  0
    8.1267   -5.0453   22.7092 O   0  0  0  0  0  0  0  0  0  0  0  0
    7.2594   -2.0589   22.7729 C   0  0  0  0  0  0  0  0  0  0  0  0
    6.6542   -1.2644   21.8203 N   0  0  0  0  0  0  0  0  0  0  0  0
    7.3789   -0.5766   20.9703 C   0  0  0  0  0  0  0  0  0  0  0  0
    6.6437    0.0825   19.8794 C   0  0  0  0  0  0  0  0  0  0  0  0
    7.1404    0.0753   18.5679 C   0  0  0  0  0  0  0  0  0  0  0  0
    8.0802   -0.4294   18.3521 H   0  0  0  0  0  0  0  0  0  0  0  0
    6.5326    0.6679   17.5359 N   0  0  0  0  0  0  0  0  0  0  0  0
    5.3835    1.3097   17.7845 C   0  0  0  0  0  0  0  0  0  0  0  0
    4.9281    1.8300   16.9439 H   0  0  0  0  0  0  0  0  0  0  0  0
    4.7746    1.3364   19.0445 C   0  0  0  0  0  0  0  0  0  0  0  0
    3.8419    1.8701   19.1819 H   0  0  0  0  0  0  0  0  0  0  0  0
    5.3959    0.6860   20.1061 C   0  0  0  0  0  0  0  0  0  0  0  0
    4.9262    0.6315   21.0904 H   0  0  0  0  0  0  0  0  0  0  0  0
    8.8920   -0.4706   21.1312 C   0  0  0  0  0  0  0  0  0  0  0  0
    9.7021    0.1835   20.5006 O   0  0  0  0  0  0  0  0  0  0  0  0
    9.3839   -1.2440   22.1827 N   0  0  0  0  0  0  0  0  0  0  0  0
   10.3846   -1.1110   22.2891 H   0  0  0  0  0  0  0  0  0  0  0  0
    8.6221   -2.0476   22.9791 C   0  0  0  0  0  0  0  0  0  0  0  0
    9.1044   -2.6309   23.7543 H   0  0  0  0  0  0  0  0  0  0  0  0
  1  2  1  0
  2  3  2  3
  3  4  1  0
  4  5  1  0
  5  6  2  0
  5  7  1  0
  7  8  1  0
  7  9  1  0
  9 10  2  0
  2 11  1  0
 11 12  1  0
 12 13  2  0
 13 14  1  0
 14 15  2  0
 15 16  1  0
 15 17  1  0
 17 18  2  0
 18 19  1  0
 18 20  1  0
 20 21  1  0
 20 22  2  0
 22 23  1  0
 13 24  1  0
 24 25  2  0
 24 26  1  0
 26 27  1  0
 26 28  1  0
 28 29  1  0
  9  3  1  0
 28 11  2  0
 22 14  1  0
M  END
>  <cnnaffinity>  (1) 
-5.422

>  <filename>  (1) 
O=C1NC(=O)C(=Cc2c[nH]c(=O)c(-c3cccnc3)n2)S1

$$$$
