
     RDKit          3D

 30 32  0  0  0  0  0  0  0  0999 V2000
   12.0246   -5.0571   25.2013 H   0  0  0  0  0  0  0  0  0  0  0  0
   11.0097   -4.6766   25.1250 C   0  0  0  0  0  0  0  0  0  0  0  0
   10.7234   -4.0378   23.9926 N   0  0  0  0  0  0  0  0  0  0  0  0
    9.4730   -3.5895   23.8381 C   0  0  0  0  0  0  0  0  0  0  0  0
    9.3451   -3.0736   22.5670 N   0  0  0  0  0  0  0  0  0  0  0  0
   10.2890   -3.1492   22.2051 H   0  0  0  0  0  0  0  0  0  0  0  0
    8.5883   -1.9952   22.1853 C   0  0  0  0  0  0  0  0  0  0  0  0
    8.1339   -1.6334   20.9777 C   0  0  0  0  0  0  0  0  0  0  0  0
    8.2306   -2.1326   20.0476 H   0  0  0  0  0  0  0  0  0  0  0  0
    7.3707   -0.4739   21.1233 N   0  0  0  0  0  0  0  0  0  0  0  0
    6.6695    0.1365   20.0492 C   0  0  0  0  0  0  0  0  0  0  0  0
    7.1991    0.0917   18.7388 C   0  0  0  0  0  0  0  0  0  0  0  0
    8.1501   -0.4061   18.5622 H   0  0  0  0  0  0  0  0  0  0  0  0
    6.6157    0.6478   17.6751 N   0  0  0  0  0  0  0  0  0  0  0  0
    5.4395    1.2653   17.8763 C   0  0  0  0  0  0  0  0  0  0  0  0
    4.9737    1.7010   16.9974 H   0  0  0  0  0  0  0  0  0  0  0  0
    4.8106    1.3387   19.1261 C   0  0  0  0  0  0  0  0  0  0  0  0
    3.8510    1.8389   19.2166 H   0  0  0  0  0  0  0  0  0  0  0  0
    5.4349    0.7716   20.2431 C   0  0  0  0  0  0  0  0  0  0  0  0
    5.0062    0.8198   21.2450 H   0  0  0  0  0  0  0  0  0  0  0  0
    7.3926   -0.0973   22.4788 C   0  0  0  0  0  0  0  0  0  0  0  0
    6.9098    0.8645   23.0326 O   0  0  0  0  0  0  0  0  0  0  0  0
    8.1282   -1.0823   23.0930 N   0  0  0  0  0  0  0  0  0  0  0  0
    8.4759   -0.9422   24.0198 H   0  0  0  0  0  0  0  0  0  0  0  0
    8.4641   -3.7201   24.8022 C   0  0  0  0  0  0  0  0  0  0  0  0
    7.4818   -3.3083   24.5997 H   0  0  0  0  0  0  0  0  0  0  0  0
    8.7916   -4.3781   25.9902 C   0  0  0  0  0  0  0  0  0  0  0  0
    8.0474   -4.4601   26.7837 H   0  0  0  0  0  0  0  0  0  0  0  0
   10.0912   -4.8683   26.1587 C   0  0  0  0  0  0  0  0  0  0  0  0
   10.3926   -5.3889   27.0590 H   0  0  0  0  0  0  0  0  0  0  0  0
  1  2  1  0
  2  3  2  0
  3  4  1  0
  4  5  1  0
  5  6  1  0
  5  7  1  0
  7  8  2  0
  8  9  1  0
  8 10  1  0
 10 11  1  0
 11 12  2  0
 12 13  1  0
 12 14  1  0
 14 15  2  0
 15 16  1  0
 15 17  1  0
 17 18  1  0
 17 19  2  0
 19 20  1  0
 10 21  1  0
 21 22  2  0
 21 23  1  0
 23 24  1  0
  4 25  2  0
 25 26  1  0
 25 27  1  0
 27 28  1  0
 27 29  2  0
 29 30  1  0
 29  2  1  0
 23  7  1  0
 19 11  1  0
M  END
>  <cnnaffinity>  (1) 
-5.24046

>  <filename>  (1) 
O=c1[nH]c(Nc2ccccn2)cn1-c1cccnc1

$$$$
