
     RDKit          3D

 32 34  0  0  0  0  0  0  0  0999 V2000
    4.9535    1.8285   16.9568 H   0  0  0  0  0  0  0  0  0  0  0  0
    5.4025    1.3075   17.8005 C   0  0  0  0  0  0  0  0  0  0  0  0
    6.5630    0.6781   17.5602 N   0  0  0  0  0  0  0  0  0  0  0  0
    7.1459    0.0554   18.5939 C   0  0  0  0  0  0  0  0  0  0  0  0
    8.1010   -0.4234   18.3685 H   0  0  0  0  0  0  0  0  0  0  0  0
    6.6240    0.0098   19.9043 C   0  0  0  0  0  0  0  0  0  0  0  0
    7.3428   -0.6680   20.9943 C   0  0  0  0  0  0  0  0  0  0  0  0
    7.5084   -0.2633   22.2810 C   0  0  0  0  0  0  0  0  0  0  0  0
    7.2322    1.0277   22.7958 N   0  0  0  0  0  0  0  0  0  0  0  0
    6.6940    1.1303   23.6413 H   0  0  0  0  0  0  0  0  0  0  0  0
    7.4379    2.2126   22.1031 C   0  0  0  0  0  0  0  0  0  0  0  0
    8.1217    2.2781   21.1018 O   0  0  0  0  0  0  0  0  0  0  0  0
    6.7188    3.4397   22.6903 C   0  0  0  0  0  0  0  0  0  0  0  0
    6.3766    4.5176   21.8442 C   0  0  0  0  0  0  0  0  0  0  0  0
    6.4970    4.4542   20.7745 H   0  0  0  0  0  0  0  0  0  0  0  0
    5.8207    5.6882   22.3684 C   0  0  0  0  0  0  0  0  0  0  0  0
    5.6046    6.5342   21.7191 H   0  0  0  0  0  0  0  0  0  0  0  0
    5.5211    5.8483   23.6639 N   0  0  0  0  0  0  0  0  0  0  0  0
    5.7945    4.8127   24.4647 C   0  0  0  0  0  0  0  0  0  0  0  0
    5.5220    4.9222   25.5084 H   0  0  0  0  0  0  0  0  0  0  0  0
    6.3841    3.6121   24.0487 C   0  0  0  0  0  0  0  0  0  0  0  0
    6.5675    2.8611   24.8153 H   0  0  0  0  0  0  0  0  0  0  0  0
    8.1167   -1.4061   23.0660 C   0  0  0  0  0  0  0  0  0  0  0  0
    8.3836   -1.5177   24.2313 O   0  0  0  0  0  0  0  0  0  0  0  0
    8.3590   -2.4072   22.1763 O   0  0  0  0  0  0  0  0  0  0  0  0
    7.9773   -2.0259   20.8630 C   0  0  0  0  0  0  0  0  0  0  0  0
    8.8782   -2.0173   20.2336 H   0  0  0  0  0  0  0  0  0  0  0  0
    7.2890   -2.7864   20.4730 H   0  0  0  0  0  0  0  0  0  0  0  0
    5.3899    0.6570   20.1128 C   0  0  0  0  0  0  0  0  0  0  0  0
    4.9385    0.6636   21.1040 H   0  0  0  0  0  0  0  0  0  0  0  0
    4.7776    1.3157   19.0492 C   0  0  0  0  0  0  0  0  0  0  0  0
    3.8433    1.8467   19.1762 H   0  0  0  0  0  0  0  0  0  0  0  0
  1  2  1  0
  2  3  2  0
  3  4  1  0
  4  5  1  0
  4  6  2  0
  6  7  1  0
  7  8  2  0
  8  9  1  0
  9 10  1  0
  9 11  1  0
 11 12  2  0
 11 13  1  0
 13 14  2  0
 14 15  1  0
 14 16  1  0
 16 17  1  0
 16 18  2  0
 18 19  1  0
 19 20  1  0
 19 21  2  0
 21 22  1  0
  8 23  1  0
 23 24  2  0
 23 25  1  0
 25 26  1  0
 26 27  1  0
 26 28  1  0
  6 29  1  0
 29 30  1  0
 29 31  2  0
 31 32  1  0
 31  2  1  0
 26  7  1  0
 21 13  1  0
M  END
>  <cnnaffinity>  (1) 
-4.48151

>  <filename>  (1) 
O=C1OCC(c2cccnc2)=C1NC(=O)c1ccncc1

$$$$
