
     RDKit          3D

 26 27  0  0  0  0  0  0  0  0999 V2000
    4.9221    1.7882   16.9775 H   0  0  0  0  0  0  0  0  0  0  0  0
    5.4122    1.2992   17.8193 C   0  0  0  0  0  0  0  0  0  0  0  0
    6.5809    0.6958   17.5578 N   0  0  0  0  0  0  0  0  0  0  0  0
    7.2284    0.1215   18.5780 C   0  0  0  0  0  0  0  0  0  0  0  0
    8.1616   -0.3787   18.3243 H   0  0  0  0  0  0  0  0  0  0  0  0
    6.7279    0.0803   19.8908 C   0  0  0  0  0  0  0  0  0  0  0  0
    7.4623   -0.7073   20.9259 C   0  0  0  0  0  0  0  0  0  0  0  0
    8.7591   -0.5364   20.9822 N   0  0  0  0  0  0  0  0  0  0  0  0
    9.4732   -1.2009   21.9306 N   0  0  0  0  0  0  0  0  0  0  0  0
   10.8660   -0.8016   22.0306 C   0  0  0  0  0  0  0  0  0  0  0  0
   11.2075   -0.5857   21.0182 H   0  0  0  0  0  0  0  0  0  0  0  0
   11.4577   -1.6203   22.4457 H   0  0  0  0  0  0  0  0  0  0  0  0
   11.1882    0.4264   22.8969 C   0  0  0  0  0  0  0  0  0  0  0  0
   10.6329    1.5680   22.4819 F   0  0  0  0  0  0  0  0  0  0  0  0
   10.8336    0.2529   24.1845 F   0  0  0  0  0  0  0  0  0  0  0  0
   12.5263    0.5917   22.8639 F   0  0  0  0  0  0  0  0  0  0  0  0
    8.8872   -1.9637   22.9087 C   0  0  0  0  0  0  0  0  0  0  0  0
    9.5790   -2.3499   23.6602 H   0  0  0  0  0  0  0  0  0  0  0  0
    7.5595   -2.2106   22.9021 C   0  0  0  0  0  0  0  0  0  0  0  0
    7.0769   -2.8328   23.6349 H   0  0  0  0  0  0  0  0  0  0  0  0
    6.7417   -1.7162   21.8051 C   0  0  0  0  0  0  0  0  0  0  0  0
    5.6040   -2.1165   21.5862 O   0  0  0  0  0  0  0  0  0  0  0  0
    5.4895    0.6945   20.1407 C   0  0  0  0  0  0  0  0  0  0  0  0
    5.0317    0.6063   21.1250 H   0  0  0  0  0  0  0  0  0  0  0  0
    4.8286    1.3283   19.0887 C   0  0  0  0  0  0  0  0  0  0  0  0
    3.8776    1.8268   19.2342 H   0  0  0  0  0  0  0  0  0  0  0  0
  1  2  1  0
  2  3  2  0
  3  4  1  0
  4  5  1  0
  4  6  2  0
  6  7  1  0
  7  8  2  0
  8  9  1  0
  9 10  1  0
 10 11  1  0
 10 12  1  0
 10 13  1  0
 13 14  1  0
 13 15  1  0
 13 16  1  0
  9 17  1  0
 17 18  1  0
 17 19  2  0
 19 20  1  0
 19 21  1  0
 21 22  2  0
  6 23  1  0
 23 24  1  0
 23 25  2  0
 25 26  1  0
 25  2  1  0
 21  7  1  0
M  END
>  <cnnaffinity>  (1) 
-5.18197

>  <filename>  (1) 
O=c1ccn(CC(F)(F)F)nc1-c1cccnc1

$$$$
