
     RDKit          3D

 43 46  0  0  0  0  0  0  0  0999 V2000
    1.3428   -7.3529   25.9562 H   0  0  0  0  0  0  0  0  0  0  0  0
    1.7336   -6.3960   26.2939 C   0  0  0  0  0  0  0  0  0  0  0  0
    2.7286   -5.8890   25.5625 N   0  0  0  0  0  0  0  0  0  0  0  0
    3.2719   -4.7310   25.9683 C   0  0  0  0  0  0  0  0  0  0  0  0
    4.3273   -4.2558   25.2237 N   0  0  0  0  0  0  0  0  0  0  0  0
    4.6187   -4.7766   23.8786 C   0  0  0  0  0  0  0  0  0  0  0  0
    5.3070   -5.6308   23.9396 H   0  0  0  0  0  0  0  0  0  0  0  0
    3.6946   -5.1517   23.4355 H   0  0  0  0  0  0  0  0  0  0  0  0
    5.2067   -3.6859   22.9549 C   0  0  0  0  0  0  0  0  0  0  0  0
    4.4097   -2.9833   22.6931 H   0  0  0  0  0  0  0  0  0  0  0  0
    5.5833   -4.1223   22.0194 H   0  0  0  0  0  0  0  0  0  0  0  0
    6.3157   -2.9604   23.5917 N   0  0  0  0  0  0  0  0  0  0  0  0
    7.1588   -2.2573   22.8119 N   0  0  0  0  0  0  0  0  0  0  0  0
    6.5612   -1.6098   21.7623 N   0  0  0  0  0  0  0  0  0  0  0  0
    7.2825   -0.8083   21.0125 C   0  0  0  0  0  0  0  0  0  0  0  0
    6.5686   -0.0574   19.9200 C   0  0  0  0  0  0  0  0  0  0  0  0
    7.1197    0.0144   18.6235 C   0  0  0  0  0  0  0  0  0  0  0  0
    8.0877   -0.4427   18.4235 H   0  0  0  0  0  0  0  0  0  0  0  0
    6.5407    0.6415   17.5944 N   0  0  0  0  0  0  0  0  0  0  0  0
    5.3908    1.2847   17.8360 C   0  0  0  0  0  0  0  0  0  0  0  0
    4.9596    1.8248   16.9949 H   0  0  0  0  0  0  0  0  0  0  0  0
    4.7652    1.3083   19.0857 C   0  0  0  0  0  0  0  0  0  0  0  0
    3.8555    1.8858   19.2181 H   0  0  0  0  0  0  0  0  0  0  0  0
    5.3576    0.6182   20.1474 C   0  0  0  0  0  0  0  0  0  0  0  0
    4.9083    0.6208   21.1400 H   0  0  0  0  0  0  0  0  0  0  0  0
    8.7639   -0.6342   21.2403 C   0  0  0  0  0  0  0  0  0  0  0  0
    9.4866    0.1121   20.5814 O   0  0  0  0  0  0  0  0  0  0  0  0
    9.3184   -1.4316   22.3179 C   0  0  0  0  0  0  0  0  0  0  0  0
   10.3807   -1.3255   22.4882 H   0  0  0  0  0  0  0  0  0  0  0  0
    8.5076   -2.1930   23.0572 C   0  0  0  0  0  0  0  0  0  0  0  0
    8.8101   -2.8276   23.8899 H   0  0  0  0  0  0  0  0  0  0  0  0
    6.5721   -3.1635   25.0132 C   0  0  0  0  0  0  0  0  0  0  0  0
    7.1699   -4.0766   25.1591 H   0  0  0  0  0  0  0  0  0  0  0  0
    7.1358   -2.3098   25.4111 H   0  0  0  0  0  0  0  0  0  0  0  0
    5.2534   -3.2762   25.8003 C   0  0  0  0  0  0  0  0  0  0  0  0
    5.5138   -3.5517   26.8296 H   0  0  0  0  0  0  0  0  0  0  0  0
    4.7851   -2.2837   25.8334 H   0  0  0  0  0  0  0  0  0  0  0  0
    2.7863   -4.0169   27.0961 C   0  0  0  0  0  0  0  0  0  0  0  0
    3.2496   -3.0747   27.3658 H   0  0  0  0  0  0  0  0  0  0  0  0
    1.7190   -4.5473   27.8126 C   0  0  0  0  0  0  0  0  0  0  0  0
    1.3145   -4.0163   28.6756 H   0  0  0  0  0  0  0  0  0  0  0  0
    1.1821   -5.7754   27.4108 C   0  0  0  0  0  0  0  0  0  0  0  0
    0.3608   -6.2488   27.9362 H   0  0  0  0  0  0  0  0  0  0  0  0
  1  2  1  0
  2  3  2  0
  3  4  1  0
  4  5  1  0
  5  6  1  0
  6  7  1  0
  6  8  1  0
  6  9  1  0
  9 10  1  0
  9 11  1  0
  9 12  1  0
 12 13  1  0
 13 14  1  0
 14 15  2  0
 15 16  1  0
 16 17  2  0
 17 18  1  0
 17 19  1  0
 19 20  2  0
 20 21  1  0
 20 22  1  0
 22 23  1  0
 22 24  2  0
 24 25  1  0
 15 26  1  0
 26 27  2  0
 26 28  1  0
 28 29  1  0
 28 30  2  0
 30 31  1  0
 12 32  1  0
 32 33  1  0
 32 34  1  0
 32 35  1  0
 35 36  1  0
 35 37  1  0
  4 38  2  0
 38 39  1  0
 38 40  1  0
 40 41  1  0
 40 42  2  0
 42 43  1  0
 42  2  1  0
 35  5  1  0
 30 13  1  0
 24 16  1  0
M  END
>  <cnnaffinity>  (1) 
-5.49795

>  <filename>  (1) 
O=c1ccn(N2CCN(c3ccccn3)CC2)nc1-c1cccnc1

$$$$
