
     RDKit          3D

 35 37  0  0  0  0  0  0  0  0999 V2000
    9.2921    0.1585   23.2162 H   0  0  0  0  0  0  0  0  0  0  0  0
    8.6228   -0.4455   22.6303 C   0  0  0  0  0  0  0  0  0  0  0  0
    8.7765   -1.7785   22.5070 C   0  0  0  0  0  0  0  0  0  0  0  0
    9.6894   -2.5878   23.0683 O   0  0  0  0  0  0  0  0  0  0  0  0
   10.2449   -2.2061   24.3414 C   0  0  0  0  0  0  0  0  0  0  0  0
   10.9049   -3.0412   24.5890 H   0  0  0  0  0  0  0  0  0  0  0  0
   10.8542   -1.3028   24.2345 H   0  0  0  0  0  0  0  0  0  0  0  0
    9.2144   -1.9815   25.4248 C   0  0  0  0  0  0  0  0  0  0  0  0
    9.0313   -0.7260   26.0190 C   0  0  0  0  0  0  0  0  0  0  0  0
    9.6846    0.1121   25.7856 H   0  0  0  0  0  0  0  0  0  0  0  0
    7.9981   -0.5614   26.9457 C   0  0  0  0  0  0  0  0  0  0  0  0
    7.8298    0.4094   27.4059 H   0  0  0  0  0  0  0  0  0  0  0  0
    7.1643   -1.5432   27.3094 N   0  0  0  0  0  0  0  0  0  0  0  0
    7.3693   -2.7480   26.7634 C   0  0  0  0  0  0  0  0  0  0  0  0
    6.7013   -3.5432   27.0872 H   0  0  0  0  0  0  0  0  0  0  0  0
    8.3616   -3.0185   25.8205 C   0  0  0  0  0  0  0  0  0  0  0  0
    8.4720   -4.0210   25.4168 H   0  0  0  0  0  0  0  0  0  0  0  0
    7.9152   -2.5063   21.7325 N   0  0  0  0  0  0  0  0  0  0  0  0
    8.0131   -3.4908   21.6114 H   0  0  0  0  0  0  0  0  0  0  0  0
    6.8989   -1.9950   20.9578 C   0  0  0  0  0  0  0  0  0  0  0  0
    6.2072   -2.7406   20.3007 O   0  0  0  0  0  0  0  0  0  0  0  0
    6.8257   -0.6022   20.9736 N   0  0  0  0  0  0  0  0  0  0  0  0
    6.3069    0.0887   19.8268 C   0  0  0  0  0  0  0  0  0  0  0  0
    6.9727    0.0952   18.5779 C   0  0  0  0  0  0  0  0  0  0  0  0
    7.9115   -0.4460   18.4651 H   0  0  0  0  0  0  0  0  0  0  0  0
    6.5251    0.7501   17.4978 N   0  0  0  0  0  0  0  0  0  0  0  0
    5.3787    1.4394   17.6222 C   0  0  0  0  0  0  0  0  0  0  0  0
    5.0440    1.9630   16.7293 H   0  0  0  0  0  0  0  0  0  0  0  0
    4.6390    1.4970   18.8086 C   0  0  0  0  0  0  0  0  0  0  0  0
    3.7237    2.0794   18.8420 H   0  0  0  0  0  0  0  0  0  0  0  0
    5.1134    0.8076   19.9315 C   0  0  0  0  0  0  0  0  0  0  0  0
    4.5742    0.8114   20.8786 H   0  0  0  0  0  0  0  0  0  0  0  0
    7.3606    0.1676   22.1194 C   0  0  0  0  0  0  0  0  0  0  0  0
    6.6027    0.2199   22.9328 H   0  0  0  0  0  0  0  0  0  0  0  0
    7.5443    1.2041   21.7942 H   0  0  0  0  0  0  0  0  0  0  0  0
  1  2  1  0
  2  3  2  0
  3  4  1  0
  4  5  1  0
  5  6  1  0
  5  7  1  0
  5  8  1  0
  8  9  2  0
  9 10  1  0
  9 11  1  0
 11 12  1  0
 11 13  2  0
 13 14  1  0
 14 15  1  0
 14 16  2  0
 16 17  1  0
  3 18  1  0
 18 19  1  0
 18 20  1  0
 20 21  2  0
 20 22  1  0
 22 23  1  0
 23 24  2  0
 24 25  1  0
 24 26  1  0
 26 27  2  0
 27 28  1  0
 27 29  1  0
 29 30  1  0
 29 31  2  0
 31 32  1  0
 22 33  1  0
 33 34  1  0
 33 35  1  0
 33  2  1  0
 16  8  1  0
 31 23  1  0
M  END
>  <cnnaffinity>  (1) 
-4.80411

>  <filename>  (1) 
O=C1NC(OCc2ccncc2)=CCN1c1cccnc1

$$$$
