
     RDKit          3D

 31 33  0  0  0  0  0  0  0  0999 V2000
    9.5206   -0.2448   20.5439 H   0  0  0  0  0  0  0  0  0  0  0  0
    8.7808   -0.7805   21.1304 C   0  0  0  0  0  0  0  0  0  0  0  0
    7.4625   -0.8277   20.8864 C   0  0  0  0  0  0  0  0  0  0  0  0
    6.7195   -0.0616   19.8521 C   0  0  0  0  0  0  0  0  0  0  0  0
    7.2287    0.0753   18.5421 C   0  0  0  0  0  0  0  0  0  0  0  0
    8.1819   -0.3849   18.2871 H   0  0  0  0  0  0  0  0  0  0  0  0
    6.6133    0.7242   17.5466 N   0  0  0  0  0  0  0  0  0  0  0  0
    5.4419    1.3141   17.8295 C   0  0  0  0  0  0  0  0  0  0  0  0
    4.9412    1.8138   16.9996 H   0  0  0  0  0  0  0  0  0  0  0  0
    4.8576    1.2761   19.0974 C   0  0  0  0  0  0  0  0  0  0  0  0
    3.9224    1.7958   19.2595 H   0  0  0  0  0  0  0  0  0  0  0  0
    5.5000    0.5824   20.1283 C   0  0  0  0  0  0  0  0  0  0  0  0
    5.0870    0.5664   21.1391 H   0  0  0  0  0  0  0  0  0  0  0  0
    6.8367   -1.7999   21.8617 C   0  0  0  0  0  0  0  0  0  0  0  0
    5.7598   -2.3521   21.8094 O   0  0  0  0  0  0  0  0  0  0  0  0
    7.8596   -2.0579   22.7996 N   0  0  0  0  0  0  0  0  0  0  0  0
    7.6897   -2.7723   23.9276 C   0  0  0  0  0  0  0  0  0  0  0  0
    7.5003   -3.4660   24.8964 C   0  0  0  0  0  0  0  0  0  0  0  0
    7.3029   -4.3248   26.0275 C   0  0  0  0  0  0  0  0  0  0  0  0
    6.0093   -4.6346   26.5017 C   0  0  0  0  0  0  0  0  0  0  0  0
    5.1431   -4.2000   26.0087 H   0  0  0  0  0  0  0  0  0  0  0  0
    5.7669   -5.4443   27.5375 N   0  0  0  0  0  0  0  0  0  0  0  0
    6.8243   -5.9746   28.1675 C   0  0  0  0  0  0  0  0  0  0  0  0
    6.6014   -6.6305   29.0079 H   0  0  0  0  0  0  0  0  0  0  0  0
    8.1464   -5.7141   27.7952 C   0  0  0  0  0  0  0  0  0  0  0  0
    8.9571   -6.1359   28.3675 H   0  0  0  0  0  0  0  0  0  0  0  0
    8.3990   -4.8958   26.6959 C   0  0  0  0  0  0  0  0  0  0  0  0
    9.4134   -4.6997   26.3476 H   0  0  0  0  0  0  0  0  0  0  0  0
    9.1570   -1.5935   22.3253 C   0  0  0  0  0  0  0  0  0  0  0  0
    9.6709   -1.0063   23.0964 H   0  0  0  0  0  0  0  0  0  0  0  0
    9.8068   -2.4375   22.0427 H   0  0  0  0  0  0  0  0  0  0  0  0
  1  2  1  0
  2  3  2  0
  3  4  1  0
  4  5  2  0
  5  6  1  0
  5  7  1  0
  7  8  2  0
  8  9  1  0
  8 10  1  0
 10 11  1  0
 10 12  2  0
 12 13  1  0
  3 14  1  0
 14 15  2  0
 14 16  1  0
 16 17  1  0
 17 18  3  0
 18 19  1  0
 19 20  2  0
 20 21  1  0
 20 22  1  0
 22 23  2  0
 23 24  1  0
 23 25  1  0
 25 26  1  0
 25 27  2  0
 27 28  1  0
 16 29  1  0
 29 30  1  0
 29 31  1  0
 29  2  1  0
 12  4  1  0
 27 19  1  0
M  END
>  <cnnaffinity>  (1) 
-4.87284

>  <filename>  (1) 
O=C1C(c2cccnc2)=CCN1C#Cc1cccnc1

$$$$
