
     RDKit          3D

 42 45  0  0  0  0  0  0  0  0999 V2000
    5.9252   -4.8813   30.2254 H   0  0  0  0  0  0  0  0  0  0  0  0
    6.5820   -5.3143   29.4718 C   0  0  0  0  0  0  0  0  0  0  0  0
    6.7406   -4.5913   28.3641 N   0  0  0  0  0  0  0  0  0  0  0  0
    7.5468   -5.0691   27.4073 C   0  0  0  0  0  0  0  0  0  0  0  0
    7.7014   -4.2899   26.2697 N   0  0  0  0  0  0  0  0  0  0  0  0
    6.9013   -3.0675   26.0757 C   0  0  0  0  0  0  0  0  0  0  0  0
    5.9460   -3.1539   26.5954 H   0  0  0  0  0  0  0  0  0  0  0  0
    7.4304   -2.2033   26.5072 H   0  0  0  0  0  0  0  0  0  0  0  0
    6.6660   -2.7976   24.5841 C   0  0  0  0  0  0  0  0  0  0  0  0
    6.1137   -1.8636   24.4533 H   0  0  0  0  0  0  0  0  0  0  0  0
    6.0500   -3.6019   24.1535 H   0  0  0  0  0  0  0  0  0  0  0  0
    7.9452   -2.6787   23.8796 N   0  0  0  0  0  0  0  0  0  0  0  0
    7.9543   -2.0473   22.6181 C   0  0  0  0  0  0  0  0  0  0  0  0
    9.0507   -1.4627   22.0778 C   0  0  0  0  0  0  0  0  0  0  0  0
   10.0460   -1.4474   22.5044 H   0  0  0  0  0  0  0  0  0  0  0  0
    8.7761   -0.8096   20.8637 N   0  0  0  0  0  0  0  0  0  0  0  0
    9.1015    0.1584   20.8150 H   0  0  0  0  0  0  0  0  0  0  0  0
    7.3728   -0.8685   20.7461 N   0  0  0  0  0  0  0  0  0  0  0  0
    6.7187   -0.0785   19.7628 C   0  0  0  0  0  0  0  0  0  0  0  0
    7.2653    0.0693   18.4683 C   0  0  0  0  0  0  0  0  0  0  0  0
    8.2261   -0.3877   18.2348 H   0  0  0  0  0  0  0  0  0  0  0  0
    6.6541    0.7345   17.4827 N   0  0  0  0  0  0  0  0  0  0  0  0
    5.4815    1.3286   17.7626 C   0  0  0  0  0  0  0  0  0  0  0  0
    5.0113    1.8664   16.9429 H   0  0  0  0  0  0  0  0  0  0  0  0
    4.8822    1.2860   19.0258 C   0  0  0  0  0  0  0  0  0  0  0  0
    3.9557    1.8228   19.1958 H   0  0  0  0  0  0  0  0  0  0  0  0
    5.5069    0.5699   20.0512 C   0  0  0  0  0  0  0  0  0  0  0  0
    5.0875    0.5249   21.0560 H   0  0  0  0  0  0  0  0  0  0  0  0
    6.8106   -1.7589   21.6763 C   0  0  0  0  0  0  0  0  0  0  0  0
    5.6628   -2.1739   21.6263 O   0  0  0  0  0  0  0  0  0  0  0  0
    8.7554   -3.8945   24.0574 C   0  0  0  0  0  0  0  0  0  0  0  0
    8.2551   -4.7670   23.6063 H   0  0  0  0  0  0  0  0  0  0  0  0
    9.7166   -3.7589   23.5502 H   0  0  0  0  0  0  0  0  0  0  0  0
    8.9841   -4.1682   25.5551 C   0  0  0  0  0  0  0  0  0  0  0  0
    9.5652   -3.3301   25.9707 H   0  0  0  0  0  0  0  0  0  0  0  0
    9.5953   -5.0661   25.6676 H   0  0  0  0  0  0  0  0  0  0  0  0
    8.1651   -6.3336   27.5093 C   0  0  0  0  0  0  0  0  0  0  0  0
    8.7439   -6.6826   26.6636 H   0  0  0  0  0  0  0  0  0  0  0  0
    7.9811   -7.0797   28.6693 C   0  0  0  0  0  0  0  0  0  0  0  0
    8.4271   -8.0705   28.7946 H   0  0  0  0  0  0  0  0  0  0  0  0
    7.1863   -6.5475   29.6901 C   0  0  0  0  0  0  0  0  0  0  0  0
    7.0385   -7.0696   30.6256 H   0  0  0  0  0  0  0  0  0  0  0  0
  1  2  1  0
  2  3  2  0
  3  4  1  0
  4  5  1  0
  5  6  1  0
  6  7  1  0
  6  8  1  0
  6  9  1  0
  9 10  1  0
  9 11  1  0
  9 12  1  0
 12 13  1  0
 13 14  2  0
 14 15  1  0
 14 16  1  0
 16 17  1  0
 16 18  1  0
 18 19  1  0
 19 20  2  0
 20 21  1  0
 20 22  1  0
 22 23  2  0
 23 24  1  0
 23 25  1  0
 25 26  1  0
 25 27  2  0
 27 28  1  0
 18 29  1  0
 29 30  2  0
 12 31  1  0
 31 32  1  0
 31 33  1  0
 31 34  1  0
 34 35  1  0
 34 36  1  0
  4 37  2  0
 37 38  1  0
 37 39  1  0
 39 40  1  0
 39 41  2  0
 41 42  1  0
 41  2  1  0
 34  5  1  0
 29 13  1  0
 27 19  1  0
M  END
>  <cnnaffinity>  (1) 
-5.35901

>  <filename>  (1) 
O=c1c(N2CCN(c3ccccn3)CC2)c[nH]n1-c1cccnc1

$$$$
