
     RDKit          3D

 45 49  0  0  0  0  0  0  0  0999 V2000
    4.9783   -2.6133   25.0626 O   0  0  0  0  0  0  0  0  0  0  0  0
    5.6991   -3.4867   24.5975 C   0  0  0  0  0  0  0  0  0  0  0  0
    5.1573   -4.8046   24.1382 C   0  0  0  0  0  0  0  0  0  0  0  0
    3.7652   -4.9940   24.1983 C   0  0  0  0  0  0  0  0  0  0  0  0
    3.2189   -6.1960   23.7744 C   0  0  0  0  0  0  0  0  0  0  0  0
    4.0548   -7.2215   23.3272 C   0  0  0  0  0  0  0  0  0  0  0  0
    5.4334   -7.0121   23.2194 C   0  0  0  0  0  0  0  0  0  0  0  0
    6.0068   -5.7955   23.6142 C   0  0  0  0  0  0  0  0  0  0  0  0
    7.4831   -5.4907   23.4137 C   0  0  0  0  0  0  0  0  0  0  0  0
    7.9803   -4.4324   24.4049 C   0  0  0  0  0  0  0  0  0  0  0  0
    7.0608   -3.2883   24.4225 N   0  0  0  0  0  0  0  0  0  0  0  0
    7.5236   -1.8979   24.2631 C   0  0  0  0  0  0  0  0  0  0  0  0
    7.5157   -1.3528   22.8414 C   0  0  0  0  0  0  0  0  0  0  0  0
    6.5778   -0.6655   22.2059 N   0  0  0  0  0  0  0  0  0  0  0  0
    7.0723   -0.5410   20.9484 C   0  0  0  0  0  0  0  0  0  0  0  0
    6.4050    0.1417   19.8329 C   0  0  0  0  0  0  0  0  0  0  0  0
    5.2081    0.8654   19.9470 C   0  0  0  0  0  0  0  0  0  0  0  0
    4.7189    1.5045   18.8060 C   0  0  0  0  0  0  0  0  0  0  0  0
    5.4259    1.3885   17.6042 C   0  0  0  0  0  0  0  0  0  0  0  0
    6.5661    0.6934   17.4835 N   0  0  0  0  0  0  0  0  0  0  0  0
    7.0432    0.1011   18.5808 C   0  0  0  0  0  0  0  0  0  0  0  0
    7.9891   -0.4254   18.4671 H   0  0  0  0  0  0  0  0  0  0  0  0
    5.0691    1.8802   16.7007 H   0  0  0  0  0  0  0  0  0  0  0  0
    3.8211    2.1131   18.8330 H   0  0  0  0  0  0  0  0  0  0  0  0
    4.6899    0.9408   20.9048 H   0  0  0  0  0  0  0  0  0  0  0  0
    8.2586   -1.0980   20.7795 N   0  0  0  0  0  0  0  0  0  0  0  0
    8.5536   -1.5736   22.0045 N   0  0  0  0  0  0  0  0  0  0  0  0
    9.7599   -2.3189   22.2152 C   0  0  0  0  0  0  0  0  0  0  0  0
   10.6294   -2.0758   23.4145 C   0  0  0  0  0  0  0  0  0  0  0  0
   11.0950   -1.6615   22.0473 C   0  0  0  0  0  0  0  0  0  0  0  0
   11.9072   -2.2127   21.5837 H   0  0  0  0  0  0  0  0  0  0  0  0
   11.0741   -0.6003   21.8185 H   0  0  0  0  0  0  0  0  0  0  0  0
   10.4013   -1.2599   24.0954 H   0  0  0  0  0  0  0  0  0  0  0  0
   11.0603   -2.9517   23.8985 H   0  0  0  0  0  0  0  0  0  0  0  0
    9.6521   -3.3242   21.8390 H   0  0  0  0  0  0  0  0  0  0  0  0
    8.5357   -1.8303   24.6673 H   0  0  0  0  0  0  0  0  0  0  0  0
    6.8756   -1.2676   24.8805 H   0  0  0  0  0  0  0  0  0  0  0  0
    8.9825   -4.0916   24.1274 H   0  0  0  0  0  0  0  0  0  0  0  0
    8.0786   -4.8729   25.4113 H   0  0  0  0  0  0  0  0  0  0  0  0
    8.0851   -6.4037   23.4959 H   0  0  0  0  0  0  0  0  0  0  0  0
    7.6248   -5.1005   22.3960 H   0  0  0  0  0  0  0  0  0  0  0  0
    6.0694   -7.7913   22.8102 H   0  0  0  0  0  0  0  0  0  0  0  0
    3.6154   -8.1791   23.0689 H   0  0  0  0  0  0  0  0  0  0  0  0
    2.1440   -6.3386   23.8099 H   0  0  0  0  0  0  0  0  0  0  0  0
    3.1450   -4.1789   24.5637 H   0  0  0  0  0  0  0  0  0  0  0  0
  1  2  2  0
  2  3  1  0
  3  4  2  0
  4  5  1  0
  5  6  2  0
  6  7  1  0
  7  8  2  0
  8  9  1  0
  9 10  1  0
 10 11  1  0
 11 12  1  0
 12 13  1  0
 13 14  2  0
 14 15  1  0
 15 16  1  0
 16 17  2  0
 17 18  1  0
 18 19  2  0
 19 20  1  0
 20 21  2  0
 21 22  1  0
 19 23  1  0
 18 24  1  0
 17 25  1  0
 15 26  2  0
 26 27  1  0
 27 28  1  0
 28 29  1  0
 29 30  1  0
 30 31  1  0
 30 32  1  0
 29 33  1  0
 29 34  1  0
 28 35  1  0
 12 36  1  0
 12 37  1  0
 10 38  1  0
 10 39  1  0
  9 40  1  0
  9 41  1  0
  7 42  1  0
  6 43  1  0
  5 44  1  0
  4 45  1  0
 11  2  1  0
 27 13  1  0
 30 28  1  0
  8  3  1  0
 21 16  1  0
M  END
>  <cnnaffinity>  (1) 
-6.07486

>  <filename>  (1) 
O=C1c2ccccc2CCN1Cc1nc(-c2cccnc2)nn1C1CC1

$$$$
