
     RDKit          3D

 31 33  0  0  0  0  0  0  0  0999 V2000
    9.8430    1.5637   23.5851 H   0  0  0  0  0  0  0  0  0  0  0  0
    8.7704    1.7450   23.6703 C   0  0  0  0  0  0  0  0  0  0  0  0
    8.2656    2.5837   24.5857 C   0  0  0  0  0  0  0  0  0  0  0  0
    9.1868    3.4898   25.7735 S   0  0  0  0  0  0  0  0  0  0  0  0
    7.7665    4.3561   26.3243 C   0  0  0  0  0  0  0  0  0  0  0  0
    7.7763    5.5116   27.4749 S   0  0  0  0  0  0  0  0  0  0  0  0
    6.6836    3.9040   25.6378 N   0  0  0  0  0  0  0  0  0  0  0  0
    5.7586    4.2677   25.7689 H   0  0  0  0  0  0  0  0  0  0  0  0
    6.8597    2.9407   24.6706 C   0  0  0  0  0  0  0  0  0  0  0  0
    5.9232    2.5119   24.0211 O   0  0  0  0  0  0  0  0  0  0  0  0
    7.9325    1.0977   22.7929 N   0  0  0  0  0  0  0  0  0  0  0  0
    6.9447    1.3138   22.8925 H   0  0  0  0  0  0  0  0  0  0  0  0
    8.3933    0.2285   21.8267 C   0  0  0  0  0  0  0  0  0  0  0  0
    9.5789    0.1055   21.5854 O   0  0  0  0  0  0  0  0  0  0  0  0
    7.2988   -0.5883   21.1257 C   0  0  0  0  0  0  0  0  0  0  0  0
    6.5859    0.0929   19.9928 C   0  0  0  0  0  0  0  0  0  0  0  0
    7.1380    0.0863   18.6974 C   0  0  0  0  0  0  0  0  0  0  0  0
    8.0822   -0.4353   18.5409 H   0  0  0  0  0  0  0  0  0  0  0  0
    6.5845    0.6736   17.6307 N   0  0  0  0  0  0  0  0  0  0  0  0
    5.4183    1.3084   17.8295 C   0  0  0  0  0  0  0  0  0  0  0  0
    4.9768    1.7781   16.9525 H   0  0  0  0  0  0  0  0  0  0  0  0
    4.7756    1.3721   19.0715 C   0  0  0  0  0  0  0  0  0  0  0  0
    3.8365    1.9044   19.1635 H   0  0  0  0  0  0  0  0  0  0  0  0
    5.3725    0.7601   20.1751 C   0  0  0  0  0  0  0  0  0  0  0  0
    4.9175    0.7917   21.1683 H   0  0  0  0  0  0  0  0  0  0  0  0
    6.5661   -1.6198   21.9592 C   0  0  0  0  0  0  0  0  0  0  0  0
    6.8503   -1.6924   23.0035 H   0  0  0  0  0  0  0  0  0  0  0  0
    5.5198   -1.8069   21.7314 H   0  0  0  0  0  0  0  0  0  0  0  0
    7.5487   -2.0713   20.9353 C   0  0  0  0  0  0  0  0  0  0  0  0
    8.5168   -2.4608   21.2277 H   0  0  0  0  0  0  0  0  0  0  0  0
    7.1096   -2.5224   20.0500 H   0  0  0  0  0  0  0  0  0  0  0  0
  1  2  1  0
  2  3  2  3
  3  4  1  0
  4  5  1  0
  5  6  2  0
  5  7  1  0
  7  8  1  0
  7  9  1  0
  9 10  2  0
  2 11  1  0
 11 12  1  0
 11 13  1  0
 13 14  2  0
 13 15  1  0
 15 16  1  0
 16 17  2  0
 17 18  1  0
 17 19  1  0
 19 20  2  0
 20 21  1  0
 20 22  1  0
 22 23  1  0
 22 24  2  0
 24 25  1  0
 15 26  1  0
 26 27  1  0
 26 28  1  0
 26 29  1  0
 29 30  1  0
 29 31  1  0
  9  3  1  0
 29 15  1  0
 24 16  1  0
M  END
>  <cnnaffinity>  (1) 
-4.53311

>  <filename>  (1) 
O=C1NC(=S)SC1=CNC(=O)C1(c2cccnc2)CC1

$$$$
