
     RDKit          3D

 26 27  0  0  0  0  0  0  0  0999 V2000
    9.1889    1.6500   25.7473 H   0  0  0  0  0  0  0  0  0  0  0  0
    8.4693    1.1774   25.3057 O   0  0  0  0  0  0  0  0  0  0  0  0
    8.5937    1.7767   23.8332 P   0  0  0  0  0  0  0  0  0  0  0  0
   10.0103    1.5690   23.4517 O   0  0  0  0  0  0  0  0  0  0  0  0
    8.5491    3.3349   24.1480 O   0  0  0  0  0  0  0  0  0  0  0  0
    9.3813    3.4139   24.6364 H   0  0  0  0  0  0  0  0  0  0  0  0
    7.2932    1.1063   22.5149 C   0  0  0  0  0  0  0  0  0  0  0  0
    6.0084    1.1424   22.9846 F   0  0  0  0  0  0  0  0  0  0  0  0
    7.3368    1.8729   21.3835 F   0  0  0  0  0  0  0  0  0  0  0  0
    7.5410   -0.2903   22.0881 N   0  0  0  0  0  0  0  0  0  0  0  0
    7.1995   -0.8428   20.8562 C   0  0  0  0  0  0  0  0  0  0  0  0
    6.5103   -0.1449   19.8124 C   0  0  0  0  0  0  0  0  0  0  0  0
    7.0179   -0.2682   18.5249 C   0  0  0  0  0  0  0  0  0  0  0  0
    7.8760   -0.9066   18.3494 H   0  0  0  0  0  0  0  0  0  0  0  0
    6.5291    0.4264   17.4854 N   0  0  0  0  0  0  0  0  0  0  0  0
    5.4996    1.2648   17.7159 C   0  0  0  0  0  0  0  0  0  0  0  0
    5.1028    1.8600   16.8948 H   0  0  0  0  0  0  0  0  0  0  0  0
    4.9099    1.3950   18.9783 C   0  0  0  0  0  0  0  0  0  0  0  0
    4.0751    2.0729   19.1123 H   0  0  0  0  0  0  0  0  0  0  0  0
    5.4180    0.6839   20.0586 C   0  0  0  0  0  0  0  0  0  0  0  0
    4.9836    0.7895   21.0550 H   0  0  0  0  0  0  0  0  0  0  0  0
    7.6812   -2.0480   20.7231 N   0  0  0  0  0  0  0  0  0  0  0  0
    8.3467   -2.3231   21.9150 C   0  0  0  0  0  0  0  0  0  0  0  0
    8.8525   -3.2646   22.1317 H   0  0  0  0  0  0  0  0  0  0  0  0
    8.2869   -1.2428   22.7613 C   0  0  0  0  0  0  0  0  0  0  0  0
    8.7341   -1.1597   23.7510 H   0  0  0  0  0  0  0  0  0  0  0  0
  1  2  1  0
  2  3  1  0
  3  4  2  0
  3  5  1  0
  5  6  1  0
  3  7  1  0
  7  8  1  0
  7  9  1  0
  7 10  1  0
 10 11  1  0
 11 12  1  0
 12 13  2  0
 13 14  1  0
 13 15  1  0
 15 16  2  0
 16 17  1  0
 16 18  1  0
 18 19  1  0
 18 20  2  0
 20 21  1  0
 11 22  2  0
 22 23  1  0
 23 24  1  0
 23 25  2  0
 25 26  1  0
 25 10  1  0
 20 12  1  0
M  END
>  <cnnaffinity>  (1) 
-4.42448

>  <filename>  (1) 
O=P(O)(O)C(F)(F)n1ccnc1-c1cccnc1

$$$$
