
     RDKit          3D

 24 25  0  0  0  0  0  0  0  0999 V2000
    6.1807   -4.2159   22.8796 H   0  0  0  0  0  0  0  0  0  0  0  0
    7.1452   -3.9989   22.7265 O   0  0  0  0  0  0  0  0  0  0  0  0
    7.0243   -3.2060   24.0524 P   0  0  0  0  0  0  0  0  0  0  0  0
    6.9374   -3.9071   25.3449 O   0  0  0  0  0  0  0  0  0  0  0  0
    5.7852   -3.3729   23.1233 O   0  0  0  0  0  0  0  0  0  0  0  0
    6.3728   -3.5836   22.3515 H   0  0  0  0  0  0  0  0  0  0  0  0
    8.0372   -1.6906   24.3705 C   0  0  0  0  0  0  0  0  0  0  0  0
    7.4302   -0.7279   25.1355 F   0  0  0  0  0  0  0  0  0  0  0  0
    9.3001   -1.9110   24.8603 F   0  0  0  0  0  0  0  0  0  0  0  0
    8.0536   -1.3487   22.9366 C   0  0  0  0  0  0  0  0  0  0  0  0
    7.0251   -0.8443   22.3187 N   0  0  0  0  0  0  0  0  0  0  0  0
    7.4257   -0.8244   21.0032 C   0  0  0  0  0  0  0  0  0  0  0  0
    6.6544   -0.2102   19.9484 C   0  0  0  0  0  0  0  0  0  0  0  0
    7.1972   -0.1998   18.6674 C   0  0  0  0  0  0  0  0  0  0  0  0
    8.1374   -0.7105   18.4936 H   0  0  0  0  0  0  0  0  0  0  0  0
    6.6360    0.4536   17.6416 N   0  0  0  0  0  0  0  0  0  0  0  0
    5.5051    1.1443   17.8736 C   0  0  0  0  0  0  0  0  0  0  0  0
    5.0640    1.7191   17.0614 H   0  0  0  0  0  0  0  0  0  0  0  0
    4.8879    1.1589   19.1297 C   0  0  0  0  0  0  0  0  0  0  0  0
    3.9967    1.7616   19.2728 H   0  0  0  0  0  0  0  0  0  0  0  0
    5.4464    0.4477   20.1875 C   0  0  0  0  0  0  0  0  0  0  0  0
    4.9731    0.4627   21.1704 H   0  0  0  0  0  0  0  0  0  0  0  0
    8.5973   -1.3748   20.8116 N   0  0  0  0  0  0  0  0  0  0  0  0
    9.0466   -1.7426   22.0946 O   0  0  0  0  0  0  0  0  0  0  0  0
  1  2  1  0
  2  3  1  0
  3  4  2  0
  3  5  1  0
  5  6  1  0
  3  7  1  0
  7  8  1  0
  7  9  1  0
  7 10  1  0
 10 11  2  0
 11 12  1  0
 12 13  1  0
 13 14  2  0
 14 15  1  0
 14 16  1  0
 16 17  2  0
 17 18  1  0
 17 19  1  0
 19 20  1  0
 19 21  2  0
 21 22  1  0
 12 23  2  0
 23 24  1  0
 24 10  1  0
 21 13  1  0
M  END
>  <cnnaffinity>  (1) 
-4.68974

>  <filename>  (1) 
O=P(O)(O)C(F)(F)c1nc(-c2cccnc2)no1

$$$$
