
     RDKit          3D

 29 31  0  0  0  0  0  0  0  0999 V2000
    5.0848   -5.2656   20.1818 H   0  0  0  0  0  0  0  0  0  0  0  0
    5.8983   -5.0527   19.6560 O   0  0  0  0  0  0  0  0  0  0  0  0
    6.5720   -4.4295   20.9317 P   0  0  0  0  0  0  0  0  0  0  0  0
    7.9489   -4.9152   21.1880 O   0  0  0  0  0  0  0  0  0  0  0  0
    5.3727   -5.4105   21.0781 O   0  0  0  0  0  0  0  0  0  0  0  0
    5.6935   -5.8124   20.2264 H   0  0  0  0  0  0  0  0  0  0  0  0
    6.4914   -2.5732   21.5631 C   0  0  0  0  0  0  0  0  0  0  0  0
    6.1862   -2.5836   22.8932 F   0  0  0  0  0  0  0  0  0  0  0  0
    5.5200   -1.8732   20.9118 F   0  0  0  0  0  0  0  0  0  0  0  0
    7.7731   -1.7709   21.4381 C   0  0  0  0  0  0  0  0  0  0  0  0
    8.0988   -0.6800   20.6457 C   0  0  0  0  0  0  0  0  0  0  0  0
    7.2719    0.0200   19.6934 C   0  0  0  0  0  0  0  0  0  0  0  0
    7.8399    0.3103   18.4536 C   0  0  0  0  0  0  0  0  0  0  0  0
    8.8645    0.0156   18.2465 H   0  0  0  0  0  0  0  0  0  0  0  0
    7.1669    0.9341   17.4748 N   0  0  0  0  0  0  0  0  0  0  0  0
    5.9037    1.3263   17.7153 C   0  0  0  0  0  0  0  0  0  0  0  0
    5.3472    1.8363   16.9327 H   0  0  0  0  0  0  0  0  0  0  0  0
    5.2873    1.1078   18.9504 C   0  0  0  0  0  0  0  0  0  0  0  0
    4.2822    1.4736   19.1147 H   0  0  0  0  0  0  0  0  0  0  0  0
    5.9723    0.4471   19.9667 C   0  0  0  0  0  0  0  0  0  0  0  0
    5.5161    0.2926   20.9436 H   0  0  0  0  0  0  0  0  0  0  0  0
    9.4376   -0.3162   20.7766 N   0  0  0  0  0  0  0  0  0  0  0  0
    9.8781   -1.1524   21.6801 C   0  0  0  0  0  0  0  0  0  0  0  0
   11.4242   -1.4130   22.4505 S   0  0  0  0  0  0  0  0  0  0  0  0
   10.6666   -2.7012   23.4182 C   0  0  0  0  0  0  0  0  0  0  0  0
   11.1979   -3.2638   24.1790 H   0  0  0  0  0  0  0  0  0  0  0  0
    9.3324   -2.9010   23.1183 C   0  0  0  0  0  0  0  0  0  0  0  0
    8.6829   -3.6294   23.5951 H   0  0  0  0  0  0  0  0  0  0  0  0
    8.9335   -2.0261   22.1210 N   0  0  0  0  0  0  0  0  0  0  0  0
  1  2  1  0
  2  3  1  0
  3  4  2  0
  3  5  1  0
  5  6  1  0
  3  7  1  0
  7  8  1  0
  7  9  1  0
  7 10  1  0
 10 11  2  0
 11 12  1  0
 12 13  2  0
 13 14  1  0
 13 15  1  0
 15 16  2  0
 16 17  1  0
 16 18  1  0
 18 19  1  0
 18 20  2  0
 20 21  1  0
 11 22  1  0
 22 23  2  0
 23 24  1  0
 24 25  1  0
 25 26  1  0
 25 27  2  0
 27 28  1  0
 27 29  1  0
 29 10  1  0
 20 12  1  0
 29 23  1  0
M  END
>  <cnnaffinity>  (1) 
-5.44999

>  <filename>  (1) 
O=P(O)(O)C(F)(F)c1c(-c2cccnc2)nc2sccn12

$$$$
