
     RDKit          3D

 24 25  0  0  0  0  0  0  0  0999 V2000
    9.2745   -4.2510   24.6635 H   0  0  0  0  0  0  0  0  0  0  0  0
    8.9828   -3.3341   24.7169 O   0  0  0  0  0  0  0  0  0  0  0  0
    9.1729   -3.0179   23.2014 P   0  0  0  0  0  0  0  0  0  0  0  0
    8.7918   -4.2703   22.5240 O   0  0  0  0  0  0  0  0  0  0  0  0
   10.6941   -2.9705   22.8754 O   0  0  0  0  0  0  0  0  0  0  0  0
   10.7319   -3.8920   22.5695 H   0  0  0  0  0  0  0  0  0  0  0  0
    8.2277   -1.4883   22.6519 C   0  0  0  0  0  0  0  0  0  0  0  0
    7.7416   -1.3819   21.3595 C   0  0  0  0  0  0  0  0  0  0  0  0
    7.8464   -2.0907   20.5379 H   0  0  0  0  0  0  0  0  0  0  0  0
    7.0279   -0.1916   21.2250 N   0  0  0  0  0  0  0  0  0  0  0  0
    6.4558    0.2692   20.0235 C   0  0  0  0  0  0  0  0  0  0  0  0
    6.9686   -0.0938   18.7580 C   0  0  0  0  0  0  0  0  0  0  0  0
    7.8196   -0.7667   18.7246 H   0  0  0  0  0  0  0  0  0  0  0  0
    6.4923    0.3862   17.5921 N   0  0  0  0  0  0  0  0  0  0  0  0
    5.4443    1.2301   17.6463 C   0  0  0  0  0  0  0  0  0  0  0  0
    5.0359    1.6142   16.7173 H   0  0  0  0  0  0  0  0  0  0  0  0
    4.8419    1.6066   18.8532 C   0  0  0  0  0  0  0  0  0  0  0  0
    3.9828    2.2731   18.8295 H   0  0  0  0  0  0  0  0  0  0  0  0
    5.3622    1.1389   20.0637 C   0  0  0  0  0  0  0  0  0  0  0  0
    4.9310    1.4395   21.0189 H   0  0  0  0  0  0  0  0  0  0  0  0
    7.0616    0.4842   22.4477 C   0  0  0  0  0  0  0  0  0  0  0  0
    6.4832    1.9814   22.8864 S   0  0  0  0  0  0  0  0  0  0  0  0
    7.7989   -0.3003   23.3143 N   0  0  0  0  0  0  0  0  0  0  0  0
    8.0634    0.0479   24.2413 H   0  0  0  0  0  0  0  0  0  0  0  0
  1  2  1  0
  2  3  1  0
  3  4  2  0
  3  5  1  0
  5  6  1  0
  3  7  1  0
  7  8  2  0
  8  9  1  0
  8 10  1  0
 10 11  1  0
 11 12  2  0
 12 13  1  0
 12 14  1  0
 14 15  2  0
 15 16  1  0
 15 17  1  0
 17 18  1  0
 17 19  2  0
 19 20  1  0
 10 21  1  0
 21 22  2  0
 21 23  1  0
 23 24  1  0
 23  7  1  0
 19 11  1  0
M  END
>  <cnnaffinity>  (1) 
-4.83563

>  <filename>  (1) 
O=P(O)(O)c1cn(-c2cccnc2)c(=S)[nH]1

$$$$
