
     RDKit          3D

 24 25  0  0  0  0  0  0  0  0999 V2000
    6.4853   -0.4752   26.5665 H   0  0  0  0  0  0  0  0  0  0  0  0
    6.5858   -1.2785   25.9869 O   0  0  0  0  0  0  0  0  0  0  0  0
    7.4990   -0.3817   25.1317 P   0  0  0  0  0  0  0  0  0  0  0  0
    8.8703   -0.0992   25.5836 O   0  0  0  0  0  0  0  0  0  0  0  0
    6.3556    0.2680   25.9538 O   0  0  0  0  0  0  0  0  0  0  0  0
    5.9010   -0.6119   25.9872 H   0  0  0  0  0  0  0  0  0  0  0  0
    7.6996   -0.5882   23.2794 C   0  0  0  0  0  0  0  0  0  0  0  0
    7.0076   -0.0283   22.2257 N   0  0  0  0  0  0  0  0  0  0  0  0
    7.4052   -0.3333   20.9615 C   0  0  0  0  0  0  0  0  0  0  0  0
    6.6933    0.2276   19.7864 C   0  0  0  0  0  0  0  0  0  0  0  0
    7.1904    0.0592   18.4829 C   0  0  0  0  0  0  0  0  0  0  0  0
    8.1075   -0.5062   18.3352 H   0  0  0  0  0  0  0  0  0  0  0  0
    6.6066    0.5742   17.3886 N   0  0  0  0  0  0  0  0  0  0  0  0
    5.4778    1.2868   17.5463 C   0  0  0  0  0  0  0  0  0  0  0  0
    4.9935    1.7171   16.6743 H   0  0  0  0  0  0  0  0  0  0  0  0
    4.9072    1.4866   18.8015 C   0  0  0  0  0  0  0  0  0  0  0  0
    4.0059    2.0799   18.8847 H   0  0  0  0  0  0  0  0  0  0  0  0
    5.5091    0.9569   19.9383 C   0  0  0  0  0  0  0  0  0  0  0  0
    5.0796    1.1219   20.9238 H   0  0  0  0  0  0  0  0  0  0  0  0
    8.5186   -1.1936   20.7967 C   0  0  0  0  0  0  0  0  0  0  0  0
    8.8374   -1.4118   19.7839 H   0  0  0  0  0  0  0  0  0  0  0  0
    9.2031   -1.7356   21.8234 N   0  0  0  0  0  0  0  0  0  0  0  0
    8.7861   -1.4264   23.0525 C   0  0  0  0  0  0  0  0  0  0  0  0
    9.3432   -1.8545   23.8765 H   0  0  0  0  0  0  0  0  0  0  0  0
  1  2  1  0
  2  3  1  0
  3  4  2  0
  3  5  1  0
  5  6  1  0
  3  7  1  0
  7  8  2  0
  8  9  1  0
  9 10  1  0
 10 11  2  0
 11 12  1  0
 11 13  1  0
 13 14  2  0
 14 15  1  0
 14 16  1  0
 16 17  1  0
 16 18  2  0
 18 19  1  0
  9 20  2  0
 20 21  1  0
 20 22  1  0
 22 23  2  0
 23 24  1  0
 23  7  1  0
 18 10  1  0
M  END
>  <cnnaffinity>  (1) 
-4.4779

>  <filename>  (1) 
O=P(O)(O)c1cncc(-c2cccnc2)n1

$$$$
