
     RDKit          3D

 30 31  0  0  0  0  0  0  0  0999 V2000
   12.5852    3.1310   21.3071 H   0  0  0  0  0  0  0  0  0  0  0  0
   11.8800    2.7703   20.7583 O   0  0  0  0  0  0  0  0  0  0  0  0
   10.9280    2.2343   21.9009 P   0  0  0  0  0  0  0  0  0  0  0  0
   10.8128    3.3224   22.9018 O   0  0  0  0  0  0  0  0  0  0  0  0
   11.8639    1.2424   22.7083 O   0  0  0  0  0  0  0  0  0  0  0  0
   12.4476    1.9091   23.0928 H   0  0  0  0  0  0  0  0  0  0  0  0
    9.2738    1.5459   21.2153 C   0  0  0  0  0  0  0  0  0  0  0  0
    8.5477    2.4892   20.5663 F   0  0  0  0  0  0  0  0  0  0  0  0
    9.4622    0.5141   20.3322 F   0  0  0  0  0  0  0  0  0  0  0  0
    8.4233    1.1177   22.3212 N   0  0  0  0  0  0  0  0  0  0  0  0
    8.3890    1.7402   23.5611 C   0  0  0  0  0  0  0  0  0  0  0  0
    9.0174    2.5753   23.8520 H   0  0  0  0  0  0  0  0  0  0  0  0
    7.4339    1.1251   24.3200 C   0  0  0  0  0  0  0  0  0  0  0  0
    7.1572    1.3863   25.3390 H   0  0  0  0  0  0  0  0  0  0  0  0
    6.8572    0.0689   23.4982 C   0  0  0  0  0  0  0  0  0  0  0  0
    6.0728   -0.6254   23.7789 H   0  0  0  0  0  0  0  0  0  0  0  0
    7.4842    0.0964   22.2799 C   0  0  0  0  0  0  0  0  0  0  0  0
    7.2516   -0.8150   21.0962 C   0  0  0  0  0  0  0  0  0  0  0  0
    6.6055   -1.6508   21.3865 H   0  0  0  0  0  0  0  0  0  0  0  0
    8.2163   -1.2269   20.7836 H   0  0  0  0  0  0  0  0  0  0  0  0
    6.6161   -0.0671   19.9438 C   0  0  0  0  0  0  0  0  0  0  0  0
    7.2167   -0.0255   18.6715 C   0  0  0  0  0  0  0  0  0  0  0  0
    8.1529   -0.5559   18.5272 H   0  0  0  0  0  0  0  0  0  0  0  0
    6.6812    0.6372   17.6244 N   0  0  0  0  0  0  0  0  0  0  0  0
    5.5188    1.2846   17.8213 C   0  0  0  0  0  0  0  0  0  0  0  0
    5.0734    1.8277   16.9914 H   0  0  0  0  0  0  0  0  0  0  0  0
    4.8614    1.2953   19.0575 C   0  0  0  0  0  0  0  0  0  0  0  0
    3.9357    1.8469   19.1684 H   0  0  0  0  0  0  0  0  0  0  0  0
    5.4127    0.6095   20.1385 C   0  0  0  0  0  0  0  0  0  0  0  0
    4.9251    0.6049   21.1122 H   0  0  0  0  0  0  0  0  0  0  0  0
  1  2  1  0
  2  3  1  0
  3  4  2  0
  3  5  1  0
  5  6  1  0
  3  7  1  0
  7  8  1  0
  7  9  1  0
  7 10  1  0
 10 11  1  0
 11 12  1  0
 11 13  2  0
 13 14  1  0
 13 15  1  0
 15 16  1  0
 15 17  2  0
 17 18  1  0
 18 19  1  0
 18 20  1  0
 18 21  1  0
 21 22  2  0
 22 23  1  0
 22 24  1  0
 24 25  2  0
 25 26  1  0
 25 27  1  0
 27 28  1  0
 27 29  2  0
 29 30  1  0
 17 10  1  0
 29 21  1  0
M  END
>  <cnnaffinity>  (1) 
-4.72938

>  <filename>  (1) 
O=P(O)(O)C(F)(F)n1cccc1Cc1cccnc1

$$$$
