
     RDKit          3D

 29 30  0  0  0  0  0  0  0  0999 V2000
   11.5234   -3.5254   23.0470 H   0  0  0  0  0  0  0  0  0  0  0  0
   11.7951   -2.7161   22.5953 O   0  0  0  0  0  0  0  0  0  0  0  0
   10.4356   -1.9210   22.7092 P   0  0  0  0  0  0  0  0  0  0  0  0
    9.4479   -3.0029   22.5339 O   0  0  0  0  0  0  0  0  0  0  0  0
   10.3326   -1.6156   24.2633 O   0  0  0  0  0  0  0  0  0  0  0  0
   10.3273   -2.5333   24.5691 H   0  0  0  0  0  0  0  0  0  0  0  0
   10.2709   -0.4010   21.5232 C   0  0  0  0  0  0  0  0  0  0  0  0
    9.7976   -0.7719   20.2932 F   0  0  0  0  0  0  0  0  0  0  0  0
   11.4941    0.1921   21.3352 F   0  0  0  0  0  0  0  0  0  0  0  0
    9.2932    0.6315   22.0625 C   0  0  0  0  0  0  0  0  0  0  0  0
    7.9257    0.6017   21.9853 C   0  0  0  0  0  0  0  0  0  0  0  0
    7.0490   -0.4289   21.3238 C   0  0  0  0  0  0  0  0  0  0  0  0
    7.6475   -1.3045   21.0641 H   0  0  0  0  0  0  0  0  0  0  0  0
    6.2791   -0.7751   22.0172 H   0  0  0  0  0  0  0  0  0  0  0  0
    6.4239    0.1611   20.0771 C   0  0  0  0  0  0  0  0  0  0  0  0
    7.1033    0.0815   18.8491 C   0  0  0  0  0  0  0  0  0  0  0  0
    8.0623   -0.4250   18.8136 H   0  0  0  0  0  0  0  0  0  0  0  0
    6.6372    0.6153   17.7050 N   0  0  0  0  0  0  0  0  0  0  0  0
    5.4597    1.2615   17.7453 C   0  0  0  0  0  0  0  0  0  0  0  0
    5.0645    1.7028   16.8347 H   0  0  0  0  0  0  0  0  0  0  0  0
    4.7182    1.3851   18.9224 C   0  0  0  0  0  0  0  0  0  0  0  0
    3.7804    1.9262   18.8856 H   0  0  0  0  0  0  0  0  0  0  0  0
    5.1982    0.8364   20.1139 C   0  0  0  0  0  0  0  0  0  0  0  0
    4.6443    0.9531   21.0439 H   0  0  0  0  0  0  0  0  0  0  0  0
    7.4538    1.8346   22.5961 C   0  0  0  0  0  0  0  0  0  0  0  0
    6.4128    2.1335   22.7076 H   0  0  0  0  0  0  0  0  0  0  0  0
    8.4724    2.5479   23.0168 N   0  0  0  0  0  0  0  0  0  0  0  0
    9.5905    1.8449   22.6701 N   0  0  0  0  0  0  0  0  0  0  0  0
   10.5325    2.2402   22.7242 H   0  0  0  0  0  0  0  0  0  0  0  0
  1  2  1  0
  2  3  1  0
  3  4  2  0
  3  5  1  0
  5  6  1  0
  3  7  1  0
  7  8  1  0
  7  9  1  0
  7 10  1  0
 10 11  2  0
 11 12  1  0
 12 13  1  0
 12 14  1  0
 12 15  1  0
 15 16  2  0
 16 17  1  0
 16 18  1  0
 18 19  2  0
 19 20  1  0
 19 21  1  0
 21 22  1  0
 21 23  2  0
 23 24  1  0
 11 25  1  0
 25 26  1  0
 25 27  2  0
 27 28  1  0
 28 29  1  0
 28 10  1  0
 23 15  1  0
M  END
>  <cnnaffinity>  (1) 
-5.14229

>  <filename>  (1) 
O=P(O)(O)C(F)(F)c1[nH]ncc1Cc1cccnc1

$$$$
