
     RDKit          3D

 30 31  0  0  0  0  0  0  0  0999 V2000
    7.0468   -6.4316   24.0876 H   0  0  0  0  0  0  0  0  0  0  0  0
    6.7655   -5.9919   23.2373 O   0  0  0  0  0  0  0  0  0  0  0  0
    6.9814   -4.6432   23.9893 P   0  0  0  0  0  0  0  0  0  0  0  0
    8.3667   -4.1634   24.1699 O   0  0  0  0  0  0  0  0  0  0  0  0
    6.5891   -5.9339   24.7787 O   0  0  0  0  0  0  0  0  0  0  0  0
    6.2234   -6.3370   23.9472 H   0  0  0  0  0  0  0  0  0  0  0  0
    5.8750   -3.0721   23.7436 C   0  0  0  0  0  0  0  0  0  0  0  0
    5.5565   -2.5090   24.9499 F   0  0  0  0  0  0  0  0  0  0  0  0
    4.6835   -3.3953   23.1451 F   0  0  0  0  0  0  0  0  0  0  0  0
    6.5751   -2.0206   22.8869 C   0  0  0  0  0  0  0  0  0  0  0  0
    6.7752   -2.1239   21.5384 C   0  0  0  0  0  0  0  0  0  0  0  0
    6.4479   -2.9618   20.9318 H   0  0  0  0  0  0  0  0  0  0  0  0
    7.5392   -0.9622   20.9854 C   0  0  1  0  0  0  0  0  0  0  0  0
    8.5029   -1.3166   20.6021 H   0  0  0  0  0  0  0  0  0  0  0  0
    6.7725   -0.2504   19.8925 C   0  0  0  0  0  0  0  0  0  0  0  0
    7.2822   -0.2130   18.5857 C   0  0  0  0  0  0  0  0  0  0  0  0
    8.2071   -0.7424   18.3831 H   0  0  0  0  0  0  0  0  0  0  0  0
    6.6905    0.4526   17.5766 N   0  0  0  0  0  0  0  0  0  0  0  0
    5.5571    1.1234   17.8486 C   0  0  0  0  0  0  0  0  0  0  0  0
    5.0757    1.6860   17.0540 H   0  0  0  0  0  0  0  0  0  0  0  0
    4.9805    1.1318   19.1239 C   0  0  0  0  0  0  0  0  0  0  0  0
    4.0747    1.6986   19.2960 H   0  0  0  0  0  0  0  0  0  0  0  0
    5.5820    0.4279   20.1654 C   0  0  0  0  0  0  0  0  0  0  0  0
    5.1559    0.4231   21.1686 H   0  0  0  0  0  0  0  0  0  0  0  0
    7.7749   -0.0496   22.2021 C   0  0  0  0  0  0  0  0  0  0  0  0
    8.8472    0.1139   22.3503 H   0  0  0  0  0  0  0  0  0  0  0  0
    7.3030    0.9281   22.0538 H   0  0  0  0  0  0  0  0  0  0  0  0
    7.1695   -0.7519   23.4263 C   0  0  0  0  0  0  0  0  0  0  0  0
    6.4014   -0.1239   23.8957 H   0  0  0  0  0  0  0  0  0  0  0  0
    7.9483   -0.9752   24.1637 H   0  0  0  0  0  0  0  0  0  0  0  0
  1  2  1  0
  2  3  1  0
  3  4  2  0
  3  5  1  0
  5  6  1  0
  3  7  1  0
  7  8  1  0
  7  9  1  0
  7 10  1  0
 10 11  2  0
 11 12  1  0
 11 13  1  0
 13 14  1  6
 13 15  1  0
 15 16  2  0
 16 17  1  0
 16 18  1  0
 18 19  2  0
 19 20  1  0
 19 21  1  0
 21 22  1  0
 21 23  2  0
 23 24  1  0
 13 25  1  0
 25 26  1  0
 25 27  1  0
 25 28  1  0
 28 29  1  0
 28 30  1  0
 28 10  1  0
 23 15  1  0
M  END
>  <cnnaffinity>  (1) 
-4.56071

>  <filename>  (1) 
O=P(O)(O)C(F)(F)C1=C[C@@H](c2cccnc2)CC1

$$$$
