
     RDKit          3D

 27 28  0  0  0  0  0  0  0  0999 V2000
    7.3105   -3.1474   26.5137 H   0  0  0  0  0  0  0  0  0  0  0  0
    7.5104   -3.2530   25.5476 O   0  0  0  0  0  0  0  0  0  0  0  0
    7.5368   -1.6961   25.4911 P   0  0  0  0  0  0  0  0  0  0  0  0
    6.2618   -0.9495   25.4845 O   0  0  0  0  0  0  0  0  0  0  0  0
    7.8904   -2.4416   26.8238 O   0  0  0  0  0  0  0  0  0  0  0  0
    8.0968   -3.2559   26.2987 H   0  0  0  0  0  0  0  0  0  0  0  0
    8.7152   -0.7095   24.3415 C   0  0  0  0  0  0  0  0  0  0  0  0
   10.0005   -1.1761   24.3873 F   0  0  0  0  0  0  0  0  0  0  0  0
    8.7743    0.6304   24.6161 F   0  0  0  0  0  0  0  0  0  0  0  0
    8.1678   -0.9393   22.9511 C   0  0  0  0  0  0  0  0  0  0  0  0
    7.9479   -0.0359   21.9357 C   0  0  0  0  0  0  0  0  0  0  0  0
    8.1672    1.0296   21.9712 H   0  0  0  0  0  0  0  0  0  0  0  0
    7.3219   -0.6932   20.8747 N   0  0  0  0  0  0  0  0  0  0  0  0
    6.6684   -0.0240   19.8351 C   0  0  0  0  0  0  0  0  0  0  0  0
    7.1643   -0.0450   18.5160 C   0  0  0  0  0  0  0  0  0  0  0  0
    8.0789   -0.5943   18.3083 H   0  0  0  0  0  0  0  0  0  0  0  0
    6.5700    0.6000   17.4958 N   0  0  0  0  0  0  0  0  0  0  0  0
    5.4563    1.3105   17.7567 C   0  0  0  0  0  0  0  0  0  0  0  0
    4.9613    1.8290   16.9411 H   0  0  0  0  0  0  0  0  0  0  0  0
    4.9135    1.3986   19.0447 C   0  0  0  0  0  0  0  0  0  0  0  0
    4.0236    1.9946   19.2124 H   0  0  0  0  0  0  0  0  0  0  0  0
    5.5195    0.7201   20.1008 C   0  0  0  0  0  0  0  0  0  0  0  0
    5.1294    0.7687   21.1164 H   0  0  0  0  0  0  0  0  0  0  0  0
    7.0632   -2.0044   21.2888 C   0  0  0  0  0  0  0  0  0  0  0  0
    6.1244   -3.1895   20.5860 S   0  0  0  0  0  0  0  0  0  0  0  0
    7.6633   -2.1622   22.5222 N   0  0  0  0  0  0  0  0  0  0  0  0
    7.4604   -2.9601   23.1194 H   0  0  0  0  0  0  0  0  0  0  0  0
  1  2  1  0
  2  3  1  0
  3  4  2  0
  3  5  1  0
  5  6  1  0
  3  7  1  0
  7  8  1  0
  7  9  1  0
  7 10  1  0
 10 11  2  0
 11 12  1  0
 11 13  1  0
 13 14  1  0
 14 15  2  0
 15 16  1  0
 15 17  1  0
 17 18  2  0
 18 19  1  0
 18 20  1  0
 20 21  1  0
 20 22  2  0
 22 23  1  0
 13 24  1  0
 24 25  2  0
 24 26  1  0
 26 27  1  0
 26 10  1  0
 22 14  1  0
M  END
>  <cnnaffinity>  (1) 
-5.07675

>  <filename>  (1) 
O=P(O)(O)C(F)(F)c1cn(-c2cccnc2)c(=S)[nH]1

$$$$
