
     RDKit          3D

 28 29  0  0  0  0  0  0  0  0999 V2000
    5.3723    1.9242   17.0488 H   0  0  0  0  0  0  0  0  0  0  0  0
    5.6826    1.3030   17.8868 C   0  0  0  0  0  0  0  0  0  0  0  0
    6.8310    0.6270   17.7278 N   0  0  0  0  0  0  0  0  0  0  0  0
    7.2509   -0.1387   18.7299 C   0  0  0  0  0  0  0  0  0  0  0  0
    8.1897   -0.6718   18.5765 H   0  0  0  0  0  0  0  0  0  0  0  0
    6.5216   -0.2541   19.9025 C   0  0  0  0  0  0  0  0  0  0  0  0
    7.3484   -1.0794   21.1584 S   0  0  0  0  0  0  0  0  0  0  0  0
    6.4377   -1.4038   22.2308 O   0  0  0  0  0  0  0  0  0  0  0  0
    8.3107   -2.0097   20.6337 O   0  0  0  0  0  0  0  0  0  0  0  0
    8.2208    0.2896   21.9063 N   0  0  0  0  0  0  0  0  0  0  0  0
    7.7220    0.0416   22.7493 H   0  0  0  0  0  0  0  0  0  0  0  0
    9.0495    1.5821   22.4120 N   0  0  0  0  0  0  0  0  0  0  0  0
    9.0802    2.1878   21.5852 H   0  0  0  0  0  0  0  0  0  0  0  0
   10.4322    1.1890   22.7389 C   0  0  0  0  0  0  0  0  0  0  0  0
   10.6976    0.2374   22.2332 H   0  0  0  0  0  0  0  0  0  0  0  0
   10.4554    0.9956   23.8259 H   0  0  0  0  0  0  0  0  0  0  0  0
   11.4398    2.2668   22.4155 C   0  0  0  0  0  0  0  0  0  0  0  0
   11.6909    2.8207   20.7944 S   0  0  0  0  0  0  0  0  0  0  0  0
   12.7505    4.0651   21.3250 C   0  0  0  0  0  0  0  0  0  0  0  0
   13.1421    4.7790   20.6209 H   0  0  0  0  0  0  0  0  0  0  0  0
   12.9625    4.0174   22.6649 C   0  0  0  0  0  0  0  0  0  0  0  0
   13.6508    4.6770   23.1819 H   0  0  0  0  0  0  0  0  0  0  0  0
   12.2009    2.9869   23.2889 C   0  0  0  0  0  0  0  0  0  0  0  0
   12.1751    2.7927   24.3540 H   0  0  0  0  0  0  0  0  0  0  0  0
    5.3236    0.4406   20.1036 C   0  0  0  0  0  0  0  0  0  0  0  0
    4.7539    0.3818   21.0362 H   0  0  0  0  0  0  0  0  0  0  0  0
    4.9038    1.2395   19.0470 C   0  0  0  0  0  0  0  0  0  0  0  0
    3.9978    1.8306   19.1150 H   0  0  0  0  0  0  0  0  0  0  0  0
  1  2  1  0
  2  3  2  0
  3  4  1  0
  4  5  1  0
  4  6  2  0
  6  7  1  0
  7  8  2  0
  7  9  2  0
  7 10  1  0
 10 11  1  0
 10 12  1  0
 12 13  1  0
 12 14  1  0
 14 15  1  0
 14 16  1  0
 14 17  1  0
 17 18  1  0
 18 19  1  0
 19 20  1  0
 19 21  2  0
 21 22  1  0
 21 23  1  0
 23 24  1  0
  6 25  1  0
 25 26  1  0
 25 27  2  0
 27 28  1  0
 27  2  1  0
 23 17  2  0
M  END
>  <cnnaffinity>  (1) 
-4.32278

>  <filename>  (1) 
O=S(=O)(NNCc1cccs1)c1cccnc1

$$$$
