
     RDKit          3D

 38 41  0  0  0  0  0  0  0  0999 V2000
    4.9965    1.7984   16.8904 H   0  0  0  0  0  0  0  0  0  0  0  0
    5.4290    1.2865   17.7450 C   0  0  0  0  0  0  0  0  0  0  0  0
    6.5706    0.6229   17.5109 N   0  0  0  0  0  0  0  0  0  0  0  0
    7.1434    0.0025   18.5453 C   0  0  0  0  0  0  0  0  0  0  0  0
    8.0618   -0.5427   18.3387 H   0  0  0  0  0  0  0  0  0  0  0  0
    6.6286    0.0271   19.8539 C   0  0  0  0  0  0  0  0  0  0  0  0
    7.4071   -0.5771   20.9458 C   0  0  0  0  0  0  0  0  0  0  0  0
    8.5833   -1.1824   20.6971 N   0  0  0  0  0  0  0  0  0  0  0  0
    8.9691   -1.5979   21.9298 N   0  0  0  0  0  0  0  0  0  0  0  0
   10.1435   -2.0904   22.4936 C   0  0  0  0  0  0  0  0  0  0  0  0
   10.9498   -2.4272   21.8642 H   0  0  0  0  0  0  0  0  0  0  0  0
    9.9813   -2.0491   23.8391 C   0  0  0  0  0  0  0  0  0  0  0  0
   10.6604   -2.3326   24.6326 H   0  0  0  0  0  0  0  0  0  0  0  0
    8.6661   -1.5707   24.1250 N   0  0  0  0  0  0  0  0  0  0  0  0
    8.0795   -0.7854   25.5066 S   0  0  0  0  0  0  0  0  0  0  0  0
    9.1725   -0.7735   26.4645 O   0  0  0  0  0  0  0  0  0  0  0  0
    6.7830   -1.3118   25.8663 O   0  0  0  0  0  0  0  0  0  0  0  0
    7.7977    0.7914   24.9117 N   0  0  0  0  0  0  0  0  0  0  0  0
    8.9520    1.4762   24.2863 C   0  0  0  0  0  0  0  0  0  0  0  0
    9.5091    0.7967   23.6238 H   0  0  0  0  0  0  0  0  0  0  0  0
    8.5367    2.2530   23.6280 H   0  0  0  0  0  0  0  0  0  0  0  0
    9.8723    2.1275   25.3397 C   0  0  0  0  0  0  0  0  0  0  0  0
   10.6226    2.7430   24.8395 H   0  0  0  0  0  0  0  0  0  0  0  0
   10.3632    1.3332   25.9181 H   0  0  0  0  0  0  0  0  0  0  0  0
    9.1557    2.9931   26.2237 O   0  0  0  0  0  0  0  0  0  0  0  0
    8.0833    2.3101   26.8761 C   0  0  0  0  0  0  0  0  0  0  0  0
    7.5662    3.0566   27.4808 H   0  0  0  0  0  0  0  0  0  0  0  0
    8.4655    1.5014   27.5184 H   0  0  0  0  0  0  0  0  0  0  0  0
    7.1128    1.7030   25.8482 C   0  0  0  0  0  0  0  0  0  0  0  0
    6.7044    2.5240   25.2395 H   0  0  0  0  0  0  0  0  0  0  0  0
    6.2684    1.1905   26.3202 H   0  0  0  0  0  0  0  0  0  0  0  0
    8.0906   -1.2909   22.8868 C   0  0  0  0  0  0  0  0  0  0  0  0
    7.0547   -0.5862   22.3187 C   0  0  0  0  0  0  0  0  0  0  0  0
    6.2734   -0.0712   22.8477 H   0  0  0  0  0  0  0  0  0  0  0  0
    5.3914    0.6633   20.0627 C   0  0  0  0  0  0  0  0  0  0  0  0
    4.8982    0.6418   21.0362 H   0  0  0  0  0  0  0  0  0  0  0  0
    4.7917    1.3181   18.9893 C   0  0  0  0  0  0  0  0  0  0  0  0
    3.8532    1.8524   19.0966 H   0  0  0  0  0  0  0  0  0  0  0  0
  1  2  1  0
  2  3  2  0
  3  4  1  0
  4  5  1  0
  4  6  2  0
  6  7  1  0
  7  8  2  0
  8  9  1  0
  9 10  1  0
 10 11  1  0
 10 12  2  0
 12 13  1  0
 12 14  1  0
 14 15  1  0
 15 16  2  0
 15 17  2  0
 15 18  1  0
 18 19  1  0
 19 20  1  0
 19 21  1  0
 19 22  1  0
 22 23  1  0
 22 24  1  0
 22 25  1  0
 25 26  1  0
 26 27  1  0
 26 28  1  0
 26 29  1  0
 29 30  1  0
 29 31  1  0
 14 32  1  0
 32 33  2  0
 33 34  1  0
  6 35  1  0
 35 36  1  0
 35 37  2  0
 37 38  1  0
 37  2  1  0
 33  7  1  0
 32  9  1  0
 29 18  1  0
M  END
>  <cnnaffinity>  (1) 
-5.39668

>  <filename>  (1) 
O=S(=O)(N1CCOCC1)n1ccn2nc(-c3cccnc3)cc12

$$$$
