
     RDKit          3D

 32 34  0  0  0  0  0  0  0  0999 V2000
    4.9293    1.7883   16.9990 H   0  0  0  0  0  0  0  0  0  0  0  0
    5.3997    1.2891   17.8455 C   0  0  0  0  0  0  0  0  0  0  0  0
    6.5577    0.6619   17.5919 N   0  0  0  0  0  0  0  0  0  0  0  0
    7.1713    0.0369   18.6014 C   0  0  0  0  0  0  0  0  0  0  0  0
    8.1255   -0.4283   18.3611 H   0  0  0  0  0  0  0  0  0  0  0  0
    6.6501   -0.0212   19.9127 C   0  0  0  0  0  0  0  0  0  0  0  0
    7.3349   -0.6996   20.9743 N   0  0  0  0  0  0  0  0  0  0  0  0
    6.7463   -1.5971   21.8575 C   0  0  0  0  0  0  0  0  0  0  0  0
    5.6946   -1.8341   21.7449 H   0  0  0  0  0  0  0  0  0  0  0  0
    7.7014   -2.0341   22.7096 C   0  0  0  0  0  0  0  0  0  0  0  0
    7.4925   -3.2211   24.0592 S   0  0  0  0  0  0  0  0  0  0  0  0
    6.5216   -4.2119   23.6035 O   0  0  0  0  0  0  0  0  0  0  0  0
    8.8311   -3.5701   24.5109 O   0  0  0  0  0  0  0  0  0  0  0  0
    6.7192   -2.2379   25.3382 C   0  0  0  0  0  0  0  0  0  0  0  0
    7.5166   -1.5953   26.2971 C   0  0  0  0  0  0  0  0  0  0  0  0
    8.6041   -1.6605   26.2753 H   0  0  0  0  0  0  0  0  0  0  0  0
    6.8985   -0.8754   27.3196 C   0  0  0  0  0  0  0  0  0  0  0  0
    7.4804   -0.3846   28.0916 H   0  0  0  0  0  0  0  0  0  0  0  0
    5.5061   -0.7920   27.3625 C   0  0  0  0  0  0  0  0  0  0  0  0
    4.7404    0.0848   28.6530 Cl  0  0  0  0  0  0  0  0  0  0  0  0
    4.7159   -1.3950   26.3833 C   0  0  0  0  0  0  0  0  0  0  0  0
    3.6373   -1.3109   26.4444 H   0  0  0  0  0  0  0  0  0  0  0  0
    5.3244   -2.1156   25.3581 C   0  0  0  0  0  0  0  0  0  0  0  0
    4.6985   -2.5914   24.6057 H   0  0  0  0  0  0  0  0  0  0  0  0
    8.8764   -1.3685   22.3345 N   0  0  0  0  0  0  0  0  0  0  0  0
    9.8208   -1.3789   22.7086 H   0  0  0  0  0  0  0  0  0  0  0  0
    8.6622   -0.5106   21.3085 C   0  0  0  0  0  0  0  0  0  0  0  0
    9.7998    0.5306   20.7175 S   0  0  0  0  0  0  0  0  0  0  0  0
    5.4443    0.6335   20.1682 C   0  0  0  0  0  0  0  0  0  0  0  0
    5.0318    0.6263   21.1781 H   0  0  0  0  0  0  0  0  0  0  0  0
    4.8149    1.3042   19.1144 C   0  0  0  0  0  0  0  0  0  0  0  0
    3.8853    1.8378   19.2614 H   0  0  0  0  0  0  0  0  0  0  0  0
  1  2  1  0
  2  3  2  0
  3  4  1  0
  4  5  1  0
  4  6  2  0
  6  7  1  0
  7  8  1  0
  8  9  1  0
  8 10  2  0
 10 11  1  0
 11 12  2  0
 11 13  2  0
 11 14  1  0
 14 15  2  0
 15 16  1  0
 15 17  1  0
 17 18  1  0
 17 19  2  0
 19 20  1  0
 19 21  1  0
 21 22  1  0
 21 23  2  0
 23 24  1  0
 10 25  1  0
 25 26  1  0
 25 27  1  0
 27 28  2  0
  6 29  1  0
 29 30  1  0
 29 31  2  0
 31 32  1  0
 31  2  1  0
 27  7  1  0
 23 14  1  0
M  END
>  <cnnaffinity>  (1) 
-5.2801

>  <filename>  (1) 
O=S(=O)(c1ccc(Cl)cc1)c1cn(-c2cccnc2)c(=S)[nH]1

$$$$
