
     RDKit          3D

 30 31  0  0  0  0  0  0  0  0999 V2000
    5.0091    1.7789   16.9891 H   0  0  0  0  0  0  0  0  0  0  0  0
    5.4485    1.2643   17.8439 C   0  0  0  0  0  0  0  0  0  0  0  0
    6.5955    0.6090   17.6193 N   0  0  0  0  0  0  0  0  0  0  0  0
    7.1622   -0.0237   18.6571 C   0  0  0  0  0  0  0  0  0  0  0  0
    8.1034   -0.5323   18.4440 H   0  0  0  0  0  0  0  0  0  0  0  0
    6.6289   -0.0560   19.9570 C   0  0  0  0  0  0  0  0  0  0  0  0
    7.2947   -0.7878   21.1043 C   0  0  0  0  0  0  0  0  0  0  0  0
    6.5579   -1.4412   21.5922 H   0  0  0  0  0  0  0  0  0  0  0  0
    8.1099   -1.4297   20.7507 H   0  0  0  0  0  0  0  0  0  0  0  0
    7.8848    0.1423   22.1775 C   0  0  1  0  0  0  0  0  0  0  0  0
    7.1832    0.9018   22.5220 H   0  0  0  0  0  0  0  0  0  0  0  0
    8.2695   -0.6148   23.2569 F   0  0  0  0  0  0  0  0  0  0  0  0
    9.2595    1.1206   21.4315 S   0  0  0  0  0  0  0  0  0  0  0  0
   10.2446    0.1752   20.9175 O   0  0  0  0  0  0  0  0  0  0  0  0
    8.5703    2.0755   20.5707 O   0  0  0  0  0  0  0  0  0  0  0  0
   10.0680    2.1036   22.6859 C   0  0  0  0  0  0  0  0  0  0  0  0
   11.2950    1.7013   23.2207 C   0  0  0  0  0  0  0  0  0  0  0  0
   11.6823    0.7051   23.0191 H   0  0  0  0  0  0  0  0  0  0  0  0
   12.0702    2.6093   23.9475 C   0  0  0  0  0  0  0  0  0  0  0  0
   13.0429    2.2966   24.3073 H   0  0  0  0  0  0  0  0  0  0  0  0
   11.5905    3.9118   24.1456 C   0  0  0  0  0  0  0  0  0  0  0  0
   12.5939    5.1210   24.8966 Cl  0  0  0  0  0  0  0  0  0  0  0  0
   10.3191    4.2802   23.7016 C   0  0  0  0  0  0  0  0  0  0  0  0
    9.9448    5.2778   23.9032 H   0  0  0  0  0  0  0  0  0  0  0  0
    9.5597    3.3810   22.9541 C   0  0  0  0  0  0  0  0  0  0  0  0
    8.6151    3.6979   22.5164 H   0  0  0  0  0  0  0  0  0  0  0  0
    5.4327    0.6450   20.1659 C   0  0  0  0  0  0  0  0  0  0  0  0
    4.9816    0.6681   21.1595 H   0  0  0  0  0  0  0  0  0  0  0  0
    4.8263    1.3046   19.0938 C   0  0  0  0  0  0  0  0  0  0  0  0
    3.9003    1.8536   19.2182 H   0  0  0  0  0  0  0  0  0  0  0  0
  1  2  1  0
  2  3  2  0
  3  4  1  0
  4  5  1  0
  4  6  2  0
  6  7  1  0
  7  8  1  0
  7  9  1  0
  7 10  1  0
 10 11  1  1
 10 12  1  0
 10 13  1  0
 13 14  2  0
 13 15  2  0
 13 16  1  0
 16 17  2  0
 17 18  1  0
 17 19  1  0
 19 20  1  0
 19 21  2  0
 21 22  1  0
 21 23  1  0
 23 24  1  0
 23 25  2  0
 25 26  1  0
  6 27  1  0
 27 28  1  0
 27 29  2  0
 29 30  1  0
 29  2  1  0
 25 16  1  0
M  END
>  <cnnaffinity>  (1) 
-5.32272

>  <filename>  (1) 
O=S(=O)(c1ccc(Cl)cc1)[C@H](F)Cc1cccnc1

$$$$
