
     RDKit          3D

 35 36  0  0  0  0  0  0  0  0999 V2000
    7.6020   -3.8882   23.8826 O   0  0  0  0  0  0  0  0  0  0  0  0
    9.2279   -3.8193   23.2004 S   0  0  0  0  0  0  0  0  0  0  0  0
   10.1295   -2.9553   23.9477 O   0  0  0  0  0  0  0  0  0  0  0  0
    8.4698   -2.8779   22.0000 N   0  0  0  0  0  0  0  0  0  0  0  0
    8.4656   -1.4459   22.3738 C   0  0  0  0  0  0  0  0  0  0  0  0
    7.4713   -0.8024   21.4592 C   0  0  0  0  0  0  0  0  0  0  0  0
    7.7877   -0.4911   20.1984 C   0  0  0  0  0  0  0  0  0  0  0  0
    6.9358    0.2278   19.2448 C   0  0  0  0  0  0  0  0  0  0  0  0
    5.7064    0.8026   19.6020 C   0  0  0  0  0  0  0  0  0  0  0  0
    4.9869    1.5042   18.6366 C   0  0  0  0  0  0  0  0  0  0  0  0
    5.5149    1.6076   17.3462 C   0  0  0  0  0  0  0  0  0  0  0  0
    6.6777    1.0430   16.9737 N   0  0  0  0  0  0  0  0  0  0  0  0
    7.3562    0.3779   17.9116 C   0  0  0  0  0  0  0  0  0  0  0  0
    8.2948   -0.0823   17.5975 H   0  0  0  0  0  0  0  0  0  0  0  0
    4.9853    2.1527   16.5708 H   0  0  0  0  0  0  0  0  0  0  0  0
    4.0487    1.9901   18.8796 H   0  0  0  0  0  0  0  0  0  0  0  0
    5.3322    0.7135   20.6217 H   0  0  0  0  0  0  0  0  0  0  0  0
    8.7696   -0.7923   19.8190 H   0  0  0  0  0  0  0  0  0  0  0  0
    6.4565   -0.6814   21.8422 H   0  0  0  0  0  0  0  0  0  0  0  0
    8.2002   -1.2199   23.4257 H   0  0  0  0  0  0  0  0  0  0  0  0
    9.4729   -1.0459   22.1778 H   0  0  0  0  0  0  0  0  0  0  0  0
    7.5184   -3.2385   22.0921 H   0  0  0  0  0  0  0  0  0  0  0  0
    7.1656   -4.6527   25.1046 C   0  0  0  0  0  0  0  0  0  0  0  0
    6.5453   -5.8441   24.9948 N   0  0  0  0  0  0  0  0  0  0  0  0
    6.1560   -6.5016   26.0933 C   0  0  0  0  0  0  0  0  0  0  0  0
    6.3353   -6.0148   27.3854 C   0  0  0  0  0  0  0  0  0  0  0  0
    6.8993   -4.7518   27.5336 C   0  0  0  0  0  0  0  0  0  0  0  0
    7.2587   -4.0188   26.4007 C   0  0  0  0  0  0  0  0  0  0  0  0
    7.7272   -2.5957   26.5191 C   0  0  0  0  0  0  0  0  0  0  0  0
    9.0698   -2.5436   26.5516 F   0  0  0  0  0  0  0  0  0  0  0  0
    7.3103   -1.8019   25.5144 F   0  0  0  0  0  0  0  0  0  0  0  0
    7.2805   -1.9997   27.6355 F   0  0  0  0  0  0  0  0  0  0  0  0
    7.0313   -4.3350   28.5291 H   0  0  0  0  0  0  0  0  0  0  0  0
    6.0243   -6.6037   28.2394 H   0  0  0  0  0  0  0  0  0  0  0  0
    5.6939   -7.4719   25.9187 H   0  0  0  0  0  0  0  0  0  0  0  0
  1  2  2  0
  2  3  2  0
  2  4  1  0
  4  5  1  0
  5  6  1  0
  6  7  2  3
  7  8  1  0
  8  9  2  0
  9 10  1  0
 10 11  2  0
 11 12  1  0
 12 13  2  0
 13 14  1  0
 11 15  1  0
 10 16  1  0
  9 17  1  0
  7 18  1  0
  6 19  1  0
  5 20  1  0
  5 21  1  0
  4 22  1  0
  2 23  1  0
 23 24  2  0
 24 25  1  0
 25 26  2  0
 26 27  1  0
 27 28  2  0
 28 29  1  0
 29 30  1  0
 29 31  1  0
 29 32  1  0
 27 33  1  0
 26 34  1  0
 25 35  1  0
 13  8  1  0
 28 23  1  0
M  END
>  <cnnaffinity>  (1) 
-5.55382

>  <filename>  (1) 
O=S(=O)(NCC=Cc1cccnc1)c1ncccc1C(F)(F)F

$$$$
