
     RDKit          3D

 37 40  0  0  0  0  0  0  0  0999 V2000
    4.9637    1.8367   16.9151 H   0  0  0  0  0  0  0  0  0  0  0  0
    5.4122    1.2978   17.7492 C   0  0  0  0  0  0  0  0  0  0  0  0
    6.5622    0.6514   17.5004 N   0  0  0  0  0  0  0  0  0  0  0  0
    7.1523    0.0127   18.5155 C   0  0  0  0  0  0  0  0  0  0  0  0
    8.0861   -0.4943   18.2784 H   0  0  0  0  0  0  0  0  0  0  0  0
    6.6286   -0.0271   19.8191 C   0  0  0  0  0  0  0  0  0  0  0  0
    7.3590   -0.6592   20.9257 C   0  0  0  0  0  0  0  0  0  0  0  0
    8.4962   -1.3496   20.7402 N   0  0  0  0  0  0  0  0  0  0  0  0
    8.8860   -1.6012   22.0040 N   0  0  0  0  0  0  0  0  0  0  0  0
   10.0449   -2.1066   22.5716 C   0  0  0  0  0  0  0  0  0  0  0  0
   10.8317   -2.5223   21.9679 H   0  0  0  0  0  0  0  0  0  0  0  0
    9.9435   -1.8816   23.9017 C   0  0  0  0  0  0  0  0  0  0  0  0
   10.6204   -2.0322   24.7311 H   0  0  0  0  0  0  0  0  0  0  0  0
    8.7285   -1.2697   24.1454 N   0  0  0  0  0  0  0  0  0  0  0  0
    8.4085   -0.6254   25.3394 N   0  0  0  0  0  0  0  0  0  0  0  0
    8.6791   -1.1863   26.1476 H   0  0  0  0  0  0  0  0  0  0  0  0
    6.7591   -0.7003   25.7943 S   0  0  0  0  0  0  0  0  0  0  0  0
    6.9653   -0.7509   27.2299 O   0  0  0  0  0  0  0  0  0  0  0  0
    6.0969   -1.7570   25.0603 O   0  0  0  0  0  0  0  0  0  0  0  0
    6.0882    0.8653   25.2841 C   0  0  0  0  0  0  0  0  0  0  0  0
    4.7071    0.9624   25.0335 C   0  0  0  0  0  0  0  0  0  0  0  0
    4.0592    0.0886   25.0914 H   0  0  0  0  0  0  0  0  0  0  0  0
    4.1551    2.2025   24.6988 C   0  0  0  0  0  0  0  0  0  0  0  0
    3.0843    2.2985   24.5432 H   0  0  0  0  0  0  0  0  0  0  0  0
    4.9695    3.3347   24.5906 C   0  0  0  0  0  0  0  0  0  0  0  0
    4.5389    4.2973   24.3252 H   0  0  0  0  0  0  0  0  0  0  0  0
    6.3451    3.2194   24.8140 C   0  0  0  0  0  0  0  0  0  0  0  0
    6.9798    4.0963   24.7316 H   0  0  0  0  0  0  0  0  0  0  0  0
    6.9129    1.9908   25.1587 C   0  0  0  0  0  0  0  0  0  0  0  0
    7.9877    1.9214   25.3135 H   0  0  0  0  0  0  0  0  0  0  0  0
    8.0752   -1.0814   22.9525 C   0  0  0  0  0  0  0  0  0  0  0  0
    7.0142   -0.4980   22.2840 C   0  0  0  0  0  0  0  0  0  0  0  0
    6.1245   -0.0567   22.6997 H   0  0  0  0  0  0  0  0  0  0  0  0
    5.4145    0.6385   20.0552 C   0  0  0  0  0  0  0  0  0  0  0  0
    4.9649    0.6328   21.0495 H   0  0  0  0  0  0  0  0  0  0  0  0
    4.7982    1.3088   19.0048 C   0  0  0  0  0  0  0  0  0  0  0  0
    3.8753    1.8567   19.1578 H   0  0  0  0  0  0  0  0  0  0  0  0
  1  2  1  0
  2  3  2  0
  3  4  1  0
  4  5  1  0
  4  6  2  0
  6  7  1  0
  7  8  2  0
  8  9  1  0
  9 10  1  0
 10 11  1  0
 10 12  2  0
 12 13  1  0
 12 14  1  0
 14 15  1  0
 15 16  1  0
 15 17  1  0
 17 18  2  0
 17 19  2  0
 17 20  1  0
 20 21  2  0
 21 22  1  0
 21 23  1  0
 23 24  1  0
 23 25  2  0
 25 26  1  0
 25 27  1  0
 27 28  1  0
 27 29  2  0
 29 30  1  0
 14 31  1  0
 31 32  2  0
 32 33  1  0
  6 34  1  0
 34 35  1  0
 34 36  2  0
 36 37  1  0
 36  2  1  0
 32  7  1  0
 31  9  1  0
 29 20  1  0
M  END
>  <cnnaffinity>  (1) 
-5.42424

>  <filename>  (1) 
O=S(=O)(Nn1ccn2nc(-c3cccnc3)cc12)c1ccccc1

$$$$
