
     RDKit          3D

 39 41  0  0  0  0  0  0  0  0999 V2000
    7.2752    2.1227   21.7518 O   0  0  0  0  0  0  0  0  0  0  0  0
    8.5777    1.5417   22.0181 S   0  0  0  0  0  0  0  0  0  0  0  0
    9.7874    2.0950   21.4362 O   0  0  0  0  0  0  0  0  0  0  0  0
    8.6868    0.0247   21.3666 N   0  0  0  0  0  0  0  0  0  0  0  0
    7.4398   -0.6725   21.0474 C   0  0  0  0  0  0  0  0  0  0  0  0
    6.6733    0.0499   19.9495 C   0  0  0  0  0  0  0  0  0  0  0  0
    5.4347    0.6691   20.1590 C   0  0  0  0  0  0  0  0  0  0  0  0
    4.7953    1.3019   19.0900 C   0  0  0  0  0  0  0  0  0  0  0  0
    5.4117    1.2828   17.8338 C   0  0  0  0  0  0  0  0  0  0  0  0
    6.5808    0.6733   17.6005 N   0  0  0  0  0  0  0  0  0  0  0  0
    7.1878    0.0848   18.6434 C   0  0  0  0  0  0  0  0  0  0  0  0
    8.1231   -0.4166   18.3862 H   0  0  0  0  0  0  0  0  0  0  0  0
    4.9450    1.7776   16.9835 H   0  0  0  0  0  0  0  0  0  0  0  0
    3.8624    1.8380   19.2328 H   0  0  0  0  0  0  0  0  0  0  0  0
    4.9986    0.6958   21.1604 H   0  0  0  0  0  0  0  0  0  0  0  0
    7.8400   -2.0790   20.5992 C   0  0  0  0  0  0  0  0  0  0  0  0
    8.0278   -2.9701   21.8416 C   0  0  0  0  0  0  0  0  0  0  0  0
    7.3598   -2.1837   22.9965 C   0  0  0  0  0  0  0  0  0  0  0  0
    6.6377   -1.0101   22.3103 C   0  0  0  0  0  0  0  0  0  0  0  0
    6.4689   -0.1436   22.9616 H   0  0  0  0  0  0  0  0  0  0  0  0
    5.6760   -1.3580   21.9223 H   0  0  0  0  0  0  0  0  0  0  0  0
    6.6656   -2.7888   23.5890 H   0  0  0  0  0  0  0  0  0  0  0  0
    8.1303   -1.8065   23.6798 H   0  0  0  0  0  0  0  0  0  0  0  0
    7.5794   -3.9574   21.6840 H   0  0  0  0  0  0  0  0  0  0  0  0
    9.0924   -3.1363   22.0283 H   0  0  0  0  0  0  0  0  0  0  0  0
    7.0132   -2.4567   19.9883 H   0  0  0  0  0  0  0  0  0  0  0  0
    8.7486   -1.9858   19.9988 H   0  0  0  0  0  0  0  0  0  0  0  0
    9.1941    0.3374   20.5443 H   0  0  0  0  0  0  0  0  0  0  0  0
    8.7193    1.2802   23.7780 C   0  0  0  0  0  0  0  0  0  0  0  0
    7.7969    1.8950   24.6485 C   0  0  0  0  0  0  0  0  0  0  0  0
    7.9196    1.6696   26.0149 C   0  0  0  0  0  0  0  0  0  0  0  0
    7.0501    2.2617   26.8503 F   0  0  0  0  0  0  0  0  0  0  0  0
    8.9127    0.8538   26.5453 C   0  0  0  0  0  0  0  0  0  0  0  0
    9.8479    0.2879   25.6750 C   0  0  0  0  0  0  0  0  0  0  0  0
    9.7628    0.4871   24.2924 C   0  0  0  0  0  0  0  0  0  0  0  0
   10.5008    0.0110   23.6469 H   0  0  0  0  0  0  0  0  0  0  0  0
   10.6628   -0.3046   26.0797 H   0  0  0  0  0  0  0  0  0  0  0  0
    8.9143    0.6709   27.6124 H   0  0  0  0  0  0  0  0  0  0  0  0
    6.9746    2.5296   24.3200 H   0  0  0  0  0  0  0  0  0  0  0  0
  1  2  2  0
  2  3  2  0
  2  4  1  0
  4  5  1  0
  5  6  1  0
  6  7  2  0
  7  8  1  0
  8  9  2  0
  9 10  1  0
 10 11  2  0
 11 12  1  0
  9 13  1  0
  8 14  1  0
  7 15  1  0
  5 16  1  0
 16 17  1  0
 17 18  1  0
 18 19  1  0
 19 20  1  0
 19 21  1  0
 18 22  1  0
 18 23  1  0
 17 24  1  0
 17 25  1  0
 16 26  1  0
 16 27  1  0
  4 28  1  0
  2 29  1  0
 29 30  2  0
 30 31  1  0
 31 32  1  0
 31 33  2  0
 33 34  1  0
 34 35  2  0
 35 36  1  0
 34 37  1  0
 33 38  1  0
 30 39  1  0
 19  5  1  0
 35 29  1  0
 11  6  1  0
M  END
>  <cnnaffinity>  (1) 
-5.63166

>  <filename>  (1) 
O=S(=O)(NC1(c2cccnc2)CCCC1)c1cccc(F)c1

$$$$
