
     RDKit          3D

 41 43  0  0  0  0  0  0  0  0999 V2000
    7.1665   -4.8193   25.7625 O   0  0  0  0  0  0  0  0  0  0  0  0
    5.7350   -4.5620   25.7916 S   0  0  0  0  0  0  0  0  0  0  0  0
    4.8321   -5.0367   24.7595 O   0  0  0  0  0  0  0  0  0  0  0  0
    5.5206   -2.8226   25.9607 C   0  0  0  0  0  0  0  0  0  0  0  0
    5.6067   -2.2644   24.5695 C   0  0  0  0  0  0  0  0  0  0  0  0
    6.8925   -2.6514   24.0604 N   0  0  0  0  0  0  0  0  0  0  0  0
    7.3773   -2.0736   22.9506 C   0  0  0  0  0  0  0  0  0  0  0  0
    6.6247   -1.3867   22.1448 N   0  0  0  0  0  0  0  0  0  0  0  0
    7.3515   -0.8801   21.1007 C   0  0  0  0  0  0  0  0  0  0  0  0
    6.6508   -0.1213   20.0494 C   0  0  0  0  0  0  0  0  0  0  0  0
    5.4459    0.5712   20.2610 C   0  0  0  0  0  0  0  0  0  0  0  0
    4.8857    1.2545   19.1833 C   0  0  0  0  0  0  0  0  0  0  0  0
    5.5297    1.2211   17.9406 C   0  0  0  0  0  0  0  0  0  0  0  0
    6.6651    0.5453   17.7176 N   0  0  0  0  0  0  0  0  0  0  0  0
    7.1985   -0.1001   18.7575 C   0  0  0  0  0  0  0  0  0  0  0  0
    8.1148   -0.6470   18.5492 H   0  0  0  0  0  0  0  0  0  0  0  0
    5.1158    1.7449   17.0826 H   0  0  0  0  0  0  0  0  0  0  0  0
    3.9680    1.8204   19.2880 H   0  0  0  0  0  0  0  0  0  0  0  0
    4.9647    0.5697   21.2422 H   0  0  0  0  0  0  0  0  0  0  0  0
    8.6858   -1.1355   21.1254 C   0  0  0  0  0  0  0  0  0  0  0  0
    9.0753   -2.1256   22.4977 S   0  0  0  0  0  0  0  0  0  0  0  0
    9.4469   -0.7508   20.4657 H   0  0  0  0  0  0  0  0  0  0  0  0
    7.4212   -3.3499   24.5551 H   0  0  0  0  0  0  0  0  0  0  0  0
    5.5290   -1.1663   24.5945 H   0  0  0  0  0  0  0  0  0  0  0  0
    4.7978   -2.6794   23.9433 H   0  0  0  0  0  0  0  0  0  0  0  0
    4.5528   -2.6499   26.4266 H   0  0  0  0  0  0  0  0  0  0  0  0
    6.3254   -2.4644   26.6051 H   0  0  0  0  0  0  0  0  0  0  0  0
    5.1559   -5.0844   27.2350 N   0  0  0  0  0  0  0  0  0  0  0  0
    6.0224   -5.0561   28.4241 C   0  0  0  0  0  0  0  0  0  0  0  0
    5.4040   -4.2188   29.5465 C   0  0  0  0  0  0  0  0  0  0  0  0
    3.7952   -4.8758   30.1335 S   0  0  0  0  0  0  0  0  0  0  0  0
    3.3783   -5.9469   28.7111 C   0  0  0  0  0  0  0  0  0  0  0  0
    3.6981   -5.2839   27.3707 C   0  0  0  0  0  0  0  0  0  0  0  0
    3.1417   -4.3324   27.3092 H   0  0  0  0  0  0  0  0  0  0  0  0
    3.3472   -5.9304   26.5546 H   0  0  0  0  0  0  0  0  0  0  0  0
    2.3077   -6.1590   28.7866 H   0  0  0  0  0  0  0  0  0  0  0  0
    3.9256   -6.8927   28.7893 H   0  0  0  0  0  0  0  0  0  0  0  0
    5.2660   -3.1896   29.1898 H   0  0  0  0  0  0  0  0  0  0  0  0
    6.0842   -4.1915   30.4025 H   0  0  0  0  0  0  0  0  0  0  0  0
    7.0124   -4.6589   28.1764 H   0  0  0  0  0  0  0  0  0  0  0  0
    6.1866   -6.0851   28.7773 H   0  0  0  0  0  0  0  0  0  0  0  0
  1  2  2  0
  2  3  2  0
  2  4  1  0
  4  5  1  0
  5  6  1  0
  6  7  1  0
  7  8  2  0
  8  9  1  0
  9 10  1  0
 10 11  2  0
 11 12  1  0
 12 13  2  0
 13 14  1  0
 14 15  2  0
 15 16  1  0
 13 17  1  0
 12 18  1  0
 11 19  1  0
  9 20  2  0
 20 21  1  0
 20 22  1  0
  6 23  1  0
  5 24  1  0
  5 25  1  0
  4 26  1  0
  4 27  1  0
  2 28  1  0
 28 29  1  0
 29 30  1  0
 30 31  1  0
 31 32  1  0
 32 33  1  0
 33 34  1  0
 33 35  1  0
 32 36  1  0
 32 37  1  0
 30 38  1  0
 30 39  1  0
 29 40  1  0
 29 41  1  0
 21  7  1  0
 33 28  1  0
 15 10  1  0
M  END
>  <cnnaffinity>  (1) 
-4.97615

>  <filename>  (1) 
O=S(=O)(CCNc1nc(-c2cccnc2)cs1)N1CCSCC1

$$$$
