
     RDKit          3D

 28 29  0  0  0  0  0  0  0  0999 V2000
    4.9679    1.7437   17.0374 H   0  0  0  0  0  0  0  0  0  0  0  0
    5.4596    1.2475   17.8738 C   0  0  0  0  0  0  0  0  0  0  0  0
    6.6276    0.6375   17.6103 N   0  0  0  0  0  0  0  0  0  0  0  0
    7.2677    0.0370   18.6250 C   0  0  0  0  0  0  0  0  0  0  0  0
    8.2124   -0.4535   18.3991 H   0  0  0  0  0  0  0  0  0  0  0  0
    6.7575    0.0178   19.9399 C   0  0  0  0  0  0  0  0  0  0  0  0
    7.5545   -0.6102   20.9405 O   0  0  0  0  0  0  0  0  0  0  0  0
    6.8528   -1.0306   22.3653 S   0  0  0  0  0  0  0  0  0  0  0  0
    6.4139    0.1774   23.0172 O   0  0  0  0  0  0  0  0  0  0  0  0
    5.9659   -2.1357   22.0755 O   0  0  0  0  0  0  0  0  0  0  0  0
    8.2296   -1.7135   23.2442 C   0  0  0  0  0  0  0  0  0  0  0  0
    8.2704   -2.7359   22.8649 H   0  0  0  0  0  0  0  0  0  0  0  0
    7.8305   -1.7426   24.2576 H   0  0  0  0  0  0  0  0  0  0  0  0
    9.5740   -1.0435   23.1377 C   0  0  0  0  0  0  0  0  0  0  0  0
   10.3812   -1.3897   22.0420 C   0  0  0  0  0  0  0  0  0  0  0  0
    9.9868   -2.0985   21.3209 H   0  0  0  0  0  0  0  0  0  0  0  0
   11.6379   -0.8141   21.8475 C   0  0  0  0  0  0  0  0  0  0  0  0
   12.2379   -1.0978   20.9854 H   0  0  0  0  0  0  0  0  0  0  0  0
   12.1119    0.1299   22.7641 C   0  0  0  0  0  0  0  0  0  0  0  0
   13.0739    0.6119   22.6028 H   0  0  0  0  0  0  0  0  0  0  0  0
   11.3421    0.4792   23.8776 C   0  0  0  0  0  0  0  0  0  0  0  0
   11.6929    1.2152   24.5964 H   0  0  0  0  0  0  0  0  0  0  0  0
   10.0884   -0.1206   24.0673 C   0  0  0  0  0  0  0  0  0  0  0  0
    9.1884    0.3286   25.4941 Cl  0  0  0  0  0  0  0  0  0  0  0  0
    5.5369    0.6322   20.2117 C   0  0  0  0  0  0  0  0  0  0  0  0
    5.1160    0.6475   21.2138 H   0  0  0  0  0  0  0  0  0  0  0  0
    4.8780    1.2603   19.1452 C   0  0  0  0  0  0  0  0  0  0  0  0
    3.9324    1.7648   19.3015 H   0  0  0  0  0  0  0  0  0  0  0  0
  1  2  1  0
  2  3  2  0
  3  4  1  0
  4  5  1  0
  4  6  2  0
  6  7  1  0
  7  8  1  0
  8  9  2  0
  8 10  2  0
  8 11  1  0
 11 12  1  0
 11 13  1  0
 11 14  1  0
 14 15  2  0
 15 16  1  0
 15 17  1  0
 17 18  1  0
 17 19  2  0
 19 20  1  0
 19 21  1  0
 21 22  1  0
 21 23  2  0
 23 24  1  0
  6 25  1  0
 25 26  1  0
 25 27  2  0
 27 28  1  0
 27  2  1  0
 23 14  1  0
M  END
>  <cnnaffinity>  (1) 
-4.66354

>  <filename>  (1) 
O=S(=O)(Cc1ccccc1Cl)Oc1cccnc1

$$$$
