
     RDKit          3D

 29 30  0  0  0  0  0  0  0  0999 V2000
    5.0682    1.8419   16.5741 H   0  0  0  0  0  0  0  0  0  0  0  0
    5.4337    1.4536   17.5220 C   0  0  0  0  0  0  0  0  0  0  0  0
    6.6137    0.8084   17.4802 N   0  0  0  0  0  0  0  0  0  0  0  0
    7.0860    0.3183   18.6335 C   0  0  0  0  0  0  0  0  0  0  0  0
    8.0437   -0.2007   18.5966 H   0  0  0  0  0  0  0  0  0  0  0  0
    6.4190    0.4402   19.8640 C   0  0  0  0  0  0  0  0  0  0  0  0
    7.0821   -0.3577   21.3330 S   0  0  0  0  0  0  0  0  0  0  0  0
    5.9442   -1.6411   21.4255 N   0  0  0  0  0  0  0  0  0  0  0  0
    5.2078   -1.4899   22.1233 H   0  0  0  0  0  0  0  0  0  0  0  0
    6.3524   -3.0944   21.3315 N   0  0  0  0  0  0  0  0  0  0  0  0
    6.6742   -3.2726   20.3806 H   0  0  0  0  0  0  0  0  0  0  0  0
    7.6998   -3.9909   21.9803 S   0  0  0  0  0  0  0  0  0  0  0  0
    7.9214   -4.8942   20.8628 O   0  0  0  0  0  0  0  0  0  0  0  0
    8.7332   -3.1300   22.4994 O   0  0  0  0  0  0  0  0  0  0  0  0
    6.8945   -4.8412   23.3086 C   0  0  0  0  0  0  0  0  0  0  0  0
    7.1044   -4.3816   24.6153 C   0  0  0  0  0  0  0  0  0  0  0  0
    7.8209   -3.5901   24.8334 H   0  0  0  0  0  0  0  0  0  0  0  0
    6.3699   -4.9441   25.6590 C   0  0  0  0  0  0  0  0  0  0  0  0
    6.5062   -4.5710   26.6692 H   0  0  0  0  0  0  0  0  0  0  0  0
    5.4485   -5.9663   25.4081 C   0  0  0  0  0  0  0  0  0  0  0  0
    4.8772   -6.3973   26.2274 H   0  0  0  0  0  0  0  0  0  0  0  0
    5.2584   -6.4245   24.1009 C   0  0  0  0  0  0  0  0  0  0  0  0
    4.5313   -7.2077   23.9028 H   0  0  0  0  0  0  0  0  0  0  0  0
    5.9806   -5.8738   23.0379 C   0  0  0  0  0  0  0  0  0  0  0  0
    5.8151   -6.2562   22.0312 H   0  0  0  0  0  0  0  0  0  0  0  0
    5.1901    1.1101   19.8951 C   0  0  0  0  0  0  0  0  0  0  0  0
    4.6463    1.2115   20.8352 H   0  0  0  0  0  0  0  0  0  0  0  0
    4.6932    1.6318   18.6972 C   0  0  0  0  0  0  0  0  0  0  0  0
    3.7523    2.1739   18.6646 H   0  0  0  0  0  0  0  0  0  0  0  0
  1  2  1  0
  2  3  2  0
  3  4  1  0
  4  5  1  0
  4  6  2  0
  6  7  1  0
  7  8  1  0
  8  9  1  0
  8 10  1  0
 10 11  1  0
 10 12  1  0
 12 13  2  0
 12 14  2  0
 12 15  1  0
 15 16  2  0
 16 17  1  0
 16 18  1  0
 18 19  1  0
 18 20  2  0
 20 21  1  0
 20 22  1  0
 22 23  1  0
 22 24  2  0
 24 25  1  0
  6 26  1  0
 26 27  1  0
 26 28  2  0
 28 29  1  0
 28  2  1  0
 24 15  1  0
M  END
>  <cnnaffinity>  (1) 
-4.77608

>  <filename>  (1) 
O=S(=O)(NNSc1cccnc1)c1ccccc1

$$$$
