
     RDKit          3D

 42 44  0  0  0  0  0  0  0  0999 V2000
    4.9151    1.8024   16.9800 H   0  0  0  0  0  0  0  0  0  0  0  0
    5.3927    1.3004   17.8200 C   0  0  0  0  0  0  0  0  0  0  0  0
    6.5543    0.6840   17.5551 N   0  0  0  0  0  0  0  0  0  0  0  0
    7.1622    0.0674   18.5772 C   0  0  0  0  0  0  0  0  0  0  0  0
    8.1118   -0.4141   18.3421 H   0  0  0  0  0  0  0  0  0  0  0  0
    6.6665    0.0070   19.8907 C   0  0  0  0  0  0  0  0  0  0  0  0
    7.4185   -0.7289   20.9860 C   0  0  2  0  0  0  0  0  0  0  0  0
    8.3465   -1.1394   20.5538 H   0  0  0  0  0  0  0  0  0  0  0  0
    6.5999   -1.9253   21.5183 C   0  0  0  0  0  0  0  0  0  0  0  0
    6.3589   -2.6040   20.6923 H   0  0  0  0  0  0  0  0  0  0  0  0
    5.6355   -1.5514   21.8786 H   0  0  0  0  0  0  0  0  0  0  0  0
    7.3324   -2.6597   22.6518 C   0  0  0  0  0  0  0  0  0  0  0  0
    8.2563   -3.1107   22.2517 H   0  0  0  0  0  0  0  0  0  0  0  0
    6.7242   -3.4726   23.0630 H   0  0  0  0  0  0  0  0  0  0  0  0
    7.7066   -1.6784   23.7788 C   0  0  1  0  0  0  0  0  0  0  0  0
    6.7825   -1.2211   24.1712 H   0  0  0  0  0  0  0  0  0  0  0  0
    8.4078   -2.3167   24.8913 N   0  0  0  0  0  0  0  0  0  0  0  0
    8.9050   -3.1757   24.6746 H   0  0  0  0  0  0  0  0  0  0  0  0
    7.4850   -3.0050   26.0858 S   0  0  0  0  0  0  0  0  0  0  0  0
    8.4931   -3.6362   26.9081 O   0  0  0  0  0  0  0  0  0  0  0  0
    6.4527   -3.8096   25.4489 O   0  0  0  0  0  0  0  0  0  0  0  0
    6.7375   -1.6131   26.8867 C   0  0  0  0  0  0  0  0  0  0  0  0
    5.4169   -1.7352   27.3503 C   0  0  0  0  0  0  0  0  0  0  0  0
    4.8481   -2.6542   27.2116 H   0  0  0  0  0  0  0  0  0  0  0  0
    4.8232   -0.6576   28.0086 C   0  0  0  0  0  0  0  0  0  0  0  0
    3.8046   -0.7519   28.3711 H   0  0  0  0  0  0  0  0  0  0  0  0
    5.5282    0.5314   28.2113 C   0  0  0  0  0  0  0  0  0  0  0  0
    5.0563    1.3653   28.7223 H   0  0  0  0  0  0  0  0  0  0  0  0
    6.8444    0.6381   27.7532 C   0  0  0  0  0  0  0  0  0  0  0  0
    7.4001    1.5546   27.9172 H   0  0  0  0  0  0  0  0  0  0  0  0
    7.4605   -0.4266   27.0949 C   0  0  0  0  0  0  0  0  0  0  0  0
    8.4944   -0.3055   26.7699 H   0  0  0  0  0  0  0  0  0  0  0  0
    8.5716   -0.5286   23.2439 C   0  0  0  0  0  0  0  0  0  0  0  0
    8.8246    0.1367   24.0782 H   0  0  0  0  0  0  0  0  0  0  0  0
    9.5224   -0.9288   22.8633 H   0  0  0  0  0  0  0  0  0  0  0  0
    7.8361    0.2265   22.1270 C   0  0  0  0  0  0  0  0  0  0  0  0
    8.4563    1.0334   21.7201 H   0  0  0  0  0  0  0  0  0  0  0  0
    6.9389    0.7152   22.5389 H   0  0  0  0  0  0  0  0  0  0  0  0
    5.4458    0.6541   20.1381 C   0  0  0  0  0  0  0  0  0  0  0  0
    5.0044    0.6460   21.1385 H   0  0  0  0  0  0  0  0  0  0  0  0
    4.8020    1.3136   19.0889 C   0  0  0  0  0  0  0  0  0  0  0  0
    3.8681    1.8454   19.2434 H   0  0  0  0  0  0  0  0  0  0  0  0
  1  2  1  0
  2  3  2  0
  3  4  1  0
  4  5  1  0
  4  6  2  0
  6  7  1  0
  7  8  1  6
  7  9  1  0
  9 10  1  0
  9 11  1  0
  9 12  1  0
 12 13  1  0
 12 14  1  0
 12 15  1  0
 15 16  1  1
 15 17  1  0
 17 18  1  0
 17 19  1  0
 19 20  2  0
 19 21  2  0
 19 22  1  0
 22 23  2  0
 23 24  1  0
 23 25  1  0
 25 26  1  0
 25 27  2  0
 27 28  1  0
 27 29  1  0
 29 30  1  0
 29 31  2  0
 31 32  1  0
 15 33  1  0
 33 34  1  0
 33 35  1  0
 33 36  1  0
 36 37  1  0
 36 38  1  0
  6 39  1  0
 39 40  1  0
 39 41  2  0
 41 42  1  0
 41  2  1  0
 36  7  1  0
 31 22  1  0
M  END
>  <cnnaffinity>  (1) 
-5.30451

>  <filename>  (1) 
O=S(=O)(N[C@H]1CC[C@H](c2cccnc2)CC1)c1ccccc1

$$$$
