
     RDKit          3D

 32 34  0  0  0  0  0  0  0  0999 V2000
    4.9264    1.7563   17.0011 H   0  0  0  0  0  0  0  0  0  0  0  0
    5.4189    1.2757   17.8442 C   0  0  0  0  0  0  0  0  0  0  0  0
    6.5924    0.6702   17.5829 N   0  0  0  0  0  0  0  0  0  0  0  0
    7.2203    0.0688   18.6038 C   0  0  0  0  0  0  0  0  0  0  0  0
    8.1796   -0.4015   18.3866 H   0  0  0  0  0  0  0  0  0  0  0  0
    6.7283    0.0162   19.9334 C   0  0  0  0  0  0  0  0  0  0  0  0
    7.5318   -0.4860   21.0092 N   0  0  0  0  0  0  0  0  0  0  0  0
    8.1697   -1.2583   20.8562 H   0  0  0  0  0  0  0  0  0  0  0  0
    6.8922   -1.1378   22.4152 S   0  0  0  0  0  0  0  0  0  0  0  0
    5.7487   -1.9383   22.0109 O   0  0  0  0  0  0  0  0  0  0  0  0
    8.0536   -1.8392   22.9273 O   0  0  0  0  0  0  0  0  0  0  0  0
    6.6034    0.3265   23.4198 C   0  0  0  0  0  0  0  0  0  0  0  0
    7.1472    1.5279   22.9929 C   0  0  0  0  0  0  0  0  0  0  0  0
    7.6219    1.6215   22.0195 H   0  0  0  0  0  0  0  0  0  0  0  0
    7.0854    2.6862   23.7983 C   0  0  0  0  0  0  0  0  0  0  0  0
    7.5366    3.6006   23.4241 H   0  0  0  0  0  0  0  0  0  0  0  0
    6.4896    2.6592   25.0324 C   0  0  0  0  0  0  0  0  0  0  0  0
    6.4640    3.5443   25.6636 H   0  0  0  0  0  0  0  0  0  0  0  0
    5.9297    1.4454   25.5267 C   0  0  0  0  0  0  0  0  0  0  0  0
    5.3343    1.4105   26.8267 C   0  0  0  0  0  0  0  0  0  0  0  0
    5.3082    2.3272   27.4147 H   0  0  0  0  0  0  0  0  0  0  0  0
    4.8303    0.2335   27.3285 C   0  0  0  0  0  0  0  0  0  0  0  0
    4.3823    0.2109   28.3195 H   0  0  0  0  0  0  0  0  0  0  0  0
    4.9037   -0.9559   26.5559 C   0  0  0  0  0  0  0  0  0  0  0  0
    4.5141   -1.8804   26.9738 H   0  0  0  0  0  0  0  0  0  0  0  0
    5.4728   -0.9518   25.2958 C   0  0  0  0  0  0  0  0  0  0  0  0
    5.5295   -1.8628   24.7061 H   0  0  0  0  0  0  0  0  0  0  0  0
    5.9976    0.2460   24.7297 C   0  0  0  0  0  0  0  0  0  0  0  0
    5.4971    0.6423   20.1751 C   0  0  0  0  0  0  0  0  0  0  0  0
    5.0889    0.6519   21.1835 H   0  0  0  0  0  0  0  0  0  0  0  0
    4.8376    1.2862   19.1161 C   0  0  0  0  0  0  0  0  0  0  0  0
    3.8934    1.7984   19.2782 H   0  0  0  0  0  0  0  0  0  0  0  0
  1  2  1  0
  2  3  2  0
  3  4  1  0
  4  5  1  0
  4  6  2  0
  6  7  1  0
  7  8  1  0
  7  9  1  0
  9 10  2  0
  9 11  2  0
  9 12  1  0
 12 13  2  0
 13 14  1  0
 13 15  1  0
 15 16  1  0
 15 17  2  0
 17 18  1  0
 17 19  1  0
 19 20  2  0
 20 21  1  0
 20 22  1  0
 22 23  1  0
 22 24  2  0
 24 25  1  0
 24 26  1  0
 26 27  1  0
 26 28  2  0
  6 29  1  0
 29 30  1  0
 29 31  2  0
 31 32  1  0
 31  2  1  0
 28 12  1  0
 28 19  1  0
M  END
>  <cnnaffinity>  (1) 
-4.52548

>  <filename>  (1) 
O=S(=O)(Nc1cccnc1)c1cccc2ccccc12

$$$$
