
     RDKit          3D

 42 44  0  0  0  0  0  0  0  0999 V2000
    4.8290    1.7344   16.9873 H   0  0  0  0  0  0  0  0  0  0  0  0
    5.4069    1.2459   17.7699 C   0  0  0  0  0  0  0  0  0  0  0  0
    6.5396    0.6401   17.3827 N   0  0  0  0  0  0  0  0  0  0  0  0
    7.3035    0.0879   18.3197 C   0  0  0  0  0  0  0  0  0  0  0  0
    8.2110   -0.4161   17.9846 H   0  0  0  0  0  0  0  0  0  0  0  0
    6.9714    0.1651   19.6692 C   0  0  0  0  0  0  0  0  0  0  0  0
    8.4222   -0.1026   20.6672 S   0  0  0  0  0  0  0  0  0  0  0  0
    9.0930   -1.2225   19.9631 O   0  0  0  0  0  0  0  0  0  0  0  0
    9.0922    1.2241   20.6145 O   0  0  0  0  0  0  0  0  0  0  0  0
    6.3479   -1.3792   22.3242 O   0  0  0  0  0  0  0  0  0  0  0  0
    6.6313   -1.9294   23.4266 N   0  0  0  0  0  0  0  0  0  0  0  0
    6.4431   -3.3581   23.5762 C   0  0  0  0  0  0  0  0  0  0  0  0
    6.6020   -3.8086   22.5880 H   0  0  0  0  0  0  0  0  0  0  0  0
    5.3980   -3.5819   23.8711 H   0  0  0  0  0  0  0  0  0  0  0  0
    7.3976   -3.9542   24.6181 C   0  0  0  0  0  0  0  0  0  0  0  0
    7.1942   -5.0195   24.7466 H   0  0  0  0  0  0  0  0  0  0  0  0
    8.4330   -3.8484   24.2727 H   0  0  0  0  0  0  0  0  0  0  0  0
    7.2587   -3.1962   25.9449 C   0  0  0  0  0  0  0  0  0  0  0  0
    6.2021   -3.2065   26.2496 H   0  0  0  0  0  0  0  0  0  0  0  0
    8.0207   -3.7732   27.0448 N   0  0  0  0  0  0  0  0  0  0  0  0
    7.4521   -5.0016   27.6311 C   0  0  0  0  0  0  0  0  0  0  0  0
    6.6573   -5.4335   27.0025 H   0  0  0  0  0  0  0  0  0  0  0  0
    6.9921   -4.7982   28.6066 H   0  0  0  0  0  0  0  0  0  0  0  0
    8.6118   -5.9983   27.7536 C   0  0  0  0  0  0  0  0  0  0  0  0
    8.2904   -7.0328   27.6250 H   0  0  0  0  0  0  0  0  0  0  0  0
    9.0586   -5.9338   28.7502 H   0  0  0  0  0  0  0  0  0  0  0  0
    9.6070   -5.5210   26.6907 C   0  0  0  0  0  0  0  0  0  0  0  0
    9.3018   -5.8521   25.6917 H   0  0  0  0  0  0  0  0  0  0  0  0
   10.6394   -5.8452   26.8528 H   0  0  0  0  0  0  0  0  0  0  0  0
    9.4520   -4.0120   26.8175 C   0  0  0  0  0  0  0  0  0  0  0  0
    9.8420   -3.4482   25.9657 H   0  0  0  0  0  0  0  0  0  0  0  0
   10.0148   -3.6840   27.6932 H   0  0  0  0  0  0  0  0  0  0  0  0
    7.6397   -1.7413   25.6850 C   0  0  0  0  0  0  0  0  0  0  0  0
    7.6154   -1.1676   26.6130 H   0  0  0  0  0  0  0  0  0  0  0  0
    8.6627   -1.7070   25.2922 H   0  0  0  0  0  0  0  0  0  0  0  0
    6.6790   -1.1363   24.6401 C   0  0  0  0  0  0  0  0  0  0  0  0
    5.6652   -1.0466   25.0831 H   0  0  0  0  0  0  0  0  0  0  0  0
    6.9913   -0.1229   24.3504 H   0  0  0  0  0  0  0  0  0  0  0  0
    5.7581    0.7112   20.0942 C   0  0  0  0  0  0  0  0  0  0  0  0
    5.4296    0.7292   21.1402 H   0  0  0  0  0  0  0  0  0  0  0  0
    4.9662    1.2774   19.0984 C   0  0  0  0  0  0  0  0  0  0  0  0
    4.0315    1.7685   19.3373 H   0  0  0  0  0  0  0  0  0  0  0  0
  1  2  1  0
  2  3  2  0
  3  4  1  0
  4  5  1  0
  4  6  2  0
  6  7  1  0
  7  8  2  0
  7  9  2  0
  7 10  1  0
 10 11  1  0
 11 12  1  0
 12 13  1  0
 12 14  1  0
 12 15  1  0
 15 16  1  0
 15 17  1  0
 15 18  1  0
 18 19  1  0
 18 20  1  0
 20 21  1  0
 21 22  1  0
 21 23  1  0
 21 24  1  0
 24 25  1  0
 24 26  1  0
 24 27  1  0
 27 28  1  0
 27 29  1  0
 27 30  1  0
 30 31  1  0
 30 32  1  0
 18 33  1  0
 33 34  1  0
 33 35  1  0
 33 36  1  0
 36 37  1  0
 36 38  1  0
  6 39  1  0
 39 40  1  0
 39 41  2  0
 41 42  1  0
 41  2  1  0
 36 11  1  0
 30 20  1  0
M  END
>  <cnnaffinity>  (1) 
-5.00638

>  <filename>  (1) 
O=S(=O)(ON1CCC(N2CCCC2)CC1)c1cccnc1

$$$$
