
     RDKit          3D

 40 42  0  0  0  0  0  0  0  0999 V2000
    5.2147   -7.3823   27.4425 H   0  0  0  0  0  0  0  0  0  0  0  0
    6.1281   -6.8012   27.3121 C   0  0  0  0  0  0  0  0  0  0  0  0
    6.2923   -6.2502   26.1062 N   0  0  0  0  0  0  0  0  0  0  0  0
    7.3651   -5.4639   25.9236 C   0  0  0  0  0  0  0  0  0  0  0  0
    7.4613   -4.8070   24.7200 N   0  0  0  0  0  0  0  0  0  0  0  0
    8.3458   -3.6492   24.4862 C   0  0  0  0  0  0  0  0  0  0  0  0
    8.4878   -3.0713   25.4070 H   0  0  0  0  0  0  0  0  0  0  0  0
    9.3424   -3.9828   24.1577 H   0  0  0  0  0  0  0  0  0  0  0  0
    7.7492   -2.6987   23.4048 C   0  0  0  0  0  0  0  0  0  0  0  0
    8.4612   -1.8800   23.2826 H   0  0  0  0  0  0  0  0  0  0  0  0
    6.8223   -2.2791   23.8193 H   0  0  0  0  0  0  0  0  0  0  0  0
    7.5276   -3.3715   22.0817 N   0  0  0  0  0  0  0  0  0  0  0  0
    6.3259   -2.6869   21.0762 S   0  0  0  0  0  0  0  0  0  0  0  0
    6.2913   -3.4703   19.8590 O   0  0  0  0  0  0  0  0  0  0  0  0
    5.0884   -2.5930   21.8218 O   0  0  0  0  0  0  0  0  0  0  0  0
    7.1081   -1.0787   20.8209 C   0  0  0  0  0  0  0  0  0  0  0  0
    8.1333   -1.3696   20.5808 H   0  0  0  0  0  0  0  0  0  0  0  0
    7.0472   -0.6480   21.8262 H   0  0  0  0  0  0  0  0  0  0  0  0
    6.5392   -0.1449   19.7764 C   0  0  0  0  0  0  0  0  0  0  0  0
    7.1711    0.0804   18.5337 C   0  0  0  0  0  0  0  0  0  0  0  0
    8.1530   -0.3567   18.3435 H   0  0  0  0  0  0  0  0  0  0  0  0
    6.6514    0.8202   17.5483 N   0  0  0  0  0  0  0  0  0  0  0  0
    5.4783    1.4290   17.7874 C   0  0  0  0  0  0  0  0  0  0  0  0
    5.0726    2.0144   16.9609 H   0  0  0  0  0  0  0  0  0  0  0  0
    4.8037    1.3401   19.0111 C   0  0  0  0  0  0  0  0  0  0  0  0
    3.8838    1.8962   19.1546 H   0  0  0  0  0  0  0  0  0  0  0  0
    5.3505    0.5492   20.0283 C   0  0  0  0  0  0  0  0  0  0  0  0
    4.8910    0.4790   21.0175 H   0  0  0  0  0  0  0  0  0  0  0  0
    7.3476   -4.8398   22.2524 C   0  0  0  0  0  0  0  0  0  0  0  0
    6.8391   -5.2654   21.3875 H   0  0  0  0  0  0  0  0  0  0  0  0
    8.3459   -5.2951   22.2979 H   0  0  0  0  0  0  0  0  0  0  0  0
    6.6184   -5.1817   23.5683 C   0  0  0  0  0  0  0  0  0  0  0  0
    6.3822   -6.2451   23.6054 H   0  0  0  0  0  0  0  0  0  0  0  0
    5.6758   -4.6147   23.5902 H   0  0  0  0  0  0  0  0  0  0  0  0
    8.3667   -5.3154   26.9085 C   0  0  0  0  0  0  0  0  0  0  0  0
    9.2351   -4.7179   26.6725 H   0  0  0  0  0  0  0  0  0  0  0  0
    8.2090   -5.9559   28.1287 C   0  0  0  0  0  0  0  0  0  0  0  0
    8.9967   -5.9021   28.8759 H   0  0  0  0  0  0  0  0  0  0  0  0
    7.0335   -6.6790   28.3630 C   0  0  0  0  0  0  0  0  0  0  0  0
    6.8173   -7.1409   29.3186 H   0  0  0  0  0  0  0  0  0  0  0  0
  1  2  1  0
  2  3  2  0
  3  4  1  0
  4  5  1  0
  5  6  1  0
  6  7  1  0
  6  8  1  0
  6  9  1  0
  9 10  1  0
  9 11  1  0
  9 12  1  0
 12 13  1  0
 13 14  2  0
 13 15  2  0
 13 16  1  0
 16 17  1  0
 16 18  1  0
 16 19  1  0
 19 20  2  0
 20 21  1  0
 20 22  1  0
 22 23  2  0
 23 24  1  0
 23 25  1  0
 25 26  1  0
 25 27  2  0
 27 28  1  0
 12 29  1  0
 29 30  1  0
 29 31  1  0
 29 32  1  0
 32 33  1  0
 32 34  1  0
  4 35  2  0
 35 36  1  0
 35 37  1  0
 37 38  1  0
 37 39  2  0
 39 40  1  0
 39  2  1  0
 32  5  1  0
 27 19  1  0
M  END
>  <cnnaffinity>  (1) 
-4.87605

>  <filename>  (1) 
O=S(=O)(Cc1cccnc1)N1CCN(c2ccccn2)CC1

$$$$
