
     RDKit          3D

 26 27  0  0  0  0  0  0  0  0999 V2000
    5.0022    1.6224   16.9150 H   0  0  0  0  0  0  0  0  0  0  0  0
    5.5119    1.2130   17.7858 C   0  0  0  0  0  0  0  0  0  0  0  0
    6.7019    0.6304   17.5633 N   0  0  0  0  0  0  0  0  0  0  0  0
    7.3591    0.1178   18.6161 C   0  0  0  0  0  0  0  0  0  0  0  0
    8.3241   -0.3370   18.3968 H   0  0  0  0  0  0  0  0  0  0  0  0
    6.8336    0.1380   19.9260 C   0  0  0  0  0  0  0  0  0  0  0  0
    7.5819   -0.4336   20.9733 O   0  0  0  0  0  0  0  0  0  0  0  0
    6.7764   -1.0505   22.2789 S   0  0  0  0  0  0  0  0  0  0  0  0
    5.9122   -2.1071   21.7969 O   0  0  0  0  0  0  0  0  0  0  0  0
    6.2827    0.0807   23.0416 O   0  0  0  0  0  0  0  0  0  0  0  0
    8.0539   -1.7539   23.3047 C   0  0  2  0  0  0  0  0  0  0  0  0
    7.5124   -1.7761   24.2484 H   0  0  0  0  0  0  0  0  0  0  0  0
    9.2838   -0.8535   23.2603 C   0  0  0  0  0  0  0  0  0  0  0  0
    9.9377   -1.0300   24.1395 H   0  0  0  0  0  0  0  0  0  0  0  0
    9.1017    0.2165   23.1807 H   0  0  0  0  0  0  0  0  0  0  0  0
    9.8871   -1.2521   22.0619 O   0  0  0  0  0  0  0  0  0  0  0  0
    9.8192   -2.6574   21.9545 C   0  0  0  0  0  0  0  0  0  0  0  0
   10.7484   -3.1253   22.3129 H   0  0  0  0  0  0  0  0  0  0  0  0
    9.6944   -2.8675   20.8888 H   0  0  0  0  0  0  0  0  0  0  0  0
    8.6214   -3.1064   22.8320 C   0  0  0  0  0  0  0  0  0  0  0  0
    8.9810   -3.6870   23.6925 H   0  0  0  0  0  0  0  0  0  0  0  0
    7.8867   -3.7285   22.3145 H   0  0  0  0  0  0  0  0  0  0  0  0
    5.6050    0.7582   20.1552 C   0  0  0  0  0  0  0  0  0  0  0  0
    5.2011    0.8264   21.1594 H   0  0  0  0  0  0  0  0  0  0  0  0
    4.9308    1.2939   19.0505 C   0  0  0  0  0  0  0  0  0  0  0  0
    3.9680    1.7762   19.1715 H   0  0  0  0  0  0  0  0  0  0  0  0
  1  2  1  0
  2  3  2  0
  3  4  1  0
  4  5  1  0
  4  6  2  0
  6  7  1  0
  7  8  1  0
  8  9  2  0
  8 10  2  0
  8 11  1  0
 11 12  1  1
 11 13  1  0
 13 14  1  0
 13 15  1  0
 13 16  1  0
 16 17  1  0
 17 18  1  0
 17 19  1  0
 17 20  1  0
 20 21  1  0
 20 22  1  0
  6 23  1  0
 23 24  1  0
 23 25  2  0
 25 26  1  0
 25  2  1  0
 20 11  1  0
M  END
>  <cnnaffinity>  (1) 
-4.02523

>  <filename>  (1) 
O=S(=O)(Oc1cccnc1)[C@H]1CCOC1

$$$$
