
     RDKit          3D

 36 38  0  0  0  0  0  0  0  0999 V2000
    4.9294    1.8083   16.9782 H   0  0  0  0  0  0  0  0  0  0  0  0
    5.3971    1.2948   17.8174 C   0  0  0  0  0  0  0  0  0  0  0  0
    6.5458    0.6545   17.5543 N   0  0  0  0  0  0  0  0  0  0  0  0
    7.1527    0.0445   18.5822 C   0  0  0  0  0  0  0  0  0  0  0  0
    8.0786   -0.4790   18.3344 H   0  0  0  0  0  0  0  0  0  0  0  0
    6.6753    0.0388   19.9056 C   0  0  0  0  0  0  0  0  0  0  0  0
    7.4629   -0.5880   21.0460 C   0  0  0  0  0  0  0  0  0  0  0  0
    6.7720   -1.0087   21.7833 H   0  0  0  0  0  0  0  0  0  0  0  0
    8.0677   -1.4144   20.6511 H   0  0  0  0  0  0  0  0  0  0  0  0
    8.3957    0.3512   21.7900 C   0  0  0  0  0  0  0  0  0  0  0  0
    7.7952    1.3293   22.6337 N   0  0  0  0  0  0  0  0  0  0  0  0
    8.3940    2.0756   22.9616 H   0  0  0  0  0  0  0  0  0  0  0  0
    7.0019    0.9998   24.0374 S   0  0  0  0  0  0  0  0  0  0  0  0
    5.6662    0.5470   23.7238 O   0  0  0  0  0  0  0  0  0  0  0  0
    7.2486    2.2549   24.7326 O   0  0  0  0  0  0  0  0  0  0  0  0
    7.9293   -0.2973   24.8775 C   0  0  0  0  0  0  0  0  0  0  0  0
    7.7241   -1.6654   24.6109 C   0  0  0  0  0  0  0  0  0  0  0  0
    7.0549   -2.0201   23.8279 H   0  0  0  0  0  0  0  0  0  0  0  0
    8.3898   -2.6263   25.3777 C   0  0  0  0  0  0  0  0  0  0  0  0
    8.2223   -3.6806   25.1832 H   0  0  0  0  0  0  0  0  0  0  0  0
    9.2464   -2.2530   26.4134 C   0  0  0  0  0  0  0  0  0  0  0  0
    9.7494   -3.0157   27.0039 H   0  0  0  0  0  0  0  0  0  0  0  0
    9.4748   -0.8946   26.6520 C   0  0  0  0  0  0  0  0  0  0  0  0
   10.1382   -0.5966   27.4578 H   0  0  0  0  0  0  0  0  0  0  0  0
    8.8403    0.0820   25.8826 C   0  0  0  0  0  0  0  0  0  0  0  0
    9.0664    1.1305   26.0761 H   0  0  0  0  0  0  0  0  0  0  0  0
    9.7495   -0.1008   22.2354 C   0  0  0  0  0  0  0  0  0  0  0  0
   10.0517   -1.1182   22.0146 H   0  0  0  0  0  0  0  0  0  0  0  0
   10.0983    0.2796   23.1912 H   0  0  0  0  0  0  0  0  0  0  0  0
    9.6009    0.8834   21.1009 C   0  0  0  0  0  0  0  0  0  0  0  0
    9.8538    1.9290   21.2486 H   0  0  0  0  0  0  0  0  0  0  0  0
    9.7652    0.5174   20.1005 H   0  0  0  0  0  0  0  0  0  0  0  0
    5.4492    0.6783   20.1429 C   0  0  0  0  0  0  0  0  0  0  0  0
    5.0076    0.6719   21.1414 H   0  0  0  0  0  0  0  0  0  0  0  0
    4.8041    1.3193   19.0819 C   0  0  0  0  0  0  0  0  0  0  0  0
    3.8635    1.8397   19.2230 H   0  0  0  0  0  0  0  0  0  0  0  0
  1  2  1  0
  2  3  2  0
  3  4  1  0
  4  5  1  0
  4  6  2  0
  6  7  1  0
  7  8  1  0
  7  9  1  0
  7 10  1  0
 10 11  1  0
 11 12  1  0
 11 13  1  0
 13 14  2  0
 13 15  2  0
 13 16  1  0
 16 17  2  0
 17 18  1  0
 17 19  1  0
 19 20  1  0
 19 21  2  0
 21 22  1  0
 21 23  1  0
 23 24  1  0
 23 25  2  0
 25 26  1  0
 10 27  1  0
 27 28  1  0
 27 29  1  0
 27 30  1  0
 30 31  1  0
 30 32  1  0
  6 33  1  0
 33 34  1  0
 33 35  2  0
 35 36  1  0
 35  2  1  0
 30 10  1  0
 25 16  1  0
M  END
>  <cnnaffinity>  (1) 
-4.85526

>  <filename>  (1) 
O=S(=O)(NC1(Cc2cccnc2)CC1)c1ccccc1

$$$$
