
     RDKit          3D

 40 42  0  0  0  0  0  0  0  0999 V2000
    5.1610    1.6595   16.9329 H   0  0  0  0  0  0  0  0  0  0  0  0
    5.5439    1.1587   17.8192 C   0  0  0  0  0  0  0  0  0  0  0  0
    6.6555    0.4256   17.6591 N   0  0  0  0  0  0  0  0  0  0  0  0
    7.1616   -0.1621   18.7490 C   0  0  0  0  0  0  0  0  0  0  0  0
    8.0355   -0.7914   18.5649 H   0  0  0  0  0  0  0  0  0  0  0  0
    6.6439   -0.0259   20.0546 C   0  0  0  0  0  0  0  0  0  0  0  0
    7.4591   -0.6581   21.1884 C   0  0  0  0  0  0  0  0  0  0  0  0
    7.3311   -2.0717   20.9438 N   0  0  0  0  0  0  0  0  0  0  0  0
    6.5113   -2.5190   20.5777 H   0  0  0  0  0  0  0  0  0  0  0  0
    8.3327   -3.2731   21.3428 S   0  0  0  0  0  0  0  0  0  0  0  0
    9.6222   -2.8710   20.8171 O   0  0  0  0  0  0  0  0  0  0  0  0
    7.5557   -4.4083   20.8658 O   0  0  0  0  0  0  0  0  0  0  0  0
    8.4840   -3.4588   23.1183 C   0  0  0  0  0  0  0  0  0  0  0  0
    7.4338   -3.9698   23.9076 C   0  0  0  0  0  0  0  0  0  0  0  0
    6.4309   -4.1400   23.5097 H   0  0  0  0  0  0  0  0  0  0  0  0
    7.6845   -4.3079   25.2433 C   0  0  0  0  0  0  0  0  0  0  0  0
    6.8788   -4.6963   25.8597 H   0  0  0  0  0  0  0  0  0  0  0  0
    8.9620   -4.1631   25.7972 C   0  0  0  0  0  0  0  0  0  0  0  0
    9.1654   -4.4654   26.8223 H   0  0  0  0  0  0  0  0  0  0  0  0
    9.9855   -3.6370   25.0042 C   0  0  0  0  0  0  0  0  0  0  0  0
   10.9914   -3.5345   25.3872 H   0  0  0  0  0  0  0  0  0  0  0  0
    9.7518   -3.2591   23.6854 C   0  0  0  0  0  0  0  0  0  0  0  0
   10.5753   -2.8565   23.0936 H   0  0  0  0  0  0  0  0  0  0  0  0
    8.9172   -0.1320   21.1913 C   0  0  0  0  0  0  0  0  0  0  0  0
    9.5225   -0.7239   21.8892 H   0  0  0  0  0  0  0  0  0  0  0  0
    9.3825   -0.2254   20.2061 H   0  0  0  0  0  0  0  0  0  0  0  0
    8.9169    1.3257   21.6736 C   0  0  0  0  0  0  0  0  0  0  0  0
    8.3459    1.9576   20.9669 H   0  0  0  0  0  0  0  0  0  0  0  0
    9.9362    1.7160   21.7358 H   0  0  0  0  0  0  0  0  0  0  0  0
    8.3968    1.4329   22.9882 O   0  0  0  0  0  0  0  0  0  0  0  0
    7.0648    0.9774   23.1196 C   0  0  0  0  0  0  0  0  0  0  0  0
    6.3572    1.6523   22.6113 H   0  0  0  0  0  0  0  0  0  0  0  0
    6.8439    1.0152   24.1881 H   0  0  0  0  0  0  0  0  0  0  0  0
    6.9507   -0.4531   22.6226 C   0  0  0  0  0  0  0  0  0  0  0  0
    7.5631   -1.0849   23.2810 H   0  0  0  0  0  0  0  0  0  0  0  0
    5.9536   -0.8548   22.6813 H   0  0  0  0  0  0  0  0  0  0  0  0
    5.4297    0.6720   20.1800 C   0  0  0  0  0  0  0  0  0  0  0  0
    4.9111    0.7401   21.1387 H   0  0  0  0  0  0  0  0  0  0  0  0
    4.8858    1.2803   19.0459 C   0  0  0  0  0  0  0  0  0  0  0  0
    3.9709    1.8574   19.1089 H   0  0  0  0  0  0  0  0  0  0  0  0
  1  2  1  0
  2  3  2  0
  3  4  1  0
  4  5  1  0
  4  6  2  0
  6  7  1  0
  7  8  1  0
  8  9  1  0
  8 10  1  0
 10 11  2  0
 10 12  2  0
 10 13  1  0
 13 14  2  0
 14 15  1  0
 14 16  1  0
 16 17  1  0
 16 18  2  0
 18 19  1  0
 18 20  1  0
 20 21  1  0
 20 22  2  0
 22 23  1  0
  7 24  1  0
 24 25  1  0
 24 26  1  0
 24 27  1  0
 27 28  1  0
 27 29  1  0
 27 30  1  0
 30 31  1  0
 31 32  1  0
 31 33  1  0
 31 34  1  0
 34 35  1  0
 34 36  1  0
  6 37  1  0
 37 38  1  0
 37 39  2  0
 39 40  1  0
 39  2  1  0
 34  7  1  0
 22 13  1  0
M  END
>  <cnnaffinity>  (1) 
-5.68347

>  <filename>  (1) 
O=S(=O)(NC1(c2cccnc2)CCOCC1)c1ccccc1

$$$$
