
     RDKit          3D

 33 34  0  0  0  0  0  0  0  0999 V2000
    5.2235    1.7899   16.9480 H   0  0  0  0  0  0  0  0  0  0  0  0
    5.5485    1.2174   17.8106 C   0  0  0  0  0  0  0  0  0  0  0  0
    6.6610    0.4899   17.6419 N   0  0  0  0  0  0  0  0  0  0  0  0
    7.1002   -0.1962   18.7068 C   0  0  0  0  0  0  0  0  0  0  0  0
    8.0473   -0.7224   18.5913 H   0  0  0  0  0  0  0  0  0  0  0  0
    6.4505   -0.2397   19.9565 C   0  0  0  0  0  0  0  0  0  0  0  0
    7.0285   -0.9995   21.1337 C   0  0  0  0  0  0  0  0  0  0  0  0
    6.2464   -1.5380   21.6908 H   0  0  0  0  0  0  0  0  0  0  0  0
    7.7672   -1.7536   20.8185 H   0  0  0  0  0  0  0  0  0  0  0  0
    7.6646   -0.0084   22.1170 C   0  0  1  0  0  0  0  0  0  0  0  0
    6.9457    0.7575   22.4270 H   0  0  0  0  0  0  0  0  0  0  0  0
    8.1116   -0.6791   23.2466 F   0  0  0  0  0  0  0  0  0  0  0  0
    8.9441    1.0217   21.2592 S   0  0  0  0  0  0  0  0  0  0  0  0
    9.7530    0.1370   20.4476 O   0  0  0  0  0  0  0  0  0  0  0  0
    8.2285    2.1450   20.6950 O   0  0  0  0  0  0  0  0  0  0  0  0
    9.9369    1.6785   22.4102 N   0  0  0  0  0  0  0  0  0  0  0  0
    9.3531    2.6596   23.3423 C   0  0  0  0  0  0  0  0  0  0  0  0
    8.7569    3.3760   22.7683 H   0  0  0  0  0  0  0  0  0  0  0  0
    8.7073    2.1628   24.0827 H   0  0  0  0  0  0  0  0  0  0  0  0
   10.4576    3.4204   24.0977 C   0  0  0  0  0  0  0  0  0  0  0  0
   10.9487    4.1494   23.4338 H   0  0  0  0  0  0  0  0  0  0  0  0
   10.0142    3.9705   24.9323 H   0  0  0  0  0  0  0  0  0  0  0  0
   11.4281    2.5460   24.6590 O   0  0  0  0  0  0  0  0  0  0  0  0
   12.0409    1.7452   23.6583 C   0  0  0  0  0  0  0  0  0  0  0  0
   12.8120    1.1496   24.1501 H   0  0  0  0  0  0  0  0  0  0  0  0
   12.5461    2.3825   22.9142 H   0  0  0  0  0  0  0  0  0  0  0  0
   11.0122    0.8424   22.9634 C   0  0  0  0  0  0  0  0  0  0  0  0
   10.6073    0.1145   23.6788 H   0  0  0  0  0  0  0  0  0  0  0  0
   11.4821    0.2942   22.1437 H   0  0  0  0  0  0  0  0  0  0  0  0
    5.3008    0.5529   20.1100 C   0  0  0  0  0  0  0  0  0  0  0  0
    4.7830    0.6047   21.0736 H   0  0  0  0  0  0  0  0  0  0  0  0
    4.8406    1.2893   19.0141 C   0  0  0  0  0  0  0  0  0  0  0  0
    3.9810    1.9463   19.0922 H   0  0  0  0  0  0  0  0  0  0  0  0
  1  2  1  0
  2  3  2  0
  3  4  1  0
  4  5  1  0
  4  6  2  0
  6  7  1  0
  7  8  1  0
  7  9  1  0
  7 10  1  0
 10 11  1  1
 10 12  1  0
 10 13  1  0
 13 14  2  0
 13 15  2  0
 13 16  1  0
 16 17  1  0
 17 18  1  0
 17 19  1  0
 17 20  1  0
 20 21  1  0
 20 22  1  0
 20 23  1  0
 23 24  1  0
 24 25  1  0
 24 26  1  0
 24 27  1  0
 27 28  1  0
 27 29  1  0
  6 30  1  0
 30 31  1  0
 30 32  2  0
 32 33  1  0
 32  2  1  0
 27 16  1  0
M  END
>  <cnnaffinity>  (1) 
-4.84032

>  <filename>  (1) 
O=S(=O)([C@H](F)Cc1cccnc1)N1CCOCC1

$$$$
