
     RDKit          3D

 48 51  0  0  0  0  0  0  0  0999 V2000
    4.7100    3.0044   25.5396 O   0  0  0  0  0  0  0  0  0  0  0  0
    4.1899    4.1348   24.7570 S   0  0  0  0  0  0  0  0  0  0  0  0
    2.8507    4.6377   25.0058 O   0  0  0  0  0  0  0  0  0  0  0  0
    4.4923    3.7094   23.0568 C   0  0  0  0  0  0  0  0  0  0  0  0
    6.0189    3.8128   22.9689 C   0  0  0  0  0  0  0  0  0  0  0  0
    6.4869    2.5816   23.6386 N   0  0  0  0  0  4  0  0  0  0  0  0
    7.9325    2.4720   23.9569 C   0  0  0  0  0  0  0  0  0  0  0  0
    8.2260    1.0439   24.3637 C   0  0  0  0  0  0  0  0  0  0  0  0
    8.7744    0.7220   25.6138 C   0  0  0  0  0  0  0  0  0  0  0  0
    9.1915   -0.5868   25.8872 C   0  0  0  0  0  0  0  0  0  0  0  0
    9.7954   -0.9698   27.4746 Cl  0  0  0  0  0  0  0  0  0  0  0  0
    9.1113   -1.5762   24.9092 C   0  0  0  0  0  0  0  0  0  0  0  0
    8.5158   -1.2828   23.6775 C   0  0  0  0  0  0  0  0  0  0  0  0
    8.0027   -0.0036   23.4384 C   0  0  0  0  0  0  0  0  0  0  0  0
    7.2340    0.3037   22.3396 O   0  0  0  0  0  0  0  0  0  0  0  0
    7.2781   -0.5324   21.1866 C   0  0  0  0  0  0  0  0  0  0  0  0
    6.5951    0.1555   20.0312 C   0  0  0  0  0  0  0  0  0  0  0  0
    5.3560    0.8050   20.1415 C   0  0  0  0  0  0  0  0  0  0  0  0
    4.7976    1.3875   19.0018 C   0  0  0  0  0  0  0  0  0  0  0  0
    5.4824    1.2824   17.7859 C   0  0  0  0  0  0  0  0  0  0  0  0
    6.6530    0.6420   17.6526 N   0  0  0  0  0  0  0  0  0  0  0  0
    7.1805    0.1023   18.7583 C   0  0  0  0  0  0  0  0  0  0  0  0
    8.1272   -0.4206   18.6206 H   0  0  0  0  0  0  0  0  0  0  0  0
    5.0721    1.7280   16.8810 H   0  0  0  0  0  0  0  0  0  0  0  0
    3.8643    1.9387   19.0471 H   0  0  0  0  0  0  0  0  0  0  0  0
    4.8282    0.8439   21.0975 H   0  0  0  0  0  0  0  0  0  0  0  0
    8.3239   -0.7387   20.9245 H   0  0  0  0  0  0  0  0  0  0  0  0
    6.7894   -1.4904   21.4190 H   0  0  0  0  0  0  0  0  0  0  0  0
    8.4342   -2.0489   22.9136 H   0  0  0  0  0  0  0  0  0  0  0  0
    9.4943   -2.5723   25.1109 H   0  0  0  0  0  0  0  0  0  0  0  0
    8.8900    1.4718   26.3955 H   0  0  0  0  0  0  0  0  0  0  0  0
    8.1973    3.1590   24.7675 H   0  0  0  0  0  0  0  0  0  0  0  0
    8.5474    2.7611   23.0853 H   0  0  0  0  0  0  0  0  0  0  0  0
    6.2836    1.7585   23.0437 H   0  0  0  0  0  0  0  0  0  0  0  0
    5.9288    2.4907   24.5311 H   0  0  0  0  0  0  0  0  0  0  0  0
    6.3950    5.0641   23.7831 C   0  0  0  0  0  0  0  0  0  0  0  0
    7.5980    5.7720   23.7621 C   0  0  0  0  0  0  0  0  0  0  0  0
    7.7634    6.8758   24.6128 C   0  0  0  0  0  0  0  0  0  0  0  0
    6.7205    7.2769   25.4599 C   0  0  0  0  0  0  0  0  0  0  0  0
    5.5176    6.5611   25.5117 C   0  0  0  0  0  0  0  0  0  0  0  0
    5.4063    5.4260   24.7104 C   0  0  0  0  0  0  0  0  0  0  0  0
    4.6995    6.9012   26.1409 H   0  0  0  0  0  0  0  0  0  0  0  0
    6.8439    8.1545   26.0891 H   0  0  0  0  0  0  0  0  0  0  0  0
    8.7123    7.4075   24.6250 H   0  0  0  0  0  0  0  0  0  0  0  0
    8.4105    5.4486   23.1116 H   0  0  0  0  0  0  0  0  0  0  0  0
    6.4082    3.8941   21.9397 H   0  0  0  0  0  0  0  0  0  0  0  0
    3.9760    4.4338   22.4330 H   0  0  0  0  0  0  0  0  0  0  0  0
    4.1038    2.7049   22.8973 H   0  0  0  0  0  0  0  0  0  0  0  0
  1  2  2  0
  2  3  2  0
  2  4  1  0
  4  5  1  0
  5  6  1  0
  6  7  1  0
  7  8  1  0
  8  9  2  0
  9 10  1  0
 10 11  1  0
 10 12  2  0
 12 13  1  0
 13 14  2  0
 14 15  1  0
 15 16  1  0
 16 17  1  0
 17 18  2  0
 18 19  1  0
 19 20  2  0
 20 21  1  0
 21 22  2  0
 22 23  1  0
 20 24  1  0
 19 25  1  0
 18 26  1  0
 16 27  1  0
 16 28  1  0
 13 29  1  0
 12 30  1  0
  9 31  1  0
  7 32  1  0
  7 33  1  0
  6 34  1  0
  6 35  1  0
  5 36  1  0
 36 37  2  0
 37 38  1  0
 38 39  2  0
 39 40  1  0
 40 41  2  0
 40 42  1  0
 39 43  1  0
 38 44  1  0
 37 45  1  0
  5 46  1  0
  4 47  1  0
  4 48  1  0
 41  2  1  0
 14  8  1  0
 22 17  1  0
 41 36  1  0
M  CHG  1   6   1
M  END
>  <cnnaffinity>  (1) 
-5.33064

>  <filename>  (1) 
O=S1(=O)CC([NH2+]Cc2cc(Cl)ccc2OCc2cccnc2)c2ccccc21

$$$$
