
     RDKit          3D

 31 32  0  0  0  0  0  0  0  0999 V2000
    8.7809    1.2034   24.2691 H   0  0  0  0  0  0  0  0  0  0  0  0
    9.5080    0.8514   23.7250 O   0  0  0  0  0  0  0  0  0  0  0  0
    9.0285   -0.2103   22.9058 C   0  0  1  0  0  0  0  0  0  0  0  0
    9.8315   -0.4651   22.2021 H   0  0  0  0  0  0  0  0  0  0  0  0
    8.7189   -1.4216   23.7617 C   0  0  0  0  0  0  0  0  0  0  0  0
    7.7923   -1.3596   24.8210 C   0  0  0  0  0  0  0  0  0  0  0  0
    7.2769   -0.4322   25.0475 H   0  0  0  0  0  0  0  0  0  0  0  0
    7.5164   -2.4934   25.5948 C   0  0  0  0  0  0  0  0  0  0  0  0
    6.7946   -2.4362   26.4042 H   0  0  0  0  0  0  0  0  0  0  0  0
    8.1634   -3.7013   25.3227 C   0  0  0  0  0  0  0  0  0  0  0  0
    7.9456   -4.5811   25.9198 H   0  0  0  0  0  0  0  0  0  0  0  0
    9.0902   -3.7760   24.2795 C   0  0  0  0  0  0  0  0  0  0  0  0
    9.5923   -4.7144   24.0682 H   0  0  0  0  0  0  0  0  0  0  0  0
    9.3675   -2.6431   23.5067 C   0  0  0  0  0  0  0  0  0  0  0  0
   10.0907   -2.7211   22.7006 H   0  0  0  0  0  0  0  0  0  0  0  0
    7.8155    0.2824   22.1036 C   0  0  0  0  0  0  0  0  0  0  0  0
    8.0872    1.2392   21.6460 H   0  0  0  0  0  0  0  0  0  0  0  0
    6.9593    0.4720   22.7613 H   0  0  0  0  0  0  0  0  0  0  0  0
    7.4138   -0.7034   20.9939 C   0  0  1  0  0  0  0  0  0  0  0  0
    8.3092   -1.1669   20.5640 H   0  0  0  0  0  0  0  0  0  0  0  0
    6.2628   -2.1601   21.6742 Br  0  0  0  0  0  0  0  0  0  0  0  0
    6.6632    0.0148   19.9027 C   0  0  0  0  0  0  0  0  0  0  0  0
    7.1864    0.0575   18.5991 C   0  0  0  0  0  0  0  0  0  0  0  0
    8.1320   -0.4394   18.3937 H   0  0  0  0  0  0  0  0  0  0  0  0
    6.5681    0.6798   17.5813 N   0  0  0  0  0  0  0  0  0  0  0  0
    5.4013    1.2931   17.8377 C   0  0  0  0  0  0  0  0  0  0  0  0
    4.8922    1.7808   17.0133 H   0  0  0  0  0  0  0  0  0  0  0  0
    4.8119    1.3093   19.1104 C   0  0  0  0  0  0  0  0  0  0  0  0
    3.8757    1.8397   19.2665 H   0  0  0  0  0  0  0  0  0  0  0  0
    5.4465    0.6490   20.1612 C   0  0  0  0  0  0  0  0  0  0  0  0
    5.0098    0.6306   21.1570 H   0  0  0  0  0  0  0  0  0  0  0  0
  1  2  1  0
  2  3  1  0
  3  4  1  6
  3  5  1  0
  5  6  2  0
  6  7  1  0
  6  8  1  0
  8  9  1  0
  8 10  2  0
 10 11  1  0
 10 12  1  0
 12 13  1  0
 12 14  2  0
 14 15  1  0
  3 16  1  0
 16 17  1  0
 16 18  1  0
 16 19  1  0
 19 20  1  6
 19 21  1  0
 19 22  1  0
 22 23  2  0
 23 24  1  0
 23 25  1  0
 25 26  2  0
 26 27  1  0
 26 28  1  0
 28 29  1  0
 28 30  2  0
 30 31  1  0
 14  5  1  0
 30 22  1  0
M  END
>  <cnnaffinity>  (1) 
-4.54064

>  <filename>  (1) 
O[C@H](C[C@@H](Br)c1cccnc1)c1ccccc1

$$$$
