
     RDKit          3D

 39 42  0  0  0  0  0  0  0  0999 V2000
    6.0084    0.1555   24.0846 H   0  0  0  0  0  0  0  0  0  0  0  0
    5.9882    1.0623   23.7506 O   0  0  0  0  0  0  0  0  0  0  0  0
    7.0870    1.1310   22.8527 C   0  0  1  0  0  0  0  0  0  0  0  0
    6.7844    1.7980   22.0361 H   0  0  0  0  0  0  0  0  0  0  0  0
    8.3329    1.7526   23.4720 C   0  0  0  0  0  0  0  0  0  0  0  0
    9.3818    2.1412   22.6169 C   0  0  0  0  0  0  0  0  0  0  0  0
    9.2238    2.1394   21.5436 H   0  0  0  0  0  0  0  0  0  0  0  0
   10.6380    2.4837   23.1223 C   0  0  0  0  0  0  0  0  0  0  0  0
   11.4484    2.7467   22.4422 H   0  0  0  0  0  0  0  0  0  0  0  0
   10.8491    2.4390   24.5027 C   0  0  0  0  0  0  0  0  0  0  0  0
   11.8301    2.6621   24.9073 H   0  0  0  0  0  0  0  0  0  0  0  0
    9.8035    2.0920   25.3654 C   0  0  0  0  0  0  0  0  0  0  0  0
    9.9776    2.0368   26.4345 H   0  0  0  0  0  0  0  0  0  0  0  0
    8.5443    1.7731   24.8555 C   0  0  0  0  0  0  0  0  0  0  0  0
    7.7192    1.5201   25.5197 H   0  0  0  0  0  0  0  0  0  0  0  0
    7.3932   -0.2569   22.3331 C   0  0  0  0  0  0  0  0  0  0  0  0
    7.2561   -0.7246   20.9972 C   0  0  0  0  0  0  0  0  0  0  0  0
    6.5740   -0.0305   19.9076 C   0  0  0  0  0  0  0  0  0  0  0  0
    7.1181   -0.0233   18.6106 C   0  0  0  0  0  0  0  0  0  0  0  0
    8.0388   -0.5639   18.3954 H   0  0  0  0  0  0  0  0  0  0  0  0
    6.5737    0.6326   17.5808 N   0  0  0  0  0  0  0  0  0  0  0  0
    5.4293    1.2976   17.8063 C   0  0  0  0  0  0  0  0  0  0  0  0
    5.0062    1.8262   16.9535 H   0  0  0  0  0  0  0  0  0  0  0  0
    4.7872    1.3231   19.0477 C   0  0  0  0  0  0  0  0  0  0  0  0
    3.8619    1.8661   19.1664 H   0  0  0  0  0  0  0  0  0  0  0  0
    5.3724    0.6578   20.1224 C   0  0  0  0  0  0  0  0  0  0  0  0
    4.9167    0.6707   21.1169 H   0  0  0  0  0  0  0  0  0  0  0  0
    7.9118   -1.8645   20.7984 N   0  0  0  0  0  0  0  0  0  0  0  0
    8.4110   -2.1455   22.0009 N   0  0  0  0  0  0  0  0  0  0  0  0
    8.1717   -1.2330   22.9471 C   0  0  0  0  0  0  0  0  0  0  0  0
    9.0209   -1.5370   24.1555 C   0  0  0  0  0  0  0  0  0  0  0  0
    8.4513   -1.5837   25.0848 H   0  0  0  0  0  0  0  0  0  0  0  0
    9.7784   -0.7542   24.2645 H   0  0  0  0  0  0  0  0  0  0  0  0
    9.6587   -2.9138   23.8162 C   0  0  0  0  0  0  0  0  0  0  0  0
    9.1822   -3.7253   24.3717 H   0  0  0  0  0  0  0  0  0  0  0  0
   10.7217   -2.9372   24.0548 H   0  0  0  0  0  0  0  0  0  0  0  0
    9.4124   -3.1327   22.3056 C   0  0  0  0  0  0  0  0  0  0  0  0
    9.0159   -4.1222   22.0825 H   0  0  0  0  0  0  0  0  0  0  0  0
   10.2989   -2.9197   21.7015 H   0  0  0  0  0  0  0  0  0  0  0  0
  1  2  1  0
  2  3  1  0
  3  4  1  6
  3  5  1  0
  5  6  2  0
  6  7  1  0
  6  8  1  0
  8  9  1  0
  8 10  2  0
 10 11  1  0
 10 12  1  0
 12 13  1  0
 12 14  2  0
 14 15  1  0
  3 16  1  0
 16 17  1  0
 17 18  1  0
 18 19  2  0
 19 20  1  0
 19 21  1  0
 21 22  2  0
 22 23  1  0
 22 24  1  0
 24 25  1  0
 24 26  2  0
 26 27  1  0
 17 28  2  0
 28 29  1  0
 29 30  1  0
 30 31  1  0
 31 32  1  0
 31 33  1  0
 31 34  1  0
 34 35  1  0
 34 36  1  0
 34 37  1  0
 37 38  1  0
 37 39  1  0
 14  5  1  0
 30 16  2  0
 26 18  1  0
 37 29  1  0
M  END
>  <cnnaffinity>  (1) 
-5.54308

>  <filename>  (1) 
O[C@@H](c1ccccc1)c1c(-c2cccnc2)nn2c1CCC2

$$$$
