
     RDKit          3D

 26 27  0  0  0  0  0  0  0  0999 V2000
    9.8193    1.5312   23.3517 H   0  0  0  0  0  0  0  0  0  0  0  0
   10.5468    1.8533   22.8036 O   0  0  0  0  0  0  0  0  0  0  0  0
   10.6497    0.9577   21.7107 C   0  0  2  0  0  0  0  0  0  0  0  0
   11.4789    1.3444   21.1156 H   0  0  0  0  0  0  0  0  0  0  0  0
    9.3643    0.8730   20.8718 C   0  0  0  0  0  0  0  0  0  0  0  0
    9.5816    0.8619   19.8051 H   0  0  0  0  0  0  0  0  0  0  0  0
    8.7293    1.7410   21.0767 H   0  0  0  0  0  0  0  0  0  0  0  0
    8.7058   -0.3886   21.2509 N   0  0  0  0  0  0  0  0  0  0  0  0
    7.4191   -0.7162   20.9906 C   0  0  0  0  0  0  0  0  0  0  0  0
    6.6241   -1.9293   21.8032 S   0  0  0  0  0  0  0  0  0  0  0  0
    6.7007    0.0553   19.9275 C   0  0  0  0  0  0  0  0  0  0  0  0
    7.1974    0.0763   18.6133 C   0  0  0  0  0  0  0  0  0  0  0  0
    8.1237   -0.4335   18.3566 H   0  0  0  0  0  0  0  0  0  0  0  0
    6.5691    0.6665   17.5891 N   0  0  0  0  0  0  0  0  0  0  0  0
    5.4108    1.2876   17.8445 C   0  0  0  0  0  0  0  0  0  0  0  0
    4.9281    1.7762   16.9997 H   0  0  0  0  0  0  0  0  0  0  0  0
    4.8193    1.3085   19.1129 C   0  0  0  0  0  0  0  0  0  0  0  0
    3.8841    1.8319   19.2582 H   0  0  0  0  0  0  0  0  0  0  0  0
    5.4589    0.6638   20.1707 C   0  0  0  0  0  0  0  0  0  0  0  0
    5.0068    0.6240   21.1640 H   0  0  0  0  0  0  0  0  0  0  0  0
    9.5519   -1.1957   22.1463 C   0  0  0  0  0  0  0  0  0  0  0  0
    9.0917   -1.2600   23.1403 H   0  0  0  0  0  0  0  0  0  0  0  0
    9.6193   -2.2192   21.7650 H   0  0  0  0  0  0  0  0  0  0  0  0
   10.9054   -0.4810   22.1572 C   0  0  0  0  0  0  0  0  0  0  0  0
   11.6091   -0.9750   21.4815 H   0  0  0  0  0  0  0  0  0  0  0  0
   11.3611   -0.4867   23.1489 H   0  0  0  0  0  0  0  0  0  0  0  0
  1  2  1  0
  2  3  1  0
  3  4  1  6
  3  5  1  0
  5  6  1  0
  5  7  1  0
  5  8  1  0
  8  9  1  0
  9 10  2  0
  9 11  1  0
 11 12  2  0
 12 13  1  0
 12 14  1  0
 14 15  2  0
 15 16  1  0
 15 17  1  0
 17 18  1  0
 17 19  2  0
 19 20  1  0
  8 21  1  0
 21 22  1  0
 21 23  1  0
 21 24  1  0
 24 25  1  0
 24 26  1  0
 24  3  1  0
 19 11  1  0
M  END
>  <cnnaffinity>  (1) 
-4.18457

>  <filename>  (1) 
O[C@H]1CCN(C(=S)c2cccnc2)C1

$$$$
