
     RDKit          3D

 33 35  0  0  0  0  0  0  0  0999 V2000
   11.0404   -2.9250   21.0741 H   0  0  0  0  0  0  0  0  0  0  0  0
   11.3521   -2.1935   21.6124 O   0  0  0  0  0  0  0  0  0  0  0  0
   10.3442   -1.9430   22.5834 C   0  0  1  0  0  0  0  0  0  0  0  0
   10.2613   -2.7998   23.2795 H   0  0  0  0  0  0  0  0  0  0  0  0
   10.7948   -0.7103   23.3684 C   0  0  0  0  0  0  0  0  0  0  0  0
   11.4604    0.3243   22.6886 C   0  0  0  0  0  0  0  0  0  0  0  0
   11.7103    0.1873   21.6406 H   0  0  0  0  0  0  0  0  0  0  0  0
   11.8475    1.4840   23.3496 C   0  0  0  0  0  0  0  0  0  0  0  0
   12.3379    2.2774   22.7900 H   0  0  0  0  0  0  0  0  0  0  0  0
   11.6109    1.6174   24.7184 C   0  0  0  0  0  0  0  0  0  0  0  0
   11.9586    2.5056   25.2317 H   0  0  0  0  0  0  0  0  0  0  0  0
   10.9462    0.6039   25.4148 C   0  0  0  0  0  0  0  0  0  0  0  0
   10.7665    0.7129   26.4836 H   0  0  0  0  0  0  0  0  0  0  0  0
   10.5247   -0.5481   24.7353 C   0  0  0  0  0  0  0  0  0  0  0  0
    9.9989   -1.3272   25.2822 H   0  0  0  0  0  0  0  0  0  0  0  0
    8.9758   -1.7435   21.9557 C   0  0  0  0  0  0  0  0  0  0  0  0
    7.7331   -2.1299   22.5410 C   0  0  0  0  0  0  0  0  0  0  0  0
    7.6118   -2.7423   23.4300 H   0  0  0  0  0  0  0  0  0  0  0  0
    6.7351   -1.5633   21.7964 C   0  0  0  0  0  0  0  0  0  0  0  0
    5.6626   -1.6080   21.9079 H   0  0  0  0  0  0  0  0  0  0  0  0
    7.2982   -0.8367   20.7648 N   0  0  0  0  0  0  0  0  0  0  0  0
    6.6240   -0.0552   19.7830 C   0  0  0  0  0  0  0  0  0  0  0  0
    7.1390   -0.0324   18.4751 C   0  0  0  0  0  0  0  0  0  0  0  0
    8.0316   -0.6125   18.2344 H   0  0  0  0  0  0  0  0  0  0  0  0
    6.5804    0.6450   17.4705 N   0  0  0  0  0  0  0  0  0  0  0  0
    5.4570    1.3348   17.7239 C   0  0  0  0  0  0  0  0  0  0  0  0
    5.0226    1.8599   16.8772 H   0  0  0  0  0  0  0  0  0  0  0  0
    4.8598    1.3824   18.9859 C   0  0  0  0  0  0  0  0  0  0  0  0
    3.9419    1.9497   19.1171 H   0  0  0  0  0  0  0  0  0  0  0  0
    5.4591    0.6927   20.0452 C   0  0  0  0  0  0  0  0  0  0  0  0
    5.0388    0.7585   21.0499 H   0  0  0  0  0  0  0  0  0  0  0  0
    8.6685   -0.9749   20.8589 C   0  0  0  0  0  0  0  0  0  0  0  0
    9.3179   -0.4745   20.1511 H   0  0  0  0  0  0  0  0  0  0  0  0
  1  2  1  0
  2  3  1  0
  3  4  1  1
  3  5  1  0
  5  6  2  0
  6  7  1  0
  6  8  1  0
  8  9  1  0
  8 10  2  0
 10 11  1  0
 10 12  1  0
 12 13  1  0
 12 14  2  0
 14 15  1  0
  3 16  1  0
 16 17  1  0
 17 18  1  0
 17 19  2  0
 19 20  1  0
 19 21  1  0
 21 22  1  0
 22 23  2  0
 23 24  1  0
 23 25  1  0
 25 26  2  0
 26 27  1  0
 26 28  1  0
 28 29  1  0
 28 30  2  0
 30 31  1  0
 21 32  1  0
 32 33  1  0
 14  5  1  0
 32 16  2  0
 30 22  1  0
M  END
>  <cnnaffinity>  (1) 
-5.03634

>  <filename>  (1) 
O[C@@H](c1ccccc1)c1ccn(-c2cccnc2)c1

$$$$
