
     RDKit          3D

 50 54  0  0  0  0  0  0  0  0999 V2000
   11.3801    3.5369   21.8397 O   0  0  0  0  0  0  0  0  0  0  0  0
   11.3172    2.1108   21.9289 C   0  0  2  0  0  0  0  0  0  0  0  0
    9.9242    1.5207   21.8894 C   0  0  0  0  0  0  0  0  0  0  0  0
    9.5094    0.5314   21.1080 N   0  0  0  0  0  0  0  0  0  0  0  0
    8.2700    0.2552   21.5931 C   0  0  0  0  0  0  0  0  0  0  0  0
    7.3461   -0.7350   20.9480 C   0  0  0  0  0  0  0  0  0  0  0  0
    6.5717   -0.0995   19.8025 C   0  0  0  0  0  0  0  0  0  0  0  0
    5.3879    0.6047   20.0490 C   0  0  0  0  0  0  0  0  0  0  0  0
    4.7939    1.3165   19.0041 C   0  0  0  0  0  0  0  0  0  0  0  0
    5.4041    1.2979   17.7472 C   0  0  0  0  0  0  0  0  0  0  0  0
    6.5305    0.6188   17.4834 N   0  0  0  0  0  0  0  0  0  0  0  0
    7.0893   -0.0558   18.4954 C   0  0  0  0  0  0  0  0  0  0  0  0
    8.0202   -0.5746   18.2630 H   0  0  0  0  0  0  0  0  0  0  0  0
    4.9747    1.8548   16.9156 H   0  0  0  0  0  0  0  0  0  0  0  0
    3.8925    1.8983   19.1547 H   0  0  0  0  0  0  0  0  0  0  0  0
    4.9562    0.6090   21.0523 H   0  0  0  0  0  0  0  0  0  0  0  0
    7.9511   -1.5765   20.6005 H   0  0  0  0  0  0  0  0  0  0  0  0
    6.6632   -1.1062   21.7192 H   0  0  0  0  0  0  0  0  0  0  0  0
    7.9063    0.9818   22.6270 N   0  0  0  0  0  0  0  0  0  0  0  0
    8.9560    1.8338   22.7924 N   0  0  0  0  0  0  0  0  0  0  0  0
    8.9378    2.7883   23.8458 C   0  0  0  0  0  0  0  0  0  0  0  0
    9.1737    4.1565   23.6839 C   0  0  0  0  0  0  0  0  0  0  0  0
    9.0147    5.0462   24.7732 C   0  0  0  0  0  0  0  0  0  0  0  0
    8.6530    4.5914   26.0425 C   0  0  0  0  0  0  0  0  0  0  0  0
    8.4446    3.2080   26.2183 C   0  0  0  0  0  0  0  0  0  0  0  0
    8.6044    2.3332   25.1341 C   0  0  0  0  0  0  0  0  0  0  0  0
    8.4017    1.0773   25.6528 N   0  0  0  0  0  0  0  0  0  0  0  0
    8.0855    1.2460   26.9691 C   0  0  0  0  0  0  0  0  0  0  0  0
    8.1040    2.4898   27.3553 N   0  0  0  0  0  0  0  0  0  0  0  0
    7.8872    0.4010   27.6146 H   0  0  0  0  0  0  0  0  0  0  0  0
    8.2508    0.2636   25.0787 H   0  0  0  0  0  0  0  0  0  0  0  0
    8.5338    5.2587   26.8901 H   0  0  0  0  0  0  0  0  0  0  0  0
    9.1876    6.1065   24.6020 H   0  0  0  0  0  0  0  0  0  0  0  0
    9.4989    4.5430   22.7242 H   0  0  0  0  0  0  0  0  0  0  0  0
   12.0651    1.7416   23.2419 C   0  0  0  0  0  0  0  0  0  0  0  0
   13.5702    2.1031   23.1432 C   0  0  0  0  0  0  0  0  0  0  0  0
   14.3239    0.7695   22.9136 C   0  0  0  0  0  0  0  0  0  0  0  0
   13.2260   -0.2537   22.6231 C   0  0  0  0  0  0  0  0  0  0  0  0
   12.0937    0.2218   23.5378 C   0  0  0  0  0  0  0  0  0  0  0  0
   12.3690    0.0519   24.5894 H   0  0  0  0  0  0  0  0  0  0  0  0
   11.1279   -0.2669   23.3522 H   0  0  0  0  0  0  0  0  0  0  0  0
   13.5549   -1.2833   22.7591 H   0  0  0  0  0  0  0  0  0  0  0  0
   12.8563   -0.2043   21.6008 H   0  0  0  0  0  0  0  0  0  0  0  0
   14.7908    0.4633   23.8581 H   0  0  0  0  0  0  0  0  0  0  0  0
   15.1123    0.8204   22.1534 H   0  0  0  0  0  0  0  0  0  0  0  0
   13.7584    2.8652   22.3806 H   0  0  0  0  0  0  0  0  0  0  0  0
   13.8720    2.5516   24.0859 H   0  0  0  0  0  0  0  0  0  0  0  0
   11.5729    2.3067   24.0458 H   0  0  0  0  0  0  0  0  0  0  0  0
   11.8430    1.6620   21.0698 H   0  0  0  0  0  0  0  0  0  0  0  0
   10.8606    3.8640   21.0809 H   0  0  0  0  0  0  0  0  0  0  0  0
  1  2  1  0
  2  3  1  0
  3  4  2  0
  4  5  1  0
  5  6  1  0
  6  7  1  0
  7  8  2  0
  8  9  1  0
  9 10  2  0
 10 11  1  0
 11 12  2  0
 12 13  1  0
 10 14  1  0
  9 15  1  0
  8 16  1  0
  6 17  1  0
  6 18  1  0
  5 19  2  0
 19 20  1  0
 20 21  1  0
 21 22  2  0
 22 23  1  0
 23 24  2  0
 24 25  1  0
 25 26  2  0
 26 27  1  0
 27 28  1  0
 28 29  2  0
 28 30  1  0
 27 31  1  0
 24 32  1  0
 23 33  1  0
 22 34  1  0
  2 35  1  0
 35 36  1  0
 36 37  1  0
 37 38  1  0
 38 39  1  0
 39 40  1  0
 39 41  1  0
 38 42  1  0
 38 43  1  0
 37 44  1  0
 37 45  1  0
 36 46  1  0
 36 47  1  0
 35 48  1  0
  2 49  1  6
  1 50  1  0
 20  3  1  0
 26 21  1  0
 39 35  1  0
 12  7  1  0
 29 25  1  0
M  END
>  <cnnaffinity>  (1) 
-6.28372

>  <filename>  (1) 
O[C@H](c1nc(Cc2cccnc2)nn1-c1cccc2nc[nH]c12)C1CCCC1

$$$$
