
     RDKit          3D

 47 51  0  0  0  0  0  0  0  0999 V2000
    6.2366    4.5480   25.6175 O   0  0  0  0  0  0  0  0  0  0  0  0
    6.7473    3.4657   24.8662 C   0  0  2  0  0  0  0  0  0  0  0  0
    7.2562    2.2882   25.7240 C   0  0  0  0  0  0  0  0  0  0  0  0
    8.7768    2.2272   25.5382 C   0  0  0  0  0  0  0  0  0  0  0  0
    9.0054    2.7782   24.1147 C   0  0  1  0  0  0  0  0  0  0  0  0
    8.9330    1.7403   23.0300 C   0  0  0  0  0  0  0  0  0  0  0  0
    7.8628    1.0649   22.6669 N   0  0  0  0  0  0  0  0  0  0  0  0
    8.3305    0.2195   21.7105 C   0  0  0  0  0  0  0  0  0  0  0  0
    7.4189   -0.7099   20.9592 C   0  0  0  0  0  0  0  0  0  0  0  0
    6.6462   -0.0382   19.8234 C   0  0  0  0  0  0  0  0  0  0  0  0
    5.4423    0.6313   20.0861 C   0  0  0  0  0  0  0  0  0  0  0  0
    4.8011    1.3130   19.0484 C   0  0  0  0  0  0  0  0  0  0  0  0
    5.3913    1.3060   17.7817 C   0  0  0  0  0  0  0  0  0  0  0  0
    6.5340    0.6608   17.5003 N   0  0  0  0  0  0  0  0  0  0  0  0
    7.1348    0.0108   18.5048 C   0  0  0  0  0  0  0  0  0  0  0  0
    8.0638   -0.5022   18.2517 H   0  0  0  0  0  0  0  0  0  0  0  0
    4.9307    1.8458   16.9567 H   0  0  0  0  0  0  0  0  0  0  0  0
    3.8736    1.8535   19.2098 H   0  0  0  0  0  0  0  0  0  0  0  0
    5.0216    0.6172   21.0946 H   0  0  0  0  0  0  0  0  0  0  0  0
    6.7163   -1.1067   21.7023 H   0  0  0  0  0  0  0  0  0  0  0  0
    8.0233   -1.5419   20.5801 H   0  0  0  0  0  0  0  0  0  0  0  0
    9.6254    0.3121   21.4703 N   0  0  0  0  0  0  0  0  0  0  0  0
   10.0110    1.3214   22.2917 N   0  0  0  0  0  0  0  0  0  0  0  0
   11.3293    1.8556   22.2980 C   0  0  0  0  0  0  0  0  0  0  0  0
   12.4369    1.0691   22.4741 C   0  0  0  0  0  0  0  0  0  0  0  0
   13.7487    1.6496   22.6926 C   0  0  0  0  0  0  0  0  0  0  0  0
   13.9898    2.9932   22.6724 C   0  0  0  0  0  0  0  0  0  0  0  0
   12.8592    3.9266   22.5955 C   0  0  0  0  0  0  0  0  0  0  0  0
   11.4614    3.3317   22.1859 C   0  0  0  0  0  0  0  0  0  0  0  0
   11.6741    4.0232   23.3370 N   0  0  0  0  0  0  0  0  0  0  0  0
   12.0592    5.7201   21.8012 C   0  0  0  0  0  0  0  0  0  0  0  0
   13.1441    5.2110   21.8673 N   0  0  0  0  0  0  0  0  0  0  0  0
   11.2478    6.2661   21.4078 H   0  0  0  0  0  0  0  0  0  0  0  0
   11.0216    3.7981   21.2825 H   0  0  0  0  0  0  0  0  0  0  0  0
   14.9758    3.4319   22.5554 H   0  0  0  0  0  0  0  0  0  0  0  0
   14.5889    0.9578   22.7681 H   0  0  0  0  0  0  0  0  0  0  0  0
   12.3170   -0.0070   22.4481 H   0  0  0  0  0  0  0  0  0  0  0  0
    7.9364    3.8825   23.9759 C   0  0  0  0  0  0  0  0  0  0  0  0
    8.3444    4.8325   24.3502 H   0  0  0  0  0  0  0  0  0  0  0  0
    7.6361    4.0630   22.9382 H   0  0  0  0  0  0  0  0  0  0  0  0
    9.9900    3.2072   24.0819 H   0  0  0  0  0  0  0  0  0  0  0  0
    9.2963    2.8776   26.2575 H   0  0  0  0  0  0  0  0  0  0  0  0
    9.1981    1.2225   25.6628 H   0  0  0  0  0  0  0  0  0  0  0  0
    6.8166    1.3629   25.3423 H   0  0  0  0  0  0  0  0  0  0  0  0
    6.9557    2.3928   26.7725 H   0  0  0  0  0  0  0  0  0  0  0  0
    5.9137    3.1360   24.2397 H   0  0  0  0  0  0  0  0  0  0  0  0
    6.9738    4.8694   26.1530 H   0  0  0  0  0  0  0  0  0  0  0  0
  1  2  1  0
  2  3  1  0
  3  4  1  0
  4  5  1  0
  5  6  1  0
  6  7  2  0
  7  8  1  0
  8  9  1  0
  9 10  1  0
 10 11  2  0
 11 12  1  0
 12 13  2  0
 13 14  1  0
 14 15  2  0
 15 16  1  0
 13 17  1  0
 12 18  1  0
 11 19  1  0
  9 20  1  0
  9 21  1  0
  8 22  2  0
 22 23  1  0
 23 24  1  0
 24 25  2  0
 25 26  1  0
 26 27  2  0
 27 28  1  0
 28 29  2  0
 29 30  1  0
 30 31  1  0
 31 32  2  0
 31 33  1  0
 30 34  1  0
 27 35  1  0
 26 36  1  0
 25 37  1  0
  5 38  1  0
 38 39  1  0
 38 40  1  0
  5 41  1  1
  4 42  1  0
  4 43  1  0
  3 44  1  0
  3 45  1  0
  2 46  1  6
  1 47  1  0
 38  2  1  0
 23  6  1  0
 29 24  1  0
 15 10  1  0
 32 28  1  0
M  END
>  <cnnaffinity>  (1) 
-6.21771

>  <filename>  (1) 
O[C@@H]1CC[C@@H](c2nc(Cc3cccnc3)nn2-c2cccc3nc[nH]c23)C1

$$$$
