
     RDKit          3D

 30 32  0  0  0  0  0  0  0  0999 V2000
    7.1770   -1.9869   22.2221 H   0  0  0  0  0  0  0  0  0  0  0  0
    6.6852   -1.8782   21.3961 O   0  0  0  0  0  0  0  0  0  0  0  0
    7.4045   -0.7759   20.9249 C   0  0  1  0  0  0  0  0  0  0  0  0
    8.3484   -1.1015   20.4466 H   0  0  0  0  0  0  0  0  0  0  0  0
    6.6229    0.0049   19.9078 C   0  0  0  0  0  0  0  0  0  0  0  0
    7.1428    0.0457   18.6147 C   0  0  0  0  0  0  0  0  0  0  0  0
    8.0786   -0.4704   18.4000 H   0  0  0  0  0  0  0  0  0  0  0  0
    6.5759    0.6708   17.5737 N   0  0  0  0  0  0  0  0  0  0  0  0
    5.4206    1.3051   17.8130 C   0  0  0  0  0  0  0  0  0  0  0  0
    4.9690    1.8098   16.9584 H   0  0  0  0  0  0  0  0  0  0  0  0
    4.8054    1.3307   19.0709 C   0  0  0  0  0  0  0  0  0  0  0  0
    3.8693    1.8636   19.1871 H   0  0  0  0  0  0  0  0  0  0  0  0
    5.4143    0.6717   20.1455 C   0  0  0  0  0  0  0  0  0  0  0  0
    4.9431    0.6833   21.1321 H   0  0  0  0  0  0  0  0  0  0  0  0
    7.6845   -0.0891   22.1670 N   0  0  0  0  0  0  0  0  0  0  0  0
    6.8098   -0.0344   22.6687 H   0  0  0  0  0  0  0  0  0  0  0  0
    8.4845    1.0487   22.2288 C   0  0  0  0  0  0  0  0  0  0  0  0
    9.4320    1.3018   21.2907 C   0  0  0  0  0  0  0  0  0  0  0  0
    9.5364    0.7901   20.3466 H   0  0  0  0  0  0  0  0  0  0  0  0
   10.4574    2.6434   21.6551 S   0  0  0  0  0  0  0  0  0  0  0  0
    9.5074    3.0318   23.0635 C   0  0  0  0  0  0  0  0  0  0  0  0
    9.6642    4.1720   23.8778 C   0  0  0  0  0  0  0  0  0  0  0  0
   10.4094    4.9282   23.6309 H   0  0  0  0  0  0  0  0  0  0  0  0
    8.8513    4.2971   24.9973 C   0  0  0  0  0  0  0  0  0  0  0  0
    8.9666    5.1575   25.6568 H   0  0  0  0  0  0  0  0  0  0  0  0
    7.8751    3.3184   25.2840 C   0  0  0  0  0  0  0  0  0  0  0  0
    7.2517    3.4294   26.1684 H   0  0  0  0  0  0  0  0  0  0  0  0
    7.6753    2.2289   24.4380 C   0  0  0  0  0  0  0  0  0  0  0  0
    6.8605    1.5331   24.6373 H   0  0  0  0  0  0  0  0  0  0  0  0
    8.4955    2.0638   23.2946 C   0  0  0  0  0  0  0  0  0  0  0  0
  1  2  1  0
  2  3  1  0
  3  4  1  6
  3  5  1  0
  5  6  2  0
  6  7  1  0
  6  8  1  0
  8  9  2  0
  9 10  1  0
  9 11  1  0
 11 12  1  0
 11 13  2  0
 13 14  1  0
  3 15  1  0
 15 16  1  0
 15 17  1  0
 17 18  2  0
 18 19  1  0
 18 20  1  0
 20 21  1  0
 21 22  2  0
 22 23  1  0
 22 24  1  0
 24 25  1  0
 24 26  2  0
 26 27  1  0
 26 28  1  0
 28 29  1  0
 28 30  2  0
 13  5  1  0
 30 17  1  0
 30 21  1  0
M  END
>  <cnnaffinity>  (1) 
-4.68766

>  <filename>  (1) 
O[C@H](Nc1csc2ccccc12)c1cccnc1

$$$$
