
     RDKit          3D

 50 54  0  0  0  0  0  0  0  0999 V2000
    9.3028    2.2638   25.3250 O   0  0  0  0  0  0  0  0  0  0  0  0
    9.0810    2.8633   24.0495 C   0  0  1  0  0  0  0  0  0  0  0  0
    8.9554    1.8535   22.9272 C   0  0  0  0  0  0  0  0  0  0  0  0
    7.8797    1.1779   22.5524 N   0  0  0  0  0  0  0  0  0  0  0  0
    8.3660    0.2818   21.6570 C   0  0  0  0  0  0  0  0  0  0  0  0
    7.4543   -0.6821   20.9447 C   0  0  0  0  0  0  0  0  0  0  0  0
    6.6641   -0.0387   19.8094 C   0  0  0  0  0  0  0  0  0  0  0  0
    5.4581    0.6228   20.0762 C   0  0  0  0  0  0  0  0  0  0  0  0
    4.8126    1.3045   19.0412 C   0  0  0  0  0  0  0  0  0  0  0  0
    5.3989    1.3005   17.7733 C   0  0  0  0  0  0  0  0  0  0  0  0
    6.5396    0.6525   17.4865 N   0  0  0  0  0  0  0  0  0  0  0  0
    7.1444    0.0034   18.4891 C   0  0  0  0  0  0  0  0  0  0  0  0
    8.0708   -0.5138   18.2320 H   0  0  0  0  0  0  0  0  0  0  0  0
    4.9343    1.8372   16.9478 H   0  0  0  0  0  0  0  0  0  0  0  0
    3.8853    1.8432   19.2076 H   0  0  0  0  0  0  0  0  0  0  0  0
    5.0470    0.6056   21.0874 H   0  0  0  0  0  0  0  0  0  0  0  0
    8.0606   -1.5158   20.5780 H   0  0  0  0  0  0  0  0  0  0  0  0
    6.7562   -1.0781   21.6933 H   0  0  0  0  0  0  0  0  0  0  0  0
    9.6701    0.3528   21.4568 N   0  0  0  0  0  0  0  0  0  0  0  0
   10.0397    1.3915   22.2494 N   0  0  0  0  0  0  0  0  0  0  0  0
   11.3582    1.9136   22.2763 C   0  0  0  0  0  0  0  0  0  0  0  0
   11.6360    3.2822   22.2063 C   0  0  0  0  0  0  0  0  0  0  0  0
   12.9435    3.7761   22.3964 C   0  0  0  0  0  0  0  0  0  0  0  0
   13.9927    2.9027   22.6428 C   0  0  0  0  0  0  0  0  0  0  0  0
   13.7392    1.5141   22.7058 C   0  0  0  0  0  0  0  0  0  0  0  0
   12.4370    1.0408   22.4735 C   0  0  0  0  0  0  0  0  0  0  0  0
   12.5453   -0.3269   22.4713 N   0  0  0  0  0  0  0  0  0  0  0  0
   13.8602   -0.6142   22.6897 C   0  0  0  0  0  0  0  0  0  0  0  0
   14.6043    0.4404   22.8526 N   0  0  0  0  0  0  0  0  0  0  0  0
   14.2230   -1.6323   22.7189 H   0  0  0  0  0  0  0  0  0  0  0  0
   11.8144   -0.9300   22.1265 H   0  0  0  0  0  0  0  0  0  0  0  0
   15.0107    3.2657   22.6076 H   0  0  0  0  0  0  0  0  0  0  0  0
   13.1338    4.8460   22.3351 H   0  0  0  0  0  0  0  0  0  0  0  0
   10.8367    3.9915   22.0275 H   0  0  0  0  0  0  0  0  0  0  0  0
    7.9214    3.8633   24.0377 C   0  0  0  0  0  0  0  0  0  0  0  0
    8.0687    4.9597   25.0974 C   0  0  0  0  0  0  0  0  0  0  0  0
    7.1616    6.1052   24.6174 C   0  0  0  0  0  0  0  0  0  0  0  0
    6.9927    5.9120   23.0860 C   0  0  0  0  0  0  0  0  0  0  0  0
    7.8041    4.6526   22.7217 C   0  0  0  0  0  0  0  0  0  0  0  0
    8.8054    4.9430   22.3636 H   0  0  0  0  0  0  0  0  0  0  0  0
    7.3494    4.0528   21.9232 H   0  0  0  0  0  0  0  0  0  0  0  0
    5.9359    5.7694   22.8368 H   0  0  0  0  0  0  0  0  0  0  0  0
    7.3305    6.7855   22.5182 H   0  0  0  0  0  0  0  0  0  0  0  0
    6.1871    6.0565   25.1151 H   0  0  0  0  0  0  0  0  0  0  0  0
    7.5918    7.0800   24.8688 H   0  0  0  0  0  0  0  0  0  0  0  0
    7.8262    4.5981   26.1028 H   0  0  0  0  0  0  0  0  0  0  0  0
    9.1149    5.2971   25.1285 H   0  0  0  0  0  0  0  0  0  0  0  0
    6.9841    3.3114   24.2007 H   0  0  0  0  0  0  0  0  0  0  0  0
    9.9873    3.4498   23.9029 H   0  0  0  0  0  0  0  0  0  0  0  0
    8.5803    1.6511   25.5256 H   0  0  0  0  0  0  0  0  0  0  0  0
  1  2  1  0
  2  3  1  0
  3  4  2  0
  4  5  1  0
  5  6  1  0
  6  7  1  0
  7  8  2  0
  8  9  1  0
  9 10  2  0
 10 11  1  0
 11 12  2  0
 12 13  1  0
 10 14  1  0
  9 15  1  0
  8 16  1  0
  6 17  1  0
  6 18  1  0
  5 19  2  0
 19 20  1  0
 20 21  1  0
 21 22  2  0
 22 23  1  0
 23 24  2  0
 24 25  1  0
 25 26  2  0
 26 27  1  0
 27 28  1  0
 28 29  2  0
 28 30  1  0
 27 31  1  0
 24 32  1  0
 23 33  1  0
 22 34  1  0
  2 35  1  0
 35 36  1  0
 36 37  1  0
 37 38  1  0
 38 39  1  0
 39 40  1  0
 39 41  1  0
 38 42  1  0
 38 43  1  0
 37 44  1  0
 37 45  1  0
 36 46  1  0
 36 47  1  0
 35 48  1  0
  2 49  1  6
  1 50  1  0
 20  3  1  0
 26 21  1  0
 39 35  1  0
 12  7  1  0
 29 25  1  0
M  END
>  <cnnaffinity>  (1) 
-6.70978

>  <filename>  (1) 
O[C@@H](c1nc(Cc2cccnc2)nn1-c1cccc2nc[nH]c12)C1CCCC1

$$$$
