
     RDKit          3D

 53 57  0  0  0  0  0  0  0  0999 V2000
    7.6708    4.3162   25.5665 O   0  0  0  0  0  0  0  0  0  0  0  0
    7.5118    3.5808   24.3627 C   0  0  0  0  0  0  0  0  0  0  0  0
    8.8400    2.8480   24.1962 C   0  0  0  0  0  0  0  0  0  0  0  0
    8.8376    1.8805   23.0603 C   0  0  0  0  0  0  0  0  0  0  0  0
    7.8051    1.1414   22.6980 N   0  0  0  0  0  0  0  0  0  0  0  0
    8.3174    0.3253   21.7420 C   0  0  0  0  0  0  0  0  0  0  0  0
    7.4635   -0.6469   20.9795 C   0  0  0  0  0  0  0  0  0  0  0  0
    6.6779   -0.0168   19.8327 C   0  0  0  0  0  0  0  0  0  0  0  0
    5.4678    0.6407   20.0891 C   0  0  0  0  0  0  0  0  0  0  0  0
    4.8184    1.3067   19.0471 C   0  0  0  0  0  0  0  0  0  0  0  0
    5.4067    1.2945   17.7795 C   0  0  0  0  0  0  0  0  0  0  0  0
    6.5503    0.6486   17.5013 N   0  0  0  0  0  0  0  0  0  0  0  0
    7.1556    0.0100   18.5111 C   0  0  0  0  0  0  0  0  0  0  0  0
    8.0817   -0.5106   18.2637 H   0  0  0  0  0  0  0  0  0  0  0  0
    4.9407    1.8225   16.9486 H   0  0  0  0  0  0  0  0  0  0  0  0
    3.8836    1.8359   19.2054 H   0  0  0  0  0  0  0  0  0  0  0  0
    5.0546    0.6310   21.0992 H   0  0  0  0  0  0  0  0  0  0  0  0
    8.1050   -1.4547   20.6131 H   0  0  0  0  0  0  0  0  0  0  0  0
    6.7640   -1.0708   21.7064 H   0  0  0  0  0  0  0  0  0  0  0  0
    9.6082    0.4848   21.5085 N   0  0  0  0  0  0  0  0  0  0  0  0
    9.9245    1.5382   22.3161 N   0  0  0  0  0  0  0  0  0  0  0  0
   11.2165    2.1165   22.3887 C   0  0  0  0  0  0  0  0  0  0  0  0
   11.4505    3.4934   22.3160 C   0  0  0  0  0  0  0  0  0  0  0  0
   12.7596    4.0149   22.4433 C   0  0  0  0  0  0  0  0  0  0  0  0
   13.8451    3.1830   22.6991 C   0  0  0  0  0  0  0  0  0  0  0  0
   13.6242    1.7938   22.7845 C   0  0  0  0  0  0  0  0  0  0  0  0
   12.3299    1.2840   22.5895 C   0  0  0  0  0  0  0  0  0  0  0  0
   12.4796   -0.0793   22.5984 N   0  0  0  0  0  0  0  0  0  0  0  0
   13.8039   -0.3317   22.7843 C   0  0  0  0  0  0  0  0  0  0  0  0
   14.5235    0.7450   22.9140 N   0  0  0  0  0  0  0  0  0  0  0  0
   14.1961   -1.3426   22.8130 H   0  0  0  0  0  0  0  0  0  0  0  0
   11.7608   -0.7063   22.2788 H   0  0  0  0  0  0  0  0  0  0  0  0
   14.8527    3.5773   22.7582 H   0  0  0  0  0  0  0  0  0  0  0  0
   12.9193    5.0852   22.3440 H   0  0  0  0  0  0  0  0  0  0  0  0
   10.6176    4.1787   22.1738 H   0  0  0  0  0  0  0  0  0  0  0  0
    9.6305    3.5874   24.0650 H   0  0  0  0  0  0  0  0  0  0  0  0
    9.0741    2.3249   25.1323 H   0  0  0  0  0  0  0  0  0  0  0  0
    7.1514    4.4711   23.1455 C   0  0  0  0  0  0  0  0  0  0  0  0
    8.0952    5.6931   22.9113 C   0  0  0  0  0  0  0  0  0  0  0  0
    7.1771    6.9119   22.6848 C   0  0  0  0  0  0  0  0  0  0  0  0
    5.9118    6.5691   23.4811 C   0  0  0  0  0  0  0  0  0  0  0  0
    5.7180    5.0711   23.2128 C   0  0  0  0  0  0  0  0  0  0  0  0
    5.0687    4.5770   23.9495 H   0  0  0  0  0  0  0  0  0  0  0  0
    5.2283    4.9327   22.2387 H   0  0  0  0  0  0  0  0  0  0  0  0
    5.0408    7.1674   23.1912 H   0  0  0  0  0  0  0  0  0  0  0  0
    6.0859    6.7393   24.5536 H   0  0  0  0  0  0  0  0  0  0  0  0
    6.9365    7.0196   21.6169 H   0  0  0  0  0  0  0  0  0  0  0  0
    7.6385    7.8528   23.0062 H   0  0  0  0  0  0  0  0  0  0  0  0
    8.7151    5.8639   23.8016 H   0  0  0  0  0  0  0  0  0  0  0  0
    8.7857    5.5286   22.0716 H   0  0  0  0  0  0  0  0  0  0  0  0
    7.2030    3.7954   22.2808 H   0  0  0  0  0  0  0  0  0  0  0  0
    6.7030    2.8363   24.4836 H   0  0  0  0  0  0  0  0  0  0  0  0
    6.8485    4.7935   25.7372 H   0  0  0  0  0  0  0  0  0  0  0  0
  1  2  1  0
  2  3  1  0
  3  4  1  0
  4  5  2  0
  5  6  1  0
  6  7  1  0
  7  8  1  0
  8  9  2  0
  9 10  1  0
 10 11  2  0
 11 12  1  0
 12 13  2  0
 13 14  1  0
 11 15  1  0
 10 16  1  0
  9 17  1  0
  7 18  1  0
  7 19  1  0
  6 20  2  0
 20 21  1  0
 21 22  1  0
 22 23  2  0
 23 24  1  0
 24 25  2  0
 25 26  1  0
 26 27  2  0
 27 28  1  0
 28 29  1  0
 29 30  2  0
 29 31  1  0
 28 32  1  0
 25 33  1  0
 24 34  1  0
 23 35  1  0
  3 36  1  0
  3 37  1  0
  2 38  1  0
 38 39  1  0
 39 40  1  0
 40 41  1  0
 41 42  1  0
 42 43  1  0
 42 44  1  0
 41 45  1  0
 41 46  1  0
 40 47  1  0
 40 48  1  0
 39 49  1  0
 39 50  1  0
 38 51  1  0
  2 52  1  0
  1 53  1  0
 21  4  1  0
 27 22  1  0
 42 38  1  0
 13  8  1  0
 30 26  1  0
M  END
>  <cnnaffinity>  (1) 
-6.81906

>  <filename>  (1) 
OC(Cc1nc(Cc2cccnc2)nn1-c1cccc2nc[nH]c12)C1CCCC1

$$$$
