
     RDKit          3D

 35 37  0  0  0  0  0  0  0  0999 V2000
    6.9022   -2.1059   20.7869 O   0  0  0  0  0  0  0  0  0  0  0  0
    7.3370   -0.7486   21.0005 C   0  0  0  0  0  0  0  0  0  0  0  0
    6.6459    0.0124   19.9055 C   0  0  0  0  0  0  0  0  0  0  0  0
    5.4350    0.6613   20.1535 C   0  0  0  0  0  0  0  0  0  0  0  0
    4.8140    1.3093   19.0914 C   0  0  0  0  0  0  0  0  0  0  0  0
    5.4066    1.2929   17.8273 C   0  0  0  0  0  0  0  0  0  0  0  0
    6.5617    0.6495   17.5808 N   0  0  0  0  0  0  0  0  0  0  0  0
    7.1622    0.0198   18.6054 C   0  0  0  0  0  0  0  0  0  0  0  0
    8.1032   -0.4877   18.4176 H   0  0  0  0  0  0  0  0  0  0  0  0
    4.9153    1.8229   17.0182 H   0  0  0  0  0  0  0  0  0  0  0  0
    3.8824    1.8410   19.2307 H   0  0  0  0  0  0  0  0  0  0  0  0
    4.9864    0.6598   21.1450 H   0  0  0  0  0  0  0  0  0  0  0  0
    8.8573   -0.5064   21.0603 C   0  0  0  0  0  0  0  0  0  0  0  0
    9.7845   -1.4205   20.8525 N   0  0  0  0  0  0  0  0  0  0  0  0
   11.0119   -0.7835   20.9531 C   0  0  0  0  0  0  0  0  0  0  0  0
   10.8341    0.5302   21.2603 C   0  0  0  0  0  0  0  0  0  0  0  0
    9.4686    0.7233   21.3367 N   0  0  0  0  0  0  0  0  0  0  0  0
    8.8059    2.0023   21.6383 C   0  0  0  0  0  0  0  0  0  0  0  0
    8.1640    1.9319   22.9995 C   0  0  0  0  0  0  0  0  0  0  0  0
    6.7976    2.2201   23.1439 C   0  0  0  0  0  0  0  0  0  0  0  0
    6.1840    2.1630   24.3984 C   0  0  0  0  0  0  0  0  0  0  0  0
    4.3211    2.5604   24.5731 Br  0  0  0  0  0  0  0  0  0  0  0  0
    6.9401    1.8146   25.5211 C   0  0  0  0  0  0  0  0  0  0  0  0
    8.3057    1.5262   25.3869 C   0  0  0  0  0  0  0  0  0  0  0  0
    8.9187    1.5821   24.1320 C   0  0  0  0  0  0  0  0  0  0  0  0
   10.2386    1.2983   24.0206 F   0  0  0  0  0  0  0  0  0  0  0  0
    8.9028    1.2553   26.2521 H   0  0  0  0  0  0  0  0  0  0  0  0
    6.4595    1.7695   26.4940 H   0  0  0  0  0  0  0  0  0  0  0  0
    6.2052    2.4957   22.2763 H   0  0  0  0  0  0  0  0  0  0  0  0
    8.0577    2.2232   20.8718 H   0  0  0  0  0  0  0  0  0  0  0  0
    9.5456    2.8110   21.6219 H   0  0  0  0  0  0  0  0  0  0  0  0
   11.6271    1.2568   21.3851 H   0  0  0  0  0  0  0  0  0  0  0  0
   11.9737   -1.2539   20.7736 H   0  0  0  0  0  0  0  0  0  0  0  0
    6.9351   -0.4337   21.9658 H   0  0  0  0  0  0  0  0  0  0  0  0
    7.2715   -2.4782   19.9674 H   0  0  0  0  0  0  0  0  0  0  0  0
  1  2  1  0
  2  3  1  0
  3  4  2  0
  4  5  1  0
  5  6  2  0
  6  7  1  0
  7  8  2  0
  8  9  1  0
  6 10  1  0
  5 11  1  0
  4 12  1  0
  2 13  1  0
 13 14  2  0
 14 15  1  0
 15 16  2  0
 16 17  1  0
 17 18  1  0
 18 19  1  0
 19 20  2  0
 20 21  1  0
 21 22  1  0
 21 23  2  0
 23 24  1  0
 24 25  2  0
 25 26  1  0
 24 27  1  0
 23 28  1  0
 20 29  1  0
 18 30  1  0
 18 31  1  0
 16 32  1  0
 15 33  1  0
  2 34  1  0
  1 35  1  0
  8  3  1  0
 17 13  1  0
 25 19  1  0
M  END
>  <cnnaffinity>  (1) 
-5.70004

>  <filename>  (1) 
OC(c1cccnc1)c1nccn1Cc1cc(Br)ccc1F

$$$$
