
     RDKit          3D

 47 49  0  0  0  0  0  0  0  0999 V2000
   10.3072    1.5550   25.9100 O   0  0  0  0  0  0  0  0  0  0  0  0
    9.0127    1.1176   25.5520 C   0  0  0  0  0  0  0  0  0  0  0  0
    9.0169   -0.0232   24.5308 C   0  0  0  0  0  0  0  0  0  0  0  0
    9.3264    0.4535   23.1131 C   0  0  0  0  0  0  0  0  0  0  0  0
   10.8184    0.6542   22.8030 C   0  0  0  0  0  0  0  0  0  0  0  0
   11.2847   -0.6284   22.0822 C   0  0  0  0  0  0  0  0  0  0  0  0
   10.0541   -1.5402   22.0108 C   0  0  0  0  0  0  0  0  0  0  0  0
    8.8661   -0.6056   22.1396 N   0  0  0  0  0  4  0  0  0  0  0  0
    8.3782   -0.0631   20.8265 C   0  0  0  0  0  0  0  0  0  0  0  0
    7.1161   -0.7947   20.3498 C   0  0  0  0  0  0  0  0  0  0  0  0
    6.4179   -0.0199   19.2570 C   0  0  0  0  0  0  0  0  0  0  0  0
    5.3277    0.8142   19.5369 C   0  0  0  0  0  0  0  0  0  0  0  0
    4.8055    1.6222   18.5230 C   0  0  0  0  0  0  0  0  0  0  0  0
    5.3932    1.5688   17.2573 C   0  0  0  0  0  0  0  0  0  0  0  0
    6.4226    0.7631   16.9599 N   0  0  0  0  0  0  0  0  0  0  0  0
    6.9097   -0.0066   17.9407 C   0  0  0  0  0  0  0  0  0  0  0  0
    7.7528   -0.6458   17.6715 H   0  0  0  0  0  0  0  0  0  0  0  0
    5.0243    2.1951   16.4455 H   0  0  0  0  0  0  0  0  0  0  0  0
    3.9752    2.2978   18.6996 H   0  0  0  0  0  0  0  0  0  0  0  0
    4.9004    0.8377   20.5407 H   0  0  0  0  0  0  0  0  0  0  0  0
    6.4493   -0.9138   21.2140 H   0  0  0  0  0  0  0  0  0  0  0  0
    7.3862   -1.8031   20.0123 H   0  0  0  0  0  0  0  0  0  0  0  0
    8.1509    1.0029   20.9429 H   0  0  0  0  0  0  0  0  0  0  0  0
    9.1706   -0.1235   20.0741 H   0  0  0  0  0  0  0  0  0  0  0  0
    8.0619   -1.1006   22.5571 H   0  0  0  0  0  0  0  0  0  0  0  0
   10.0370   -2.2643   22.8305 H   0  0  0  0  0  0  0  0  0  0  0  0
    9.9912   -2.1033   21.0771 H   0  0  0  0  0  0  0  0  0  0  0  0
   11.6322   -0.4030   21.0701 H   0  0  0  0  0  0  0  0  0  0  0  0
   12.1069   -1.1268   22.6019 H   0  0  0  0  0  0  0  0  0  0  0  0
   11.3671    0.8645   23.7260 H   0  0  0  0  0  0  0  0  0  0  0  0
   10.9278    1.5251   22.1502 H   0  0  0  0  0  0  0  0  0  0  0  0
    8.7494    1.3674   22.9167 H   0  0  0  0  0  0  0  0  0  0  0  0
    8.0065   -0.4564   24.5285 H   0  0  0  0  0  0  0  0  0  0  0  0
    9.7295   -0.8258   24.7689 H   0  0  0  0  0  0  0  0  0  0  0  0
    8.2163    0.8336   26.8437 C   0  0  0  0  0  0  0  0  0  0  0  0
    7.4322    1.7927   27.4466 C   0  0  0  0  0  0  0  0  0  0  0  0
    7.2581    1.7059   28.9174 C   0  0  0  0  0  0  0  0  0  0  0  0
    7.9929    0.6948   29.3821 C   0  0  0  0  0  0  0  0  0  0  0  0
    8.2330    0.5144   30.6961 F   0  0  0  0  0  0  0  0  0  0  0  0
    8.7921   -0.4210   28.1558 C   0  0  0  0  0  0  0  0  0  0  0  0
    8.8515   -0.0778   28.1878 C   0  0  0  0  0  0  0  0  0  0  0  0
    9.9960   -0.6101   28.5212 H   0  0  0  0  0  0  0  0  0  0  0  0
    8.2564   -1.4488   27.9660 H   0  0  0  0  0  0  0  0  0  0  0  0
    6.6545    2.3868   29.5109 H   0  0  0  0  0  0  0  0  0  0  0  0
    6.9544    2.5977   26.8906 H   0  0  0  0  0  0  0  0  0  0  0  0
    8.4812    1.9609   25.0658 H   0  0  0  0  0  0  0  0  0  0  0  0
   10.1729    1.6286   26.8754 H   0  0  0  0  0  0  0  0  0  0  0  0
  1  2  1  0
  2  3  1  0
  3  4  1  0
  4  5  1  0
  5  6  1  0
  6  7  1  0
  7  8  1  0
  8  9  1  0
  9 10  1  0
 10 11  1  0
 11 12  2  0
 12 13  1  0
 13 14  2  0
 14 15  1  0
 15 16  2  0
 16 17  1  0
 14 18  1  0
 13 19  1  0
 12 20  1  0
 10 21  1  0
 10 22  1  0
  9 23  1  0
  9 24  1  0
  8 25  1  0
  7 26  1  0
  7 27  1  0
  6 28  1  0
  6 29  1  0
  5 30  1  0
  5 31  1  0
  4 32  1  0
  3 33  1  0
  3 34  1  0
  2 35  1  0
 35 36  2  0
 36 37  1  0
 37 38  2  0
 38 39  1  0
 38 40  1  0
 40 41  2  0
 41 42  1  0
 40 43  1  0
 37 44  1  0
 36 45  1  0
  2 46  1  0
  1 47  1  0
  8  4  1  0
 16 11  1  0
 41 35  1  0
M  CHG  1   8   1
M  END
>  <cnnaffinity>  (1) 
-4.81053

>  <filename>  (1) 
OC(CC1CCC[NH+]1CCc1cccnc1)c1ccc(F)cc1

$$$$
