
     RDKit          3D

 30 32  0  0  0  0  0  0  0  0999 V2000
    9.1485    1.2727   22.8876 H   0  0  0  0  0  0  0  0  0  0  0  0
    9.4015    1.6042   23.7603 O   0  0  0  0  0  0  0  0  0  0  0  0
    8.2915    1.6508   24.5429 C   0  0  0  0  0  0  0  0  0  0  0  0
    8.5101    2.0111   25.8785 C   0  0  0  0  0  0  0  0  0  0  0  0
    9.5333    2.2020   26.1776 H   0  0  0  0  0  0  0  0  0  0  0  0
    7.4354    2.0779   26.7632 C   0  0  0  0  0  0  0  0  0  0  0  0
    7.7090    2.4138   28.4414 Cl  0  0  0  0  0  0  0  0  0  0  0  0
    6.1268    1.8548   26.3294 C   0  0  0  0  0  0  0  0  0  0  0  0
    5.3101    1.9581   27.0329 H   0  0  0  0  0  0  0  0  0  0  0  0
    5.9075    1.4867   25.0019 C   0  0  0  0  0  0  0  0  0  0  0  0
    4.9124    1.2538   24.6343 H   0  0  0  0  0  0  0  0  0  0  0  0
    6.9812    1.3086   24.1423 C   0  0  0  0  0  0  0  0  0  0  0  0
    6.5974    0.7239   22.9189 O   0  0  0  0  0  0  0  0  0  0  0  0
    7.4796   -0.1681   22.3725 N   0  0  0  0  0  0  0  0  0  0  0  0
    8.1517   -1.1230   23.0926 C   0  0  0  0  0  0  0  0  0  0  0  0
    8.1996   -1.1243   24.1791 H   0  0  0  0  0  0  0  0  0  0  0  0
    8.7713   -1.9523   22.2904 N   0  0  0  0  0  0  0  0  0  0  0  0
    8.4192   -1.5750   21.0243 C   0  0  0  0  0  0  0  0  0  0  0  0
    8.8169   -2.0934   20.1659 H   0  0  0  0  0  0  0  0  0  0  0  0
    7.5511   -0.5049   21.0184 C   0  0  0  0  0  0  0  0  0  0  0  0
    6.7852    0.1591   19.9352 C   0  0  0  0  0  0  0  0  0  0  0  0
    7.2525    0.1542   18.6002 C   0  0  0  0  0  0  0  0  0  0  0  0
    8.2112   -0.3119   18.3729 H   0  0  0  0  0  0  0  0  0  0  0  0
    6.6027    0.6982   17.5624 N   0  0  0  0  0  0  0  0  0  0  0  0
    5.4210    1.2839   17.8146 C   0  0  0  0  0  0  0  0  0  0  0  0
    4.9179    1.7246   16.9543 H   0  0  0  0  0  0  0  0  0  0  0  0
    4.8559    1.3504   19.0924 C   0  0  0  0  0  0  0  0  0  0  0  0
    3.9025    1.8506   19.2376 H   0  0  0  0  0  0  0  0  0  0  0  0
    5.5525    0.8038   20.1712 C   0  0  0  0  0  0  0  0  0  0  0  0
    5.1761    0.8872   21.1875 H   0  0  0  0  0  0  0  0  0  0  0  0
  1  2  1  0
  2  3  1  0
  3  4  2  0
  4  5  1  0
  4  6  1  0
  6  7  1  0
  6  8  2  0
  8  9  1  0
  8 10  1  0
 10 11  1  0
 10 12  2  0
 12 13  1  0
 13 14  1  0
 14 15  1  0
 15 16  1  0
 15 17  2  0
 17 18  1  0
 18 19  1  0
 18 20  2  0
 20 21  1  0
 21 22  2  0
 22 23  1  0
 22 24  1  0
 24 25  2  0
 25 26  1  0
 25 27  1  0
 27 28  1  0
 27 29  2  0
 29 30  1  0
 12  3  1  0
 20 14  1  0
 29 21  1  0
M  END
>  <cnnaffinity>  (1) 
-4.98184

>  <filename>  (1) 
Oc1cc(Cl)ccc1On1cncc1-c1cccnc1

$$$$
