
     RDKit          3D

 46 49  0  0  0  0  0  0  0  0999 V2000
   12.3486   -0.0802   22.3080 O   0  0  0  0  0  0  0  0  0  0  0  0
   12.4480    1.2509   22.3922 C   0  0  0  0  0  0  0  0  0  0  0  0
   13.6540    1.8660   22.7090 C   0  0  0  0  0  0  0  0  0  0  0  0
   13.7269    3.2527   22.6812 C   0  0  0  0  0  0  0  0  0  0  0  0
   12.6627    4.0292   22.4597 N   0  0  0  0  0  0  0  0  0  0  0  0
   11.4958    3.4220   22.2502 C   0  0  0  0  0  0  0  0  0  0  0  0
   11.3110    2.0399   22.2198 C   0  0  0  0  0  0  0  0  0  0  0  0
    9.9805    1.4510   22.1527 C   0  0  0  0  0  0  0  0  0  0  0  0
    9.5789    0.5063   21.3269 N   0  0  0  0  0  0  0  0  0  0  0  0
    8.2820    0.3197   21.6799 C   0  0  0  0  0  0  0  0  0  0  0  0
    7.3844   -0.6648   20.9850 C   0  0  0  0  0  0  0  0  0  0  0  0
    6.6100   -0.0329   19.8422 C   0  0  0  0  0  0  0  0  0  0  0  0
    5.4041    0.6318   20.0909 C   0  0  0  0  0  0  0  0  0  0  0  0
    4.7849    1.3129   19.0422 C   0  0  0  0  0  0  0  0  0  0  0  0
    5.3932    1.3090   17.7837 C   0  0  0  0  0  0  0  0  0  0  0  0
    6.5413    0.6664   17.5199 N   0  0  0  0  0  0  0  0  0  0  0  0
    7.1247    0.0189   18.5357 C   0  0  0  0  0  0  0  0  0  0  0  0
    8.0661   -0.4818   18.3048 H   0  0  0  0  0  0  0  0  0  0  0  0
    4.9381    1.8420   16.9506 H   0  0  0  0  0  0  0  0  0  0  0  0
    3.8626    1.8597   19.1928 H   0  0  0  0  0  0  0  0  0  0  0  0
    4.9725    0.6340   21.0949 H   0  0  0  0  0  0  0  0  0  0  0  0
    6.6882   -1.0804   21.7200 H   0  0  0  0  0  0  0  0  0  0  0  0
    8.0030   -1.4923   20.6267 H   0  0  0  0  0  0  0  0  0  0  0  0
    7.8590    1.0876   22.6660 N   0  0  0  0  0  0  0  0  0  0  0  0
    8.9594    1.8227   22.9685 N   0  0  0  0  0  0  0  0  0  0  0  0
    8.9377    2.7978   24.0577 C   0  0  0  0  0  0  0  0  0  0  0  0
    8.5570    2.1272   25.3908 C   0  0  0  0  0  0  0  0  0  0  0  0
    8.5070    3.1665   26.5188 C   0  0  0  0  0  0  0  0  0  0  0  0
    7.6236    4.3655   26.1961 C   0  0  0  0  0  0  0  0  0  0  0  0
    6.3064    3.9797   26.1826 F   0  0  0  0  0  0  0  0  0  0  0  0
    7.7465    5.2956   27.1969 F   0  0  0  0  0  0  0  0  0  0  0  0
    7.9816    5.0127   24.8588 C   0  0  0  0  0  0  0  0  0  0  0  0
    8.0184    3.9857   23.7141 C   0  0  0  0  0  0  0  0  0  0  0  0
    8.3761    4.4703   22.7959 H   0  0  0  0  0  0  0  0  0  0  0  0
    7.0126    3.5963   23.5049 H   0  0  0  0  0  0  0  0  0  0  0  0
    8.9708    5.4784   24.9833 H   0  0  0  0  0  0  0  0  0  0  0  0
    7.2675    5.8148   24.6458 H   0  0  0  0  0  0  0  0  0  0  0  0
    9.5055    3.5879   26.6541 H   0  0  0  0  0  0  0  0  0  0  0  0
    8.1933    2.7148   27.4654 H   0  0  0  0  0  0  0  0  0  0  0  0
    9.3187    1.3731   25.6214 H   0  0  0  0  0  0  0  0  0  0  0  0
    7.5943    1.6118   25.2725 H   0  0  0  0  0  0  0  0  0  0  0  0
    9.9582    3.1718   24.1846 H   0  0  0  0  0  0  0  0  0  0  0  0
   10.6451    4.0947   22.1709 H   0  0  0  0  0  0  0  0  0  0  0  0
   14.6642    3.7785   22.8523 H   0  0  0  0  0  0  0  0  0  0  0  0
   14.5213    1.2694   22.9528 H   0  0  0  0  0  0  0  0  0  0  0  0
   13.2502   -0.4199   22.2626 H   0  0  0  0  0  0  0  0  0  0  0  0
  1  2  1  0
  2  3  2  0
  3  4  1  0
  4  5  2  0
  5  6  1  0
  6  7  2  0
  7  8  1  0
  8  9  2  0
  9 10  1  0
 10 11  1  0
 11 12  1  0
 12 13  2  0
 13 14  1  0
 14 15  2  0
 15 16  1  0
 16 17  2  0
 17 18  1  0
 15 19  1  0
 14 20  1  0
 13 21  1  0
 11 22  1  0
 11 23  1  0
 10 24  2  0
 24 25  1  0
 25 26  1  0
 26 27  1  0
 27 28  1  0
 28 29  1  0
 29 30  1  0
 29 31  1  0
 29 32  1  0
 32 33  1  0
 33 34  1  0
 33 35  1  0
 32 36  1  0
 32 37  1  0
 28 38  1  0
 28 39  1  0
 27 40  1  0
 27 41  1  0
 26 42  1  0
  6 43  1  0
  4 44  1  0
  3 45  1  0
  1 46  1  0
  7  2  1  0
 25  8  1  0
 33 26  1  0
 17 12  1  0
M  END
>  <cnnaffinity>  (1) 
-6.13081

>  <filename>  (1) 
Oc1ccncc1-c1nc(Cc2cccnc2)nn1C1CCC(F)(F)CC1

$$$$
