
     RDKit          3D

 27 28  0  0  0  0  0  0  0  0999 V2000
    8.9776   -2.7112   24.4693 H   0  0  0  0  0  0  0  0  0  0  0  0
    8.6175   -2.6407   25.3659 O   0  0  0  0  0  0  0  0  0  0  0  0
    8.3410   -1.3306   25.6452 C   0  0  0  0  0  0  0  0  0  0  0  0
    8.2344   -0.9739   26.9851 C   0  0  0  0  0  0  0  0  0  0  0  0
    8.3683   -1.7519   27.7312 H   0  0  0  0  0  0  0  0  0  0  0  0
    7.9916    0.3528   27.3508 C   0  0  0  0  0  0  0  0  0  0  0  0
    7.9146    0.8070   29.0473 Cl  0  0  0  0  0  0  0  0  0  0  0  0
    7.8139    1.3164   26.3477 C   0  0  0  0  0  0  0  0  0  0  0  0
    7.6428    2.3515   26.6305 H   0  0  0  0  0  0  0  0  0  0  0  0
    7.8853    0.9536   24.9928 C   0  0  0  0  0  0  0  0  0  0  0  0
    7.7611    1.7031   24.2154 H   0  0  0  0  0  0  0  0  0  0  0  0
    8.1710   -0.3714   24.6282 C   0  0  0  0  0  0  0  0  0  0  0  0
    8.3361   -0.7652   23.3240 O   0  0  0  0  0  0  0  0  0  0  0  0
    7.6038   -0.1173   22.3630 C   0  0  0  0  0  0  0  0  0  0  0  0
    6.8537    0.6185   22.6325 H   0  0  0  0  0  0  0  0  0  0  0  0
    7.7823   -0.4493   21.0371 C   0  0  0  0  0  0  0  0  0  0  0  0
    9.1819   -1.6659   20.5703 Br  0  0  0  0  0  0  0  0  0  0  0  0
    6.9310    0.1024   19.9738 C   0  0  0  0  0  0  0  0  0  0  0  0
    7.2795   -0.0603   18.6203 C   0  0  0  0  0  0  0  0  0  0  0  0
    8.1731   -0.6291   18.3819 H   0  0  0  0  0  0  0  0  0  0  0  0
    6.5724    0.4649   17.6007 N   0  0  0  0  0  0  0  0  0  0  0  0
    5.4645    1.1651   17.9030 C   0  0  0  0  0  0  0  0  0  0  0  0
    4.8912    1.6101   17.0961 H   0  0  0  0  0  0  0  0  0  0  0  0
    5.0212    1.3341   19.2196 C   0  0  0  0  0  0  0  0  0  0  0  0
    4.1189    1.9029   19.4124 H   0  0  0  0  0  0  0  0  0  0  0  0
    5.7547    0.7916   20.2740 C   0  0  0  0  0  0  0  0  0  0  0  0
    5.4285    0.9031   21.3068 H   0  0  0  0  0  0  0  0  0  0  0  0
  1  2  1  0
  2  3  1  0
  3  4  2  0
  4  5  1  0
  4  6  1  0
  6  7  1  0
  6  8  2  0
  8  9  1  0
  8 10  1  0
 10 11  1  0
 10 12  2  0
 12 13  1  0
 13 14  1  0
 14 15  1  0
 14 16  2  3
 16 17  1  0
 16 18  1  0
 18 19  2  0
 19 20  1  0
 19 21  1  0
 21 22  2  0
 22 23  1  0
 22 24  1  0
 24 25  1  0
 24 26  2  0
 26 27  1  0
 12  3  1  0
 26 18  1  0
M  END
>  <cnnaffinity>  (1) 
-4.5623

>  <filename>  (1) 
Oc1cc(Cl)ccc1OC=C(Br)c1cccnc1

$$$$
