
     RDKit          3D

 26 27  0  0  0  0  0  0  0  0999 V2000
    7.1676   -4.0769   19.1632 H   0  0  0  0  0  0  0  0  0  0  0  0
    6.4785   -4.6799   19.5020 O   0  0  0  0  0  0  0  0  0  0  0  0
    6.5544   -4.6403   20.8571 C   0  0  0  0  0  0  0  0  0  0  0  0
    5.7572   -5.5837   21.5104 C   0  0  0  0  0  0  0  0  0  0  0  0
    5.2180   -6.3029   20.9047 H   0  0  0  0  0  0  0  0  0  0  0  0
    5.7047   -5.5959   22.9025 C   0  0  0  0  0  0  0  0  0  0  0  0
    4.7696   -6.8303   23.6978 Cl  0  0  0  0  0  0  0  0  0  0  0  0
    6.4005   -4.6471   23.6602 C   0  0  0  0  0  0  0  0  0  0  0  0
    6.3114   -4.6442   24.7394 H   0  0  0  0  0  0  0  0  0  0  0  0
    7.2337   -3.7257   23.0072 C   0  0  0  0  0  0  0  0  0  0  0  0
    7.8281   -2.9843   23.5313 H   0  0  0  0  0  0  0  0  0  0  0  0
    7.3282   -3.7560   21.6275 C   0  0  0  0  0  0  0  0  0  0  0  0
    8.3973   -2.9907   20.9485 O   0  0  0  0  0  0  0  0  0  0  0  0
    8.6584   -1.3241   21.1482 S   0  0  0  0  0  0  0  0  0  0  0  0
    7.1337   -0.6870   21.0387 N   0  0  0  0  0  0  0  0  0  0  0  0
    6.5896   -0.5436   21.8968 H   0  0  0  0  0  0  0  0  0  0  0  0
    6.6267    0.0215   19.9276 C   0  0  0  0  0  0  0  0  0  0  0  0
    7.1972    0.0811   18.6313 C   0  0  0  0  0  0  0  0  0  0  0  0
    8.1633   -0.3792   18.4179 H   0  0  0  0  0  0  0  0  0  0  0  0
    6.6045    0.7022   17.5961 N   0  0  0  0  0  0  0  0  0  0  0  0
    5.4201    1.3002   17.8048 C   0  0  0  0  0  0  0  0  0  0  0  0
    4.9485    1.7552   16.9363 H   0  0  0  0  0  0  0  0  0  0  0  0
    4.8010    1.3364   19.0601 C   0  0  0  0  0  0  0  0  0  0  0  0
    3.8571    1.8511   19.1859 H   0  0  0  0  0  0  0  0  0  0  0  0
    5.4241    0.7052   20.1346 C   0  0  0  0  0  0  0  0  0  0  0  0
    5.0263    0.7452   21.1461 H   0  0  0  0  0  0  0  0  0  0  0  0
  1  2  1  0
  2  3  1  0
  3  4  2  0
  4  5  1  0
  4  6  1  0
  6  7  1  0
  6  8  2  0
  8  9  1  0
  8 10  1  0
 10 11  1  0
 10 12  2  0
 12 13  1  0
 13 14  1  0
 14 15  1  0
 15 16  1  0
 15 17  1  0
 17 18  2  0
 18 19  1  0
 18 20  1  0
 20 21  2  0
 21 22  1  0
 21 23  1  0
 23 24  1  0
 23 25  2  0
 25 26  1  0
 12  3  1  0
 25 17  1  0
M  END
>  <cnnaffinity>  (1) 
-4.93784

>  <filename>  (1) 
Oc1cc(Cl)ccc1OSNc1cccnc1

$$$$
