
     RDKit          3D

 32 34  0  0  0  0  0  0  0  0999 V2000
    7.5431    0.6090   24.6178 H   0  0  0  0  0  0  0  0  0  0  0  0
    8.0548   -0.0639   24.1551 O   0  0  0  0  0  0  0  0  0  0  0  0
    7.3672   -1.2273   24.2623 C   0  0  0  0  0  0  0  0  0  0  0  0
    6.1546   -1.2749   24.9530 C   0  0  0  0  0  0  0  0  0  0  0  0
    5.7545   -0.3745   25.4099 H   0  0  0  0  0  0  0  0  0  0  0  0
    5.4664   -2.4834   25.0545 C   0  0  0  0  0  0  0  0  0  0  0  0
    3.9682   -2.5398   25.9322 Cl  0  0  0  0  0  0  0  0  0  0  0  0
    5.9719   -3.6426   24.4655 C   0  0  0  0  0  0  0  0  0  0  0  0
    5.4300   -4.5721   24.5820 H   0  0  0  0  0  0  0  0  0  0  0  0
    7.1845   -3.5942   23.7640 C   0  0  0  0  0  0  0  0  0  0  0  0
    7.6227   -4.4731   23.2927 H   0  0  0  0  0  0  0  0  0  0  0  0
    7.8835   -2.3953   23.6564 C   0  0  0  0  0  0  0  0  0  0  0  0
    9.1166   -2.4295   23.0030 O   0  0  0  0  0  0  0  0  0  0  0  0
    9.3919   -1.4442   22.0955 C   0  0  0  0  0  0  0  0  0  0  0  0
    8.6678   -0.6619   21.2051 C   0  0  0  0  0  0  0  0  0  0  0  0
    7.2912   -0.6996   20.9303 N   0  0  0  0  0  0  0  0  0  0  0  0
    6.7050   -1.1751   21.6080 H   0  0  0  0  0  0  0  0  0  0  0  0
    6.6479   -0.0211   19.8873 C   0  0  0  0  0  0  0  0  0  0  0  0
    7.1637    0.0521   18.5676 C   0  0  0  0  0  0  0  0  0  0  0  0
    8.1151   -0.4288   18.3421 H   0  0  0  0  0  0  0  0  0  0  0  0
    6.5511    0.6829   17.5554 N   0  0  0  0  0  0  0  0  0  0  0  0
    5.3879    1.3018   17.8220 C   0  0  0  0  0  0  0  0  0  0  0  0
    4.9185    1.8158   16.9873 H   0  0  0  0  0  0  0  0  0  0  0  0
    4.7954    1.3036   19.0922 C   0  0  0  0  0  0  0  0  0  0  0  0
    3.8667    1.8443   19.2533 H   0  0  0  0  0  0  0  0  0  0  0  0
    5.4313    0.6261   20.1373 C   0  0  0  0  0  0  0  0  0  0  0  0
    5.0276    0.6120   21.1499 H   0  0  0  0  0  0  0  0  0  0  0  0
    9.6424    0.2402   20.6961 C   0  0  0  0  0  0  0  0  0  0  0  0
    9.4779    1.0391   19.9842 H   0  0  0  0  0  0  0  0  0  0  0  0
   10.8539    0.0147   21.1886 N   0  0  0  0  0  0  0  0  0  0  0  0
   10.6732   -1.0316   22.0241 N   0  0  0  0  0  0  0  0  0  0  0  0
   11.4478   -1.4329   22.5343 H   0  0  0  0  0  0  0  0  0  0  0  0
  1  2  1  0
  2  3  1  0
  3  4  2  0
  4  5  1  0
  4  6  1  0
  6  7  1  0
  6  8  2  0
  8  9  1  0
  8 10  1  0
 10 11  1  0
 10 12  2  0
 12 13  1  0
 13 14  1  0
 14 15  2  0
 15 16  1  0
 16 17  1  0
 16 18  1  0
 18 19  2  0
 19 20  1  0
 19 21  1  0
 21 22  2  0
 22 23  1  0
 22 24  1  0
 24 25  1  0
 24 26  2  0
 26 27  1  0
 15 28  1  0
 28 29  1  0
 28 30  2  0
 30 31  1  0
 31 32  1  0
 12  3  1  0
 31 14  1  0
 26 18  1  0
M  END
>  <cnnaffinity>  (1) 
-5.16824

>  <filename>  (1) 
Oc1cc(Cl)ccc1Oc1[nH]ncc1Nc1cccnc1

$$$$
