
     RDKit          3D

 37 39  0  0  0  0  0  0  0  0999 V2000
    9.6222   -3.5917   25.9427 H   0  0  0  0  0  0  0  0  0  0  0  0
    9.5291   -3.1212   26.7914 O   0  0  0  0  0  0  0  0  0  0  0  0
    9.0389   -1.8944   26.4820 C   0  0  0  0  0  0  0  0  0  0  0  0
    8.8708   -0.9788   27.5153 C   0  0  0  0  0  0  0  0  0  0  0  0
    9.2374   -1.2106   28.5047 H   0  0  0  0  0  0  0  0  0  0  0  0
    8.2415    0.2417   27.2793 C   0  0  0  0  0  0  0  0  0  0  0  0
    7.9112    1.3071   28.6093 Cl  0  0  0  0  0  0  0  0  0  0  0  0
    7.8742    0.6059   25.9893 C   0  0  0  0  0  0  0  0  0  0  0  0
    7.3799    1.5552   25.8239 H   0  0  0  0  0  0  0  0  0  0  0  0
    8.1243   -0.2745   24.9293 C   0  0  0  0  0  0  0  0  0  0  0  0
    7.8728    0.0493   23.9280 H   0  0  0  0  0  0  0  0  0  0  0  0
    8.6849   -1.5384   25.1479 C   0  0  0  0  0  0  0  0  0  0  0  0
    8.9536   -2.4893   24.1870 O   0  0  0  0  0  0  0  0  0  0  0  0
    8.5435   -2.3646   22.8072 C   0  0  2  0  0  0  0  0  0  0  0  0
    8.8621   -3.3248   22.3876 H   0  0  0  0  0  0  0  0  0  0  0  0
    9.3411   -1.2485   22.0827 C   0  0  0  0  0  0  0  0  0  0  0  0
    9.6828   -0.4820   22.7910 H   0  0  0  0  0  0  0  0  0  0  0  0
   10.2724   -1.6863   21.6985 H   0  0  0  0  0  0  0  0  0  0  0  0
    8.6124   -0.5718   20.9440 C   0  0  0  0  0  0  0  0  0  0  0  0
    9.1895    0.1707   20.3909 H   0  0  0  0  0  0  0  0  0  0  0  0
    7.3367   -0.8051   20.6084 C   0  0  0  0  0  0  0  0  0  0  0  0
    6.6487    0.0201   19.5716 C   0  0  0  0  0  0  0  0  0  0  0  0
    7.1802    0.1792   18.2755 C   0  0  0  0  0  0  0  0  0  0  0  0
    8.1277   -0.2895   18.0145 H   0  0  0  0  0  0  0  0  0  0  0  0
    6.5894    0.8622   17.2856 N   0  0  0  0  0  0  0  0  0  0  0  0
    5.4265    1.4713   17.5666 C   0  0  0  0  0  0  0  0  0  0  0  0
    4.9655    2.0271   16.7504 H   0  0  0  0  0  0  0  0  0  0  0  0
    4.8189    1.4139   18.8251 C   0  0  0  0  0  0  0  0  0  0  0  0
    3.8910    1.9477   18.9968 H   0  0  0  0  0  0  0  0  0  0  0  0
    5.4338    0.6727   19.8378 C   0  0  0  0  0  0  0  0  0  0  0  0
    4.9996    0.6049   20.8372 H   0  0  0  0  0  0  0  0  0  0  0  0
    6.5586   -1.9580   21.2342 C   0  0  0  0  0  0  0  0  0  0  0  0
    5.4862   -1.7311   21.2292 H   0  0  0  0  0  0  0  0  0  0  0  0
    6.6853   -2.8393   20.5848 H   0  0  0  0  0  0  0  0  0  0  0  0
    7.0100   -2.2783   22.6686 C   0  0  0  0  0  0  0  0  0  0  0  0
    6.6169   -1.5173   23.3504 H   0  0  0  0  0  0  0  0  0  0  0  0
    6.5919   -3.2360   22.9997 H   0  0  0  0  0  0  0  0  0  0  0  0
  1  2  1  0
  2  3  1  0
  3  4  2  0
  4  5  1  0
  4  6  1  0
  6  7  1  0
  6  8  2  0
  8  9  1  0
  8 10  1  0
 10 11  1  0
 10 12  2  0
 12 13  1  0
 13 14  1  0
 14 15  1  6
 14 16  1  0
 16 17  1  0
 16 18  1  0
 16 19  1  0
 19 20  1  0
 19 21  2  0
 21 22  1  0
 22 23  2  0
 23 24  1  0
 23 25  1  0
 25 26  2  0
 26 27  1  0
 26 28  1  0
 28 29  1  0
 28 30  2  0
 30 31  1  0
 21 32  1  0
 32 33  1  0
 32 34  1  0
 32 35  1  0
 35 36  1  0
 35 37  1  0
 12  3  1  0
 35 14  1  0
 30 22  1  0
M  END
>  <cnnaffinity>  (1) 
-5.14099

>  <filename>  (1) 
Oc1cc(Cl)ccc1O[C@@H]1CC=C(c2cccnc2)CC1

$$$$
