
     RDKit          3D

 28 29  0  0  0  0  0  0  0  0999 V2000
    9.3677   -1.9876   24.6016 H   0  0  0  0  0  0  0  0  0  0  0  0
    9.6608   -2.9112   24.6231 O   0  0  0  0  0  0  0  0  0  0  0  0
    8.9404   -3.5866   23.6959 C   0  0  0  0  0  0  0  0  0  0  0  0
    9.1331   -4.9550   23.6533 C   0  0  0  0  0  0  0  0  0  0  0  0
    9.8593   -5.3584   24.3530 H   0  0  0  0  0  0  0  0  0  0  0  0
    8.4629   -5.7178   22.6939 C   0  0  0  0  0  0  0  0  0  0  0  0
    8.7502   -7.4264   22.6430 Cl  0  0  0  0  0  0  0  0  0  0  0  0
    7.5922   -5.1171   21.7799 C   0  0  0  0  0  0  0  0  0  0  0  0
    7.1288   -5.7299   21.0126 H   0  0  0  0  0  0  0  0  0  0  0  0
    7.3642   -3.7318   21.8465 C   0  0  0  0  0  0  0  0  0  0  0  0
    6.6700   -3.2368   21.1710 H   0  0  0  0  0  0  0  0  0  0  0  0
    8.0412   -2.9620   22.7993 C   0  0  0  0  0  0  0  0  0  0  0  0
    7.9355   -1.5930   22.9495 O   0  0  0  0  0  0  0  0  0  0  0  0
    6.9084   -0.8975   22.2779 C   0  0  0  0  0  0  0  0  0  0  0  0
    6.7850    0.0567   22.8071 H   0  0  0  0  0  0  0  0  0  0  0  0
    5.9534   -1.4495   22.3209 H   0  0  0  0  0  0  0  0  0  0  0  0
    7.3490   -0.7087   20.9207 N   0  0  0  0  0  0  0  0  0  0  0  0
    8.2677   -1.0905   20.7679 H   0  0  0  0  0  0  0  0  0  0  0  0
    6.6823   -0.0287   19.9075 C   0  0  0  0  0  0  0  0  0  0  0  0
    7.1832    0.0447   18.5726 C   0  0  0  0  0  0  0  0  0  0  0  0
    8.1343   -0.4266   18.3284 H   0  0  0  0  0  0  0  0  0  0  0  0
    6.5688    0.6726   17.5601 N   0  0  0  0  0  0  0  0  0  0  0  0
    5.4068    1.2937   17.8239 C   0  0  0  0  0  0  0  0  0  0  0  0
    4.9363    1.8082   16.9886 H   0  0  0  0  0  0  0  0  0  0  0  0
    4.8219    1.2973   19.0942 C   0  0  0  0  0  0  0  0  0  0  0  0
    3.8860    1.8269   19.2552 H   0  0  0  0  0  0  0  0  0  0  0  0
    5.4623    0.6353   20.1458 C   0  0  0  0  0  0  0  0  0  0  0  0
    5.0410    0.6354   21.1502 H   0  0  0  0  0  0  0  0  0  0  0  0
  1  2  1  0
  2  3  1  0
  3  4  2  0
  4  5  1  0
  4  6  1  0
  6  7  1  0
  6  8  2  0
  8  9  1  0
  8 10  1  0
 10 11  1  0
 10 12  2  0
 12 13  1  0
 13 14  1  0
 14 15  1  0
 14 16  1  0
 14 17  1  0
 17 18  1  0
 17 19  1  0
 19 20  2  0
 20 21  1  0
 20 22  1  0
 22 23  2  0
 23 24  1  0
 23 25  1  0
 25 26  1  0
 25 27  2  0
 27 28  1  0
 12  3  1  0
 27 19  1  0
M  END
>  <cnnaffinity>  (1) 
-4.81645

>  <filename>  (1) 
Oc1cc(Cl)ccc1OCNc1cccnc1

$$$$
