
     RDKit          3D

 34 36  0  0  0  0  0  0  0  0999 V2000
    9.6416   -0.3599   24.2761 H   0  0  0  0  0  0  0  0  0  0  0  0
   10.4474    0.1047   24.0061 O   0  0  0  0  0  0  0  0  0  0  0  0
   10.2100    1.4471   23.9725 C   0  0  0  0  0  0  0  0  0  0  0  0
   11.3223    2.2756   23.8143 C   0  0  0  0  0  0  0  0  0  0  0  0
   12.2974    1.8091   23.7411 H   0  0  0  0  0  0  0  0  0  0  0  0
   11.1614    3.6620   23.7387 C   0  0  0  0  0  0  0  0  0  0  0  0
   12.5707    4.6627   23.5425 Cl  0  0  0  0  0  0  0  0  0  0  0  0
    9.8958    4.2474   23.8188 C   0  0  0  0  0  0  0  0  0  0  0  0
    9.7899    5.3289   23.7518 H   0  0  0  0  0  0  0  0  0  0  0  0
    8.7805    3.4117   23.9701 C   0  0  0  0  0  0  0  0  0  0  0  0
    7.7776    3.8185   24.0192 H   0  0  0  0  0  0  0  0  0  0  0  0
    8.9196    2.0250   24.0446 C   0  0  0  0  0  0  0  0  0  0  0  0
    7.7702    1.2432   24.1740 O   0  0  0  0  0  0  0  0  0  0  0  0
    7.5307    0.3430   23.1968 C   0  0  0  0  0  0  0  0  0  0  0  0
    8.0179    0.3166   21.9492 C   0  0  0  0  0  0  0  0  0  0  0  0
    8.6814    1.0730   21.5844 H   0  0  0  0  0  0  0  0  0  0  0  0
    7.5106   -0.6649   20.9726 C   0  0  2  0  0  0  0  0  0  0  0  0
    8.3677   -1.1177   20.4506 H   0  0  0  0  0  0  0  0  0  0  0  0
    6.6581   -0.0118   19.8767 C   0  0  0  0  0  0  0  0  0  0  0  0
    7.1608    0.0346   18.5723 C   0  0  0  0  0  0  0  0  0  0  0  0
    8.1090   -0.4495   18.3341 H   0  0  0  0  0  0  0  0  0  0  0  0
    6.5637    0.6592   17.5505 N   0  0  0  0  0  0  0  0  0  0  0  0
    5.4083    1.2852   17.8152 C   0  0  0  0  0  0  0  0  0  0  0  0
    4.9397    1.8098   16.9843 H   0  0  0  0  0  0  0  0  0  0  0  0
    4.8107    1.2884   19.0799 C   0  0  0  0  0  0  0  0  0  0  0  0
    3.8824    1.8234   19.2275 H   0  0  0  0  0  0  0  0  0  0  0  0
    5.4410    0.6267   20.1350 C   0  0  0  0  0  0  0  0  0  0  0  0
    5.0071    0.6254   21.1368 H   0  0  0  0  0  0  0  0  0  0  0  0
    6.8087   -1.7585   21.6431 N   0  0  0  0  0  0  0  0  0  0  0  0
    6.3684   -2.4738   21.0963 H   0  0  0  0  0  0  0  0  0  0  0  0
    6.4415   -1.7869   22.9363 C   0  0  0  0  0  0  0  0  0  0  0  0
    5.7199   -3.0904   23.6515 S   0  0  0  0  0  0  0  0  0  0  0  0
    6.7025   -0.6495   23.6382 N   0  0  0  0  0  0  0  0  0  0  0  0
    6.2929   -0.6037   24.5543 H   0  0  0  0  0  0  0  0  0  0  0  0
  1  2  1  0
  2  3  1  0
  3  4  2  0
  4  5  1  0
  4  6  1  0
  6  7  1  0
  6  8  2  0
  8  9  1  0
  8 10  1  0
 10 11  1  0
 10 12  2  0
 12 13  1  0
 13 14  1  0
 14 15  2  0
 15 16  1  0
 15 17  1  0
 17 18  1  6
 17 19  1  0
 19 20  2  0
 20 21  1  0
 20 22  1  0
 22 23  2  0
 23 24  1  0
 23 25  1  0
 25 26  1  0
 25 27  2  0
 27 28  1  0
 17 29  1  0
 29 30  1  0
 29 31  1  0
 31 32  2  0
 31 33  1  0
 33 34  1  0
 12  3  1  0
 33 14  1  0
 27 19  1  0
M  END
>  <cnnaffinity>  (1) 
-5.21118

>  <filename>  (1) 
Oc1cc(Cl)ccc1OC1=C[C@H](c2cccnc2)NC(=S)N1

$$$$
