
     RDKit          3D

 46 49  0  0  0  0  0  0  0  0999 V2000
   12.3152   -0.0768   22.3227 O   0  0  0  0  0  0  0  0  0  0  0  0
   12.4184    1.2527   22.4174 C   0  0  0  0  0  0  0  0  0  0  0  0
   13.6291    1.8806   22.7307 C   0  0  0  0  0  0  0  0  0  0  0  0
   14.7014    1.1020   23.0087 F   0  0  0  0  0  0  0  0  0  0  0  0
   13.7294    3.2603   22.7059 C   0  0  0  0  0  0  0  0  0  0  0  0
   12.6636    4.0377   22.4614 N   0  0  0  0  0  0  0  0  0  0  0  0
   11.4837    3.4480   22.2661 C   0  0  0  0  0  0  0  0  0  0  0  0
   11.2918    2.0622   22.2413 C   0  0  0  0  0  0  0  0  0  0  0  0
    9.9602    1.4690   22.1666 C   0  0  0  0  0  0  0  0  0  0  0  0
    9.5705    0.5211   21.3385 N   0  0  0  0  0  0  0  0  0  0  0  0
    8.2732    0.3216   21.6832 C   0  0  0  0  0  0  0  0  0  0  0  0
    7.3813   -0.6651   20.9805 C   0  0  0  0  0  0  0  0  0  0  0  0
    6.6097   -0.0322   19.8369 C   0  0  0  0  0  0  0  0  0  0  0  0
    5.4031    0.6329   20.0852 C   0  0  0  0  0  0  0  0  0  0  0  0
    4.7854    1.3138   19.0363 C   0  0  0  0  0  0  0  0  0  0  0  0
    5.3949    1.3094   17.7790 C   0  0  0  0  0  0  0  0  0  0  0  0
    6.5422    0.6638   17.5149 N   0  0  0  0  0  0  0  0  0  0  0  0
    7.1233    0.0154   18.5308 C   0  0  0  0  0  0  0  0  0  0  0  0
    8.0606   -0.4945   18.2993 H   0  0  0  0  0  0  0  0  0  0  0  0
    4.9419    1.8441   16.9464 H   0  0  0  0  0  0  0  0  0  0  0  0
    3.8618    1.8602   19.1870 H   0  0  0  0  0  0  0  0  0  0  0  0
    4.9701    0.6305   21.0881 H   0  0  0  0  0  0  0  0  0  0  0  0
    6.6824   -1.0849   21.7108 H   0  0  0  0  0  0  0  0  0  0  0  0
    8.0047   -1.4878   20.6199 H   0  0  0  0  0  0  0  0  0  0  0  0
    7.8400    1.0845   22.6686 N   0  0  0  0  0  0  0  0  0  0  0  0
    8.9342    1.8256   22.9809 N   0  0  0  0  0  0  0  0  0  0  0  0
    8.9068    2.7927   24.0759 C   0  0  0  0  0  0  0  0  0  0  0  0
    8.5343    2.1158   25.4076 C   0  0  0  0  0  0  0  0  0  0  0  0
    8.4848    3.1504   26.5387 C   0  0  0  0  0  0  0  0  0  0  0  0
    7.5892    4.3419   26.2228 C   0  0  0  0  0  0  0  0  0  0  0  0
    6.2772    3.9403   26.2123 F   0  0  0  0  0  0  0  0  0  0  0  0
    7.6993    5.2697   27.2264 F   0  0  0  0  0  0  0  0  0  0  0  0
    7.9338    4.9966   24.8859 C   0  0  0  0  0  0  0  0  0  0  0  0
    7.9801    3.9748   23.7386 C   0  0  0  0  0  0  0  0  0  0  0  0
    8.3359    4.4663   22.8243 H   0  0  0  0  0  0  0  0  0  0  0  0
    6.9772    3.5819   23.5258 H   0  0  0  0  0  0  0  0  0  0  0  0
    8.9167    5.4740   25.0082 H   0  0  0  0  0  0  0  0  0  0  0  0
    7.2100    5.7906   24.6762 H   0  0  0  0  0  0  0  0  0  0  0  0
    8.1821    2.6942   27.4867 H   0  0  0  0  0  0  0  0  0  0  0  0
    9.4818    3.5766   26.6682 H   0  0  0  0  0  0  0  0  0  0  0  0
    7.5735    1.5974   25.2946 H   0  0  0  0  0  0  0  0  0  0  0  0
    9.2968    1.3625   25.6348 H   0  0  0  0  0  0  0  0  0  0  0  0
    9.9244    3.1758   24.2030 H   0  0  0  0  0  0  0  0  0  0  0  0
   10.6406    4.1290   22.1652 H   0  0  0  0  0  0  0  0  0  0  0  0
   14.6775    3.7606   22.8855 H   0  0  0  0  0  0  0  0  0  0  0  0
   13.2184   -0.4223   22.3478 H   0  0  0  0  0  0  0  0  0  0  0  0
  1  2  1  0
  2  3  2  0
  3  4  1  0
  3  5  1  0
  5  6  2  0
  6  7  1  0
  7  8  2  0
  8  9  1  0
  9 10  2  0
 10 11  1  0
 11 12  1  0
 12 13  1  0
 13 14  2  0
 14 15  1  0
 15 16  2  0
 16 17  1  0
 17 18  2  0
 18 19  1  0
 16 20  1  0
 15 21  1  0
 14 22  1  0
 12 23  1  0
 12 24  1  0
 11 25  2  0
 25 26  1  0
 26 27  1  0
 27 28  1  0
 28 29  1  0
 29 30  1  0
 30 31  1  0
 30 32  1  0
 30 33  1  0
 33 34  1  0
 34 35  1  0
 34 36  1  0
 33 37  1  0
 33 38  1  0
 29 39  1  0
 29 40  1  0
 28 41  1  0
 28 42  1  0
 27 43  1  0
  7 44  1  0
  5 45  1  0
  1 46  1  0
  8  2  1  0
 26  9  1  0
 34 27  1  0
 18 13  1  0
M  END
>  <cnnaffinity>  (1) 
-6.24924

>  <filename>  (1) 
Oc1c(F)cncc1-c1nc(Cc2cccnc2)nn1C1CCC(F)(F)CC1

$$$$
