
     RDKit          3D

 35 37  0  0  0  0  0  0  0  0999 V2000
    5.4505   -2.0320   20.5388 H   0  0  0  0  0  0  0  0  0  0  0  0
    5.5605   -2.9962   20.4636 O   0  0  0  0  0  0  0  0  0  0  0  0
    5.8091   -3.4652   21.7159 C   0  0  0  0  0  0  0  0  0  0  0  0
    5.5965   -4.8365   21.9109 C   0  0  0  0  0  0  0  0  0  0  0  0
    5.3021   -5.4366   21.0602 H   0  0  0  0  0  0  0  0  0  0  0  0
    5.7077   -5.3841   23.1855 C   0  0  0  0  0  0  0  0  0  0  0  0
    5.2965   -7.0514   23.4495 Cl  0  0  0  0  0  0  0  0  0  0  0  0
    6.0868   -4.6043   24.2746 C   0  0  0  0  0  0  0  0  0  0  0  0
    6.1389   -5.0672   25.2530 H   0  0  0  0  0  0  0  0  0  0  0  0
    6.3244   -3.2438   24.0741 C   0  0  0  0  0  0  0  0  0  0  0  0
    6.5488   -2.5906   24.9114 H   0  0  0  0  0  0  0  0  0  0  0  0
    6.2016   -2.6547   22.8130 C   0  0  0  0  0  0  0  0  0  0  0  0
    6.2671   -1.2764   22.7388 O   0  0  0  0  0  0  0  0  0  0  0  0
    7.4240   -0.5994   22.2821 C   0  0  0  0  0  0  0  0  0  0  0  0
    7.5772   -0.7416   20.8469 N   0  0  0  0  0  0  0  0  0  0  0  0
    8.3543   -1.2952   20.5129 H   0  0  0  0  0  0  0  0  0  0  0  0
    6.8094   -0.0899   19.8636 C   0  0  0  0  0  0  0  0  0  0  0  0
    7.2338    0.0005   18.5063 C   0  0  0  0  0  0  0  0  0  0  0  0
    8.1581   -0.4875   18.2027 H   0  0  0  0  0  0  0  0  0  0  0  0
    6.5834    0.6626   17.5365 N   0  0  0  0  0  0  0  0  0  0  0  0
    5.4349    1.2754   17.8717 C   0  0  0  0  0  0  0  0  0  0  0  0
    4.9328    1.8291   17.0798 H   0  0  0  0  0  0  0  0  0  0  0  0
    4.8925    1.2148   19.1617 C   0  0  0  0  0  0  0  0  0  0  0  0
    3.9574    1.7247   19.3621 H   0  0  0  0  0  0  0  0  0  0  0  0
    5.5763    0.5088   20.1672 C   0  0  0  0  0  0  0  0  0  0  0  0
    5.1663    0.3993   21.1755 H   0  0  0  0  0  0  0  0  0  0  0  0
    7.3047    0.8423   22.8183 C   0  0  0  0  0  0  0  0  0  0  0  0
    6.3895    0.9592   23.4036 H   0  0  0  0  0  0  0  0  0  0  0  0
    7.3609    1.6104   22.0450 H   0  0  0  0  0  0  0  0  0  0  0  0
    8.5781    0.6510   23.6832 C   0  0  0  0  0  0  0  0  0  0  0  0
    9.3971    1.3402   23.4493 H   0  0  0  0  0  0  0  0  0  0  0  0
    8.3835    0.6817   24.7636 H   0  0  0  0  0  0  0  0  0  0  0  0
    8.7221   -0.7925   23.1132 C   0  0  0  0  0  0  0  0  0  0  0  0
    8.6016   -1.5445   23.8907 H   0  0  0  0  0  0  0  0  0  0  0  0
    9.6246   -0.9938   22.5262 H   0  0  0  0  0  0  0  0  0  0  0  0
  1  2  1  0
  2  3  1  0
  3  4  2  0
  4  5  1  0
  4  6  1  0
  6  7  1  0
  6  8  2  0
  8  9  1  0
  8 10  1  0
 10 11  1  0
 10 12  2  0
 12 13  1  0
 13 14  1  0
 14 15  1  0
 15 16  1  0
 15 17  1  0
 17 18  2  0
 18 19  1  0
 18 20  1  0
 20 21  2  0
 21 22  1  0
 21 23  1  0
 23 24  1  0
 23 25  2  0
 25 26  1  0
 14 27  1  0
 27 28  1  0
 27 29  1  0
 27 30  1  0
 30 31  1  0
 30 32  1  0
 30 33  1  0
 33 34  1  0
 33 35  1  0
 12  3  1  0
 33 14  1  0
 25 17  1  0
M  END
>  <cnnaffinity>  (1) 
-5.43179

>  <filename>  (1) 
Oc1cc(Cl)ccc1OC1(Nc2cccnc2)CCC1

$$$$
