
     RDKit          3D

 37 39  0  0  0  0  0  0  0  0999 V2000
    9.6423   -8.3612   26.1302 O   0  0  0  0  0  0  0  0  0  0  0  0
    9.3464   -7.0630   26.0232 C   0  0  0  0  0  0  0  0  0  0  0  0
   10.3769   -6.1411   25.9624 C   0  0  0  0  0  0  0  0  0  0  0  0
   10.0591   -4.8262   25.7022 C   0  0  0  0  0  0  0  0  0  0  0  0
    8.6981   -4.4859   25.5516 C   0  0  0  0  0  0  0  0  0  0  0  0
    8.2666   -3.1709   25.0780 C   0  0  0  0  0  0  0  0  0  0  0  0
    7.1929   -2.4905   25.6732 C   0  0  0  0  0  0  0  0  0  0  0  0
    6.7619   -1.2740   25.1409 C   0  0  0  0  0  0  0  0  0  0  0  0
    7.3605   -0.7673   23.9783 C   0  0  0  0  0  0  0  0  0  0  0  0
    8.4046   -1.4790   23.3705 C   0  0  0  0  0  0  0  0  0  0  0  0
    9.0888   -1.0436   22.2135 N   0  0  0  0  0  0  0  0  0  0  0  0
    8.6229   -0.2403   21.2155 C   0  0  0  0  0  0  0  0  0  0  0  0
    9.6128    0.9425   20.6398 S   0  0  0  0  0  0  0  0  0  0  0  0
    7.3824   -0.5487   20.7824 N   0  0  0  0  0  0  0  0  0  0  0  0
    6.6737    0.0798   19.7168 C   0  0  0  0  0  0  0  0  0  0  0  0
    5.4439    0.6859   19.9834 C   0  0  0  0  0  0  0  0  0  0  0  0
    4.7747    1.3376   18.9405 C   0  0  0  0  0  0  0  0  0  0  0  0
    5.3553    1.3391   17.6686 C   0  0  0  0  0  0  0  0  0  0  0  0
    6.5261    0.7409   17.3916 N   0  0  0  0  0  0  0  0  0  0  0  0
    7.1693    0.1332   18.3940 C   0  0  0  0  0  0  0  0  0  0  0  0
    8.1198   -0.3439   18.1612 H   0  0  0  0  0  0  0  0  0  0  0  0
    4.8651    1.8276   16.8312 H   0  0  0  0  0  0  0  0  0  0  0  0
    3.8328    1.8538   19.1028 H   0  0  0  0  0  0  0  0  0  0  0  0
    5.0518    0.6682   21.0008 H   0  0  0  0  0  0  0  0  0  0  0  0
    6.9208   -1.2459   21.3494 H   0  0  0  0  0  0  0  0  0  0  0  0
   10.0535   -0.7879   22.3635 H   0  0  0  0  0  0  0  0  0  0  0  0
    8.8801   -2.6484   23.9405 C   0  0  0  0  0  0  0  0  0  0  0  0
    9.7124   -3.1647   23.4696 H   0  0  0  0  0  0  0  0  0  0  0  0
    7.0385    0.1738   23.5484 H   0  0  0  0  0  0  0  0  0  0  0  0
    5.9531   -0.7334   25.6196 H   0  0  0  0  0  0  0  0  0  0  0  0
    6.7316   -2.9201   26.5573 H   0  0  0  0  0  0  0  0  0  0  0  0
    7.7505   -5.4952   25.7207 C   0  0  0  0  0  0  0  0  0  0  0  0
    8.0588   -6.7756   25.9296 N   0  0  0  0  0  0  0  0  0  0  0  0
    6.6944   -5.2497   25.6098 H   0  0  0  0  0  0  0  0  0  0  0  0
   10.8224   -4.0568   25.6045 H   0  0  0  0  0  0  0  0  0  0  0  0
   11.3382   -6.5880   26.0698 H   0  0  0  0  0  0  0  0  0  0  0  0
    8.7526   -8.7129   25.9516 H   0  0  0  0  0  0  0  0  0  0  0  0
  1  2  1  0
  2  3  2  0
  3  4  1  0
  4  5  2  0
  5  6  1  0
  6  7  2  0
  7  8  1  0
  8  9  2  0
  9 10  1  0
 10 11  1  0
 11 12  1  0
 12 13  2  0
 12 14  1  0
 14 15  1  0
 15 16  2  0
 16 17  1  0
 17 18  2  0
 18 19  1  0
 19 20  2  0
 20 21  1  0
 18 22  1  0
 17 23  1  0
 16 24  1  0
 14 25  1  0
 11 26  1  0
 10 27  2  0
 27 28  1  0
  9 29  1  0
  8 30  1  0
  7 31  1  0
  5 32  1  0
 32 33  2  0
 32 34  1  0
  4 35  1  0
  3 36  1  0
  1 37  1  0
 33  2  1  0
 27  6  1  0
 20 15  1  0
M  END
>  <cnnaffinity>  (1) 
-5.3801

>  <filename>  (1) 
Oc1ccc(-c2cccc(NC(=S)Nc3cccnc3)c2)cn1

$$$$
