
     RDKit          3D

 34 36  0  0  0  0  0  0  0  0999 V2000
    5.6319    0.9241   24.4748 H   0  0  0  0  0  0  0  0  0  0  0  0
    5.1174    1.6626   24.8627 O   0  0  0  0  0  0  0  0  0  0  0  0
    5.5829    2.7800   24.2380 C   0  0  0  0  0  0  0  0  0  0  0  0
    5.1083    4.0190   24.6711 C   0  0  0  0  0  0  0  0  0  0  0  0
    4.4070    4.0564   25.4894 H   0  0  0  0  0  0  0  0  0  0  0  0
    5.5527    5.1941   24.0575 C   0  0  0  0  0  0  0  0  0  0  0  0
    4.9650    6.7249   24.6285 Cl  0  0  0  0  0  0  0  0  0  0  0  0
    6.4642    5.1541   23.0026 C   0  0  0  0  0  0  0  0  0  0  0  0
    6.7782    6.0736   22.5207 H   0  0  0  0  0  0  0  0  0  0  0  0
    6.9706    3.9157   22.5757 C   0  0  0  0  0  0  0  0  0  0  0  0
    7.6948    3.8650   21.7663 H   0  0  0  0  0  0  0  0  0  0  0  0
    6.5529    2.7581   23.2218 C   0  0  0  0  0  0  0  0  0  0  0  0
    6.9443    1.4305   22.9022 O   0  0  0  0  0  0  0  0  0  0  0  0
    8.2014    1.2851   22.3975 N   0  0  0  0  0  0  0  0  0  0  0  0
    9.3613    1.9668   22.7274 C   0  0  0  0  0  0  0  0  0  0  0  0
    9.3602    2.8096   23.4085 H   0  0  0  0  0  0  0  0  0  0  0  0
   10.3826    1.3599   22.0277 C   0  0  0  0  0  0  0  0  0  0  0  0
   11.4154    1.6860   22.0066 H   0  0  0  0  0  0  0  0  0  0  0  0
    9.8309    0.2627   21.3114 C   0  0  0  0  0  0  0  0  0  0  0  0
   10.3527   -0.4366   20.6739 H   0  0  0  0  0  0  0  0  0  0  0  0
    8.4773    0.2236   21.5692 C   0  0  0  0  0  0  0  0  0  0  0  0
    7.3528   -0.6133   21.0609 C   0  0  0  0  0  0  0  0  0  0  0  0
    6.6328   -0.7610   21.8790 H   0  0  0  0  0  0  0  0  0  0  0  0
    7.7425   -1.5926   20.7649 H   0  0  0  0  0  0  0  0  0  0  0  0
    6.6286    0.0643   19.9140 C   0  0  0  0  0  0  0  0  0  0  0  0
    7.0869   -0.0002   18.5885 C   0  0  0  0  0  0  0  0  0  0  0  0
    7.9890   -0.5624   18.3437 H   0  0  0  0  0  0  0  0  0  0  0  0
    6.4768    0.5999   17.5577 N   0  0  0  0  0  0  0  0  0  0  0  0
    5.3539    1.2868   17.8197 C   0  0  0  0  0  0  0  0  0  0  0  0
    4.8757    1.7726   16.9693 H   0  0  0  0  0  0  0  0  0  0  0  0
    4.8020    1.4001   19.0983 C   0  0  0  0  0  0  0  0  0  0  0  0
    3.8619    1.9215   19.2370 H   0  0  0  0  0  0  0  0  0  0  0  0
    5.4874    0.8288   20.1748 C   0  0  0  0  0  0  0  0  0  0  0  0
    5.1870    0.9747   21.2151 H   0  0  0  0  0  0  0  0  0  0  0  0
  1  2  1  0
  2  3  1  0
  3  4  2  0
  4  5  1  0
  4  6  1  0
  6  7  1  0
  6  8  2  0
  8  9  1  0
  8 10  1  0
 10 11  1  0
 10 12  2  0
 12 13  1  0
 13 14  1  0
 14 15  1  0
 15 16  1  0
 15 17  2  0
 17 18  1  0
 17 19  1  0
 19 20  1  0
 19 21  2  0
 21 22  1  0
 22 23  1  0
 22 24  1  0
 22 25  1  0
 25 26  2  0
 26 27  1  0
 26 28  1  0
 28 29  2  0
 29 30  1  0
 29 31  1  0
 31 32  1  0
 31 33  2  0
 33 34  1  0
 12  3  1  0
 21 14  1  0
 33 25  1  0
M  END
>  <cnnaffinity>  (1) 
-5.09527

>  <filename>  (1) 
Oc1cc(Cl)ccc1On1cccc1Cc1cccnc1

$$$$
