
     RDKit          3D

 42 45  0  0  0  0  0  0  0  0999 V2000
    6.0764   -4.8104   28.7935 O   0  0  0  0  0  0  0  0  0  0  0  0
    6.7339   -4.1406   27.8136 C   0  0  0  0  0  0  0  0  0  0  0  0
    8.1308   -4.2935   27.6028 C   0  0  0  0  0  0  0  0  0  0  0  0
    8.7649   -3.5528   26.6258 C   0  0  0  0  0  0  0  0  0  0  0  0
    8.0444   -2.6254   25.8122 C   0  0  0  0  0  0  0  0  0  0  0  0
    8.7283   -1.9078   24.8681 N   0  0  0  0  0  0  0  0  0  0  0  0
    8.0363   -1.0800   24.1021 C   0  0  0  0  0  0  0  0  0  0  0  0
    8.7109   -0.3649   23.1384 N   0  0  0  0  0  0  0  0  0  0  0  0
   10.1528   -0.1618   23.2206 C   0  0  0  0  0  0  0  0  0  0  0  0
   10.4382    0.9898   22.2387 C   0  0  0  0  0  0  0  0  0  0  0  0
    9.2660    0.9778   21.2471 C   0  0  0  0  0  0  0  0  0  0  0  0
    8.0928    0.2773   21.9705 C   0  0  0  0  0  0  0  0  0  0  0  0
    7.3689   -0.7186   21.0239 C   0  0  0  0  0  0  0  0  0  0  0  0
    6.6389   -0.0267   19.8881 C   0  0  0  0  0  0  0  0  0  0  0  0
    5.4308    0.6442   20.1281 C   0  0  0  0  0  0  0  0  0  0  0  0
    4.7934    1.3150   19.0816 C   0  0  0  0  0  0  0  0  0  0  0  0
    5.3896    1.3059   17.8163 C   0  0  0  0  0  0  0  0  0  0  0  0
    6.5492    0.6856   17.5596 N   0  0  0  0  0  0  0  0  0  0  0  0
    7.1524    0.0520   18.5766 C   0  0  0  0  0  0  0  0  0  0  0  0
    8.1054   -0.4188   18.3306 H   0  0  0  0  0  0  0  0  0  0  0  0
    4.9203    1.8144   16.9739 H   0  0  0  0  0  0  0  0  0  0  0  0
    3.8654    1.8528   19.2319 H   0  0  0  0  0  0  0  0  0  0  0  0
    5.0094    0.6435   21.1363 H   0  0  0  0  0  0  0  0  0  0  0  0
    6.6672   -1.3157   21.6150 H   0  0  0  0  0  0  0  0  0  0  0  0
    8.1224   -1.4207   20.6451 H   0  0  0  0  0  0  0  0  0  0  0  0
    7.3631    1.0355   22.3054 H   0  0  0  0  0  0  0  0  0  0  0  0
    8.9813    1.9831   20.9181 H   0  0  0  0  0  0  0  0  0  0  0  0
    9.5229    0.4208   20.3347 H   0  0  0  0  0  0  0  0  0  0  0  0
   10.4803    1.9466   22.7728 H   0  0  0  0  0  0  0  0  0  0  0  0
   11.4018    0.8588   21.7344 H   0  0  0  0  0  0  0  0  0  0  0  0
   10.6849   -1.0848   22.9470 H   0  0  0  0  0  0  0  0  0  0  0  0
   10.4568    0.0818   24.2485 H   0  0  0  0  0  0  0  0  0  0  0  0
    6.6192   -0.8774   24.2636 C   0  0  0  0  0  0  0  0  0  0  0  0
    5.9376   -1.5667   25.2303 C   0  0  0  0  0  0  0  0  0  0  0  0
    6.6372   -2.4939   26.0487 C   0  0  0  0  0  0  0  0  0  0  0  0
    5.9988   -3.2565   27.0637 C   0  0  0  0  0  0  0  0  0  0  0  0
    4.9462   -3.1574   27.3074 H   0  0  0  0  0  0  0  0  0  0  0  0
    4.8708   -1.4403   25.4002 H   0  0  0  0  0  0  0  0  0  0  0  0
    6.1233   -0.1708   23.6182 H   0  0  0  0  0  0  0  0  0  0  0  0
    9.8276   -3.6369   26.4381 H   0  0  0  0  0  0  0  0  0  0  0  0
    8.6862   -4.9824   28.2369 H   0  0  0  0  0  0  0  0  0  0  0  0
    6.7097   -5.3596   29.2604 H   0  0  0  0  0  0  0  0  0  0  0  0
  1  2  1  0
  2  3  2  0
  3  4  1  0
  4  5  2  0
  5  6  1  0
  6  7  2  0
  7  8  1  0
  8  9  1  0
  9 10  1  0
 10 11  1  0
 11 12  1  0
 12 13  1  0
 13 14  1  0
 14 15  2  0
 15 16  1  0
 16 17  2  0
 17 18  1  0
 18 19  2  0
 19 20  1  0
 17 21  1  0
 16 22  1  0
 15 23  1  0
 13 24  1  0
 13 25  1  0
 12 26  1  0
 11 27  1  0
 11 28  1  0
 10 29  1  0
 10 30  1  0
  9 31  1  0
  9 32  1  0
  7 33  1  0
 33 34  2  0
 34 35  1  0
 35 36  2  0
 36 37  1  0
 34 38  1  0
 33 39  1  0
  4 40  1  0
  3 41  1  0
  1 42  1  0
 36  2  1  0
 35  5  1  0
 12  8  1  0
 19 14  1  0
M  END
>  <cnnaffinity>  (1) 
-5.4465

>  <filename>  (1) 
Oc1ccc2nc(N3CCCC3Cc3cccnc3)ccc2c1

$$$$
