
     RDKit          3D

 50 54  0  0  0  0  0  0  0  0999 V2000
    8.5614    1.4181   25.9796 O   0  0  0  0  0  0  0  0  0  0  0  0
    7.2819    1.9557   25.7042 C   0  0  0  0  0  0  0  0  0  0  0  0
    6.8592    2.8571   26.8815 C   0  0  0  0  0  0  0  0  0  0  0  0
    7.1297    4.3493   26.6214 C   0  0  0  0  0  0  0  0  0  0  0  0
    6.4366    4.8674   25.3345 C   0  0  0  0  0  0  0  0  0  0  0  0
    6.2387    3.7764   24.2537 C   0  0  0  0  0  0  0  0  0  0  0  0
    7.3568    2.7269   24.3557 C   0  0  0  0  0  0  0  0  0  0  0  0
    7.4046    1.7477   23.2264 C   0  0  0  0  0  0  0  0  0  0  0  0
    6.3616    1.0775   22.7623 N   0  0  0  0  0  0  0  0  0  0  0  0
    6.9031    0.2525   21.8295 C   0  0  0  0  0  0  0  0  0  0  0  0
    6.1153   -0.6432   20.9140 C   0  0  0  0  0  0  0  0  0  0  0  0
    5.8696   -0.0018   19.5585 C   0  0  0  0  0  0  0  0  0  0  0  0
    5.0938    1.1653   19.5026 C   0  0  0  0  0  0  0  0  0  0  0  0
    4.8994    1.7781   18.2670 C   0  0  0  0  0  0  0  0  0  0  0  0
    5.5174    1.2273   17.1442 C   0  0  0  0  0  0  0  0  0  0  0  0
    6.2795    0.1234   17.1757 N   0  0  0  0  0  0  0  0  0  0  0  0
    6.4428   -0.4680   18.3674 C   0  0  0  0  0  0  0  0  0  0  0  0
    7.0853   -1.3501   18.3950 H   0  0  0  0  0  0  0  0  0  0  0  0
    5.4143    1.7161   16.1836 H   0  0  0  0  0  0  0  0  0  0  0  0
    4.2907    2.6696   18.1545 H   0  0  0  0  0  0  0  0  0  0  0  0
    4.6739    1.5888   20.4167 H   0  0  0  0  0  0  0  0  0  0  0  0
    6.6376   -1.6016   20.8215 H   0  0  0  0  0  0  0  0  0  0  0  0
    5.1549   -0.8323   21.3889 H   0  0  0  0  0  0  0  0  0  0  0  0
    8.2076    0.3416   21.7055 N   0  0  0  0  0  0  0  0  0  0  0  0
    8.5387    1.3175   22.5964 N   0  0  0  0  0  0  0  0  0  0  0  0
    9.9149    1.6754   22.7407 C   0  0  0  0  0  0  0  0  0  0  0  0
   10.3591    3.0335   22.7870 C   0  0  0  0  0  0  0  0  0  0  0  0
   11.7106    3.3400   22.8856 C   0  0  0  0  0  0  0  0  0  0  0  0
   12.6204    2.2586   22.9110 C   0  0  0  0  0  0  0  0  0  0  0  0
   13.9759    2.2000   22.9479 N   0  0  0  0  0  0  0  0  0  0  0  0
   14.4533    0.9353   22.9572 N   0  0  0  0  0  0  0  0  0  0  0  0
   13.3960    0.1557   22.9073 C   0  0  0  0  0  0  0  0  0  0  0  0
   12.1902    0.9158   22.8713 C   0  0  0  0  0  0  0  0  0  0  0  0
   10.8126    0.6219   22.8060 C   0  0  0  0  0  0  0  0  0  0  0  0
   10.4235   -0.3907   22.7979 H   0  0  0  0  0  0  0  0  0  0  0  0
   13.4908   -0.9204   22.9098 H   0  0  0  0  0  0  0  0  0  0  0  0
   14.6289    2.9690   22.9896 H   0  0  0  0  0  0  0  0  0  0  0  0
   12.0520    4.3678   22.9554 H   0  0  0  0  0  0  0  0  0  0  0  0
    9.6398    3.8441   22.7139 H   0  0  0  0  0  0  0  0  0  0  0  0
    8.3097    3.2624   24.3671 H   0  0  0  0  0  0  0  0  0  0  0  0
    5.2669    3.2831   24.3838 H   0  0  0  0  0  0  0  0  0  0  0  0
    6.2245    4.2231   23.2524 H   0  0  0  0  0  0  0  0  0  0  0  0
    7.0511    5.6739   24.9158 H   0  0  0  0  0  0  0  0  0  0  0  0
    5.4590    5.3050   25.5740 H   0  0  0  0  0  0  0  0  0  0  0  0
    8.2174    4.4888   26.5444 H   0  0  0  0  0  0  0  0  0  0  0  0
    6.8074    4.9506   27.4764 H   0  0  0  0  0  0  0  0  0  0  0  0
    7.3845    2.5209   27.7797 H   0  0  0  0  0  0  0  0  0  0  0  0
    5.7892    2.7110   27.0821 H   0  0  0  0  0  0  0  0  0  0  0  0
    6.5297    1.1547   25.6064 H   0  0  0  0  0  0  0  0  0  0  0  0
    8.7839    0.7869   25.2820 H   0  0  0  0  0  0  0  0  0  0  0  0
  1  2  1  0
  2  3  1  0
  3  4  1  0
  4  5  1  0
  5  6  1  0
  6  7  1  0
  7  8  1  0
  8  9  2  0
  9 10  1  0
 10 11  1  0
 11 12  1  0
 12 13  2  0
 13 14  1  0
 14 15  2  0
 15 16  1  0
 16 17  2  0
 17 18  1  0
 15 19  1  0
 14 20  1  0
 13 21  1  0
 11 22  1  0
 11 23  1  0
 10 24  2  0
 24 25  1  0
 25 26  1  0
 26 27  2  0
 27 28  1  0
 28 29  2  0
 29 30  1  0
 30 31  1  0
 31 32  2  0
 32 33  1  0
 33 34  2  0
 34 35  1  0
 32 36  1  0
 30 37  1  0
 28 38  1  0
 27 39  1  0
  7 40  1  0
  6 41  1  0
  6 42  1  0
  5 43  1  0
  5 44  1  0
  4 45  1  0
  4 46  1  0
  3 47  1  0
  3 48  1  0
  2 49  1  0
  1 50  1  0
  7  2  1  0
 25  8  1  0
 34 26  1  0
 17 12  1  0
 33 29  1  0
M  END
>  <cnnaffinity>  (1) 
-6.27132

>  <filename>  (1) 
OC1CCCCC1c1nc(Cc2cccnc2)nn1-c1ccc2[nH]ncc2c1

$$$$
