
     RDKit          3D

 30 32  0  0  0  0  0  0  0  0999 V2000
    7.1154   -2.5042   26.3617 H   0  0  0  0  0  0  0  0  0  0  0  0
    6.8307   -1.8634   27.0268 O   0  0  0  0  0  0  0  0  0  0  0  0
    7.1031   -0.6181   26.5653 C   0  0  0  0  0  0  0  0  0  0  0  0
    6.7499    0.4299   27.4140 C   0  0  0  0  0  0  0  0  0  0  0  0
    6.2858    0.1924   28.3603 H   0  0  0  0  0  0  0  0  0  0  0  0
    7.0012    1.7487   27.0445 C   0  0  0  0  0  0  0  0  0  0  0  0
    6.5485    3.0351   28.1124 Cl  0  0  0  0  0  0  0  0  0  0  0  0
    7.6182    2.0523   25.8348 C   0  0  0  0  0  0  0  0  0  0  0  0
    7.8032    3.0877   25.5682 H   0  0  0  0  0  0  0  0  0  0  0  0
    7.9773    1.0069   24.9793 C   0  0  0  0  0  0  0  0  0  0  0  0
    8.4688    1.2351   24.0386 H   0  0  0  0  0  0  0  0  0  0  0  0
    7.7085   -0.3247   25.3155 C   0  0  0  0  0  0  0  0  0  0  0  0
    8.0828   -1.4047   24.5265 O   0  0  0  0  0  0  0  0  0  0  0  0
    8.0514   -1.3365   23.1488 C   0  0  0  0  0  0  0  0  0  0  0  0
    8.8330   -2.1582   22.3997 C   0  0  0  0  0  0  0  0  0  0  0  0
    9.5343   -2.8996   22.7412 H   0  0  0  0  0  0  0  0  0  0  0  0
    8.5997   -1.8976   20.7259 S   0  0  0  0  0  0  0  0  0  0  0  0
    7.3761   -0.7069   21.0041 C   0  0  0  0  0  0  0  0  0  0  0  0
    6.6689   -0.0033   19.9116 C   0  0  0  0  0  0  0  0  0  0  0  0
    7.1749    0.0575   18.5946 C   0  0  0  0  0  0  0  0  0  0  0  0
    8.1227   -0.4210   18.3584 H   0  0  0  0  0  0  0  0  0  0  0  0
    6.5652    0.6779   17.5774 N   0  0  0  0  0  0  0  0  0  0  0  0
    5.4000    1.2923   17.8401 C   0  0  0  0  0  0  0  0  0  0  0  0
    4.9174    1.7820   16.9969 H   0  0  0  0  0  0  0  0  0  0  0  0
    4.8075    1.3085   19.1070 C   0  0  0  0  0  0  0  0  0  0  0  0
    3.8757    1.8412   19.2597 H   0  0  0  0  0  0  0  0  0  0  0  0
    5.4478    0.6497   20.1582 C   0  0  0  0  0  0  0  0  0  0  0  0
    5.0069    0.6277   21.1563 H   0  0  0  0  0  0  0  0  0  0  0  0
    7.2054   -0.5122   22.3478 C   0  0  0  0  0  0  0  0  0  0  0  0
    6.5179    0.2068   22.7779 H   0  0  0  0  0  0  0  0  0  0  0  0
  1  2  1  0
  2  3  1  0
  3  4  2  0
  4  5  1  0
  4  6  1  0
  6  7  1  0
  6  8  2  0
  8  9  1  0
  8 10  1  0
 10 11  1  0
 10 12  2  0
 12 13  1  0
 13 14  1  0
 14 15  2  0
 15 16  1  0
 15 17  1  0
 17 18  1  0
 18 19  1  0
 19 20  2  0
 20 21  1  0
 20 22  1  0
 22 23  2  0
 23 24  1  0
 23 25  1  0
 25 26  1  0
 25 27  2  0
 27 28  1  0
 18 29  2  0
 29 30  1  0
 12  3  1  0
 29 14  1  0
 27 19  1  0
M  END
>  <cnnaffinity>  (1) 
-5.30919

>  <filename>  (1) 
Oc1cc(Cl)ccc1Oc1csc(-c2cccnc2)c1

$$$$
