
     RDKit          3D

 50 54  0  0  0  0  0  0  0  0999 V2000
   11.2342   -0.6011   25.2518 O   0  0  0  0  0  0  0  0  0  0  0  0
   11.0616    0.0792   24.0241 C   0  0  0  0  0  0  0  0  0  0  0  0
   11.2105   -0.8224   22.7887 C   0  0  0  0  0  0  0  0  0  0  0  0
   12.1248   -0.0790   21.8001 C   0  0  0  0  0  0  0  0  0  0  0  0
   12.2394    1.3821   22.3074 C   0  0  0  0  0  0  0  0  0  0  0  0
   11.2281    2.3601   21.6399 C   0  0  0  0  0  0  0  0  0  0  0  0
    9.8103    1.8857   21.7118 C   0  0  0  0  0  0  0  0  0  0  0  0
    9.3160    0.9987   20.8637 N   0  0  0  0  0  0  0  0  0  0  0  0
    8.2536    0.4826   21.5295 C   0  0  0  0  0  0  0  0  0  0  0  0
    7.4239   -0.6164   20.9383 C   0  0  0  0  0  0  0  0  0  0  0  0
    6.6081   -0.0729   19.7846 C   0  0  0  0  0  0  0  0  0  0  0  0
    5.4253    0.6304   20.0423 C   0  0  0  0  0  0  0  0  0  0  0  0
    4.8112    1.3171   18.9958 C   0  0  0  0  0  0  0  0  0  0  0  0
    5.4051    1.2752   17.7305 C   0  0  0  0  0  0  0  0  0  0  0  0
    6.5271    0.5923   17.4547 N   0  0  0  0  0  0  0  0  0  0  0  0
    7.1055   -0.0578   18.4709 C   0  0  0  0  0  0  0  0  0  0  0  0
    8.0465   -0.5654   18.2517 H   0  0  0  0  0  0  0  0  0  0  0  0
    4.9608    1.8131   16.8981 H   0  0  0  0  0  0  0  0  0  0  0  0
    3.9090    1.8992   19.1516 H   0  0  0  0  0  0  0  0  0  0  0  0
    5.0181    0.6590   21.0557 H   0  0  0  0  0  0  0  0  0  0  0  0
    8.0921   -1.4191   20.6078 H   0  0  0  0  0  0  0  0  0  0  0  0
    6.7894   -1.0071   21.7364 H   0  0  0  0  0  0  0  0  0  0  0  0
    8.0094    1.0257   22.7022 N   0  0  0  0  0  0  0  0  0  0  0  0
    8.9935    1.9732   22.7989 N   0  0  0  0  0  0  0  0  0  0  0  0
    9.0255    2.8759   23.8877 C   0  0  0  0  0  0  0  0  0  0  0  0
    9.3904    4.2115   23.7420 C   0  0  0  0  0  0  0  0  0  0  0  0
    9.3051    5.1028   24.8363 C   0  0  0  0  0  0  0  0  0  0  0  0
    8.9039    4.6677   26.0977 C   0  0  0  0  0  0  0  0  0  0  0  0
    8.5748    3.3100   26.2629 C   0  0  0  0  0  0  0  0  0  0  0  0
    8.6441    2.4340   25.1727 C   0  0  0  0  0  0  0  0  0  0  0  0
    8.2842    1.1968   25.6846 N   0  0  0  0  0  0  0  0  0  0  0  0
    7.9650    1.4042   27.0047 C   0  0  0  0  0  0  0  0  0  0  0  0
    8.1329    2.6334   27.3913 N   0  0  0  0  0  0  0  0  0  0  0  0
    7.6158    0.6051   27.6505 H   0  0  0  0  0  0  0  0  0  0  0  0
    7.9474    0.4503   25.0920 H   0  0  0  0  0  0  0  0  0  0  0  0
    8.8177    5.3297   26.9504 H   0  0  0  0  0  0  0  0  0  0  0  0
    9.5451    6.1483   24.6704 H   0  0  0  0  0  0  0  0  0  0  0  0
    9.7185    4.5784   22.7734 H   0  0  0  0  0  0  0  0  0  0  0  0
   11.4692    2.4413   20.5745 H   0  0  0  0  0  0  0  0  0  0  0  0
   11.3436    3.3616   22.0610 H   0  0  0  0  0  0  0  0  0  0  0  0
   12.0893    1.1999   23.8285 C   0  0  0  0  0  0  0  0  0  0  0  0
   11.8233    2.1019   24.3920 H   0  0  0  0  0  0  0  0  0  0  0  0
   13.0438    0.8332   24.2266 H   0  0  0  0  0  0  0  0  0  0  0  0
   13.2252    1.7985   22.0823 H   0  0  0  0  0  0  0  0  0  0  0  0
   11.7286   -0.1392   20.7835 H   0  0  0  0  0  0  0  0  0  0  0  0
   13.1179   -0.5461   21.7969 H   0  0  0  0  0  0  0  0  0  0  0  0
   11.6015   -1.8126   23.0050 H   0  0  0  0  0  0  0  0  0  0  0  0
   10.2236   -1.0054   22.3581 H   0  0  0  0  0  0  0  0  0  0  0  0
   10.0542    0.4905   23.9964 H   0  0  0  0  0  0  0  0  0  0  0  0
   10.5437   -0.2812   25.8457 H   0  0  0  0  0  0  0  0  0  0  0  0
  1  2  1  0
  2  3  1  0
  3  4  1  0
  4  5  1  0
  5  6  1  0
  6  7  1  0
  7  8  2  0
  8  9  1  0
  9 10  1  0
 10 11  1  0
 11 12  2  0
 12 13  1  0
 13 14  2  0
 14 15  1  0
 15 16  2  0
 16 17  1  0
 14 18  1  0
 13 19  1  0
 12 20  1  0
 10 21  1  0
 10 22  1  0
  9 23  2  0
 23 24  1  0
 24 25  1  0
 25 26  2  0
 26 27  1  0
 27 28  2  0
 28 29  1  0
 29 30  2  0
 30 31  1  0
 31 32  1  0
 32 33  2  0
 32 34  1  0
 31 35  1  0
 28 36  1  0
 27 37  1  0
 26 38  1  0
  6 39  1  0
  6 40  1  0
  5 41  1  0
 41 42  1  0
 41 43  1  0
  5 44  1  0
  4 45  1  0
  4 46  1  0
  3 47  1  0
  3 48  1  0
  2 49  1  0
  1 50  1  0
 41  2  1  0
 24  7  1  0
 30 25  1  0
 16 11  1  0
 33 29  1  0
M  END
>  <cnnaffinity>  (1) 
-5.74276

>  <filename>  (1) 
OC1CCC(Cc2nc(Cc3cccnc3)nn2-c2cccc3nc[nH]c23)C1

$$$$
