
     RDKit          3D

 35 37  0  0  0  0  0  0  0  0999 V2000
    8.3907    2.8120   22.2257 H   0  0  0  0  0  0  0  0  0  0  0  0
    9.1011    3.4378   22.4379 O   0  0  0  0  0  0  0  0  0  0  0  0
   10.2607    2.7559   22.2564 C   0  0  0  0  0  0  0  0  0  0  0  0
   11.4655    3.4044   22.4875 C   0  0  0  0  0  0  0  0  0  0  0  0
   11.4414    4.4651   22.6924 H   0  0  0  0  0  0  0  0  0  0  0  0
   12.6666    2.6938   22.4099 C   0  0  0  0  0  0  0  0  0  0  0  0
   14.1449    3.5341   22.7354 Cl  0  0  0  0  0  0  0  0  0  0  0  0
   12.6782    1.3504   22.0510 C   0  0  0  0  0  0  0  0  0  0  0  0
   13.6061    0.7900   22.0339 H   0  0  0  0  0  0  0  0  0  0  0  0
   11.4756    0.7241   21.7001 C   0  0  0  0  0  0  0  0  0  0  0  0
   11.4986   -0.2888   21.3198 H   0  0  0  0  0  0  0  0  0  0  0  0
   10.2662    1.4036   21.8303 C   0  0  0  0  0  0  0  0  0  0  0  0
    9.0087    0.8851   21.6187 O   0  0  0  0  0  0  0  0  0  0  0  0
    8.8211   -0.4535   21.1765 C   0  0  2  0  0  0  0  0  0  0  0  0
    9.4218   -0.5823   20.2669 H   0  0  0  0  0  0  0  0  0  0  0  0
    7.4225   -0.6498   20.9226 N   0  0  0  0  0  0  0  0  0  0  0  0
    6.7302   -0.0025   19.8898 C   0  0  0  0  0  0  0  0  0  0  0  0
    7.2266    0.0766   18.5622 C   0  0  0  0  0  0  0  0  0  0  0  0
    8.1832   -0.3957   18.3294 H   0  0  0  0  0  0  0  0  0  0  0  0
    6.5935    0.6871   17.5511 N   0  0  0  0  0  0  0  0  0  0  0  0
    5.4243    1.2924   17.8234 C   0  0  0  0  0  0  0  0  0  0  0  0
    4.9389    1.8009   16.9925 H   0  0  0  0  0  0  0  0  0  0  0  0
    4.8395    1.2719   19.0944 C   0  0  0  0  0  0  0  0  0  0  0  0
    3.8980    1.7801   19.2589 H   0  0  0  0  0  0  0  0  0  0  0  0
    5.4835    0.6044   20.1379 C   0  0  0  0  0  0  0  0  0  0  0  0
    5.0808    0.5929   21.1494 H   0  0  0  0  0  0  0  0  0  0  0  0
    6.7592   -1.5620   21.8350 C   0  0  0  0  0  0  0  0  0  0  0  0
    6.3728   -2.4516   21.3143 H   0  0  0  0  0  0  0  0  0  0  0  0
    5.9070   -1.0724   22.2977 H   0  0  0  0  0  0  0  0  0  0  0  0
    7.8209   -1.8915   22.8915 C   0  0  0  0  0  0  0  0  0  0  0  0
    7.7908   -2.9450   23.1806 H   0  0  0  0  0  0  0  0  0  0  0  0
    7.6445   -1.2914   23.7905 H   0  0  0  0  0  0  0  0  0  0  0  0
    9.1567   -1.5079   22.2384 C   0  0  0  0  0  0  0  0  0  0  0  0
    9.8721   -1.1293   22.9723 H   0  0  0  0  0  0  0  0  0  0  0  0
    9.6098   -2.3545   21.7174 H   0  0  0  0  0  0  0  0  0  0  0  0
  1  2  1  0
  2  3  1  0
  3  4  2  0
  4  5  1  0
  4  6  1  0
  6  7  1  0
  6  8  2  0
  8  9  1  0
  8 10  1  0
 10 11  1  0
 10 12  2  0
 12 13  1  0
 13 14  1  0
 14 15  1  6
 14 16  1  0
 16 17  1  0
 17 18  2  0
 18 19  1  0
 18 20  1  0
 20 21  2  0
 21 22  1  0
 21 23  1  0
 23 24  1  0
 23 25  2  0
 25 26  1  0
 16 27  1  0
 27 28  1  0
 27 29  1  0
 27 30  1  0
 30 31  1  0
 30 32  1  0
 30 33  1  0
 33 34  1  0
 33 35  1  0
 12  3  1  0
 33 14  1  0
 25 17  1  0
M  END
>  <cnnaffinity>  (1) 
-5.04963

>  <filename>  (1) 
Oc1cc(Cl)ccc1O[C@H]1CCCN1c1cccnc1

$$$$
