
     RDKit          3D

 47 51  0  0  0  0  0  0  0  0999 V2000
   12.3275    0.0418   22.5854 O   0  0  0  0  0  0  0  0  0  0  0  0
   12.3372    1.3631   22.5434 C   0  0  0  0  0  0  0  0  0  0  0  0
   13.5610    1.8543   22.7157 N   0  0  0  0  0  0  0  0  0  0  0  0
   13.7284    3.1851   22.6386 C   0  0  0  0  0  0  0  0  0  0  0  0
   12.6634    4.0553   22.4171 C   0  0  0  0  0  0  0  0  0  0  0  0
   12.8864    5.3790   22.3149 F   0  0  0  0  0  0  0  0  0  0  0  0
   11.3770    3.5418   22.3191 C   0  0  0  0  0  0  0  0  0  0  0  0
   11.1898    2.1486   22.3920 C   0  0  0  0  0  0  0  0  0  0  0  0
    9.9004    1.4521   22.3221 C   0  0  0  0  0  0  0  0  0  0  0  0
    9.5999    0.4132   21.5657 N   0  0  0  0  0  0  0  0  0  0  0  0
    8.2556    0.2781   21.7351 C   0  0  0  0  0  0  0  0  0  0  0  0
    7.4120   -0.6965   20.9454 C   0  0  0  0  0  0  0  0  0  0  0  0
    6.6420   -0.0428   19.7983 C   0  0  0  0  0  0  0  0  0  0  0  0
    5.4379    0.6258   20.0572 C   0  0  0  0  0  0  0  0  0  0  0  0
    4.8035    1.3110   19.0182 C   0  0  0  0  0  0  0  0  0  0  0  0
    5.4008    1.3015   17.7552 C   0  0  0  0  0  0  0  0  0  0  0  0
    6.5388    0.6467   17.4753 N   0  0  0  0  0  0  0  0  0  0  0  0
    7.1327   -0.0083   18.4812 C   0  0  0  0  0  0  0  0  0  0  0  0
    8.0588   -0.5330   18.2345 H   0  0  0  0  0  0  0  0  0  0  0  0
    4.9505    1.8438   16.9265 H   0  0  0  0  0  0  0  0  0  0  0  0
    3.8799    1.8582   19.1772 H   0  0  0  0  0  0  0  0  0  0  0  0
    5.0279    0.6140   21.0688 H   0  0  0  0  0  0  0  0  0  0  0  0
    6.6981   -1.1661   21.6357 H   0  0  0  0  0  0  0  0  0  0  0  0
    8.0877   -1.4747   20.5756 H   0  0  0  0  0  0  0  0  0  0  0  0
    7.7212    1.1292   22.5907 N   0  0  0  0  0  0  0  0  0  0  0  0
    8.7851    1.8786   22.9832 N   0  0  0  0  0  0  0  0  0  0  0  0
    8.6452    2.8719   24.0464 C   0  0  0  0  0  0  0  0  0  0  0  0
    8.0414    4.2047   23.6479 C   0  0  0  0  0  0  0  0  0  0  0  0
    6.7024    4.2923   23.2405 C   0  0  0  0  0  0  0  0  0  0  0  0
    6.1220    5.5396   22.9768 C   0  0  0  0  0  0  0  0  0  0  0  0
    6.8848    6.7113   23.0607 C   0  0  0  0  0  0  0  0  0  0  0  0
    8.2382    6.6328   23.4088 C   0  0  0  0  0  0  0  0  0  0  0  0
    8.8016    5.3905   23.7041 C   0  0  0  0  0  0  0  0  0  0  0  0
    9.8492    5.3287   23.9837 H   0  0  0  0  0  0  0  0  0  0  0  0
    8.8544    7.5268   23.4526 H   0  0  0  0  0  0  0  0  0  0  0  0
    6.4362    7.6769   22.8418 H   0  0  0  0  0  0  0  0  0  0  0  0
    5.0725    5.5976   22.7000 H   0  0  0  0  0  0  0  0  0  0  0  0
    6.1390    3.3674   23.1280 H   0  0  0  0  0  0  0  0  0  0  0  0
    8.3926    2.3324   25.4447 C   0  0  0  0  0  0  0  0  0  0  0  0
    9.7166    2.9331   25.0932 C   0  0  0  0  0  0  0  0  0  0  0  0
   10.5765    2.2779   24.9703 H   0  0  0  0  0  0  0  0  0  0  0  0
    9.9131    3.9364   25.4615 H   0  0  0  0  0  0  0  0  0  0  0  0
    7.7021    2.8666   26.0952 H   0  0  0  0  0  0  0  0  0  0  0  0
    8.3673    1.2501   25.5429 H   0  0  0  0  0  0  0  0  0  0  0  0
   10.5456    4.2282   22.2015 H   0  0  0  0  0  0  0  0  0  0  0  0
   14.7316    3.5909   22.7261 H   0  0  0  0  0  0  0  0  0  0  0  0
   13.2919   -0.0693   22.6740 H   0  0  0  0  0  0  0  0  0  0  0  0
  1  2  1  0
  2  3  2  0
  3  4  1  0
  4  5  2  0
  5  6  1  0
  5  7  1  0
  7  8  2  0
  8  9  1  0
  9 10  2  0
 10 11  1  0
 11 12  1  0
 12 13  1  0
 13 14  2  0
 14 15  1  0
 15 16  2  0
 16 17  1  0
 17 18  2  0
 18 19  1  0
 16 20  1  0
 15 21  1  0
 14 22  1  0
 12 23  1  0
 12 24  1  0
 11 25  2  0
 25 26  1  0
 26 27  1  0
 27 28  1  0
 28 29  2  0
 29 30  1  0
 30 31  2  0
 31 32  1  0
 32 33  2  0
 33 34  1  0
 32 35  1  0
 31 36  1  0
 30 37  1  0
 29 38  1  0
 27 39  1  0
 39 40  1  0
 40 41  1  0
 40 42  1  0
 39 43  1  0
 39 44  1  0
  7 45  1  0
  4 46  1  0
  1 47  1  0
  8  2  1  0
 26  9  1  0
 40 27  1  0
 18 13  1  0
 33 28  1  0
M  END
>  <cnnaffinity>  (1) 
-6.24636

>  <filename>  (1) 
Oc1ncc(F)cc1-c1nc(Cc2cccnc2)nn1C1(c2ccccc2)CC1

$$$$
