
     RDKit          3D

 33 34  0  0  0  0  0  0  0  0999 V2000
   13.1156    3.4501   23.4309 H   0  0  0  0  0  0  0  0  0  0  0  0
   12.2312    3.0729   23.4570 O   0  0  0  0  0  0  0  0  0  0  0  0
   12.2986    1.8027   22.8271 C   0  0  0  0  0  0  0  0  0  0  0  0
   12.9777    1.1313   23.3780 H   0  0  0  0  0  0  0  0  0  0  0  0
   12.6837    1.8884   21.7966 H   0  0  0  0  0  0  0  0  0  0  0  0
   10.9094    1.1743   22.7610 C   0  0  0  0  0  0  0  0  0  0  0  0
   10.5181    1.1348   23.7893 H   0  0  0  0  0  0  0  0  0  0  0  0
    9.9293    1.9927   21.9044 C   0  0  0  0  0  0  0  0  0  0  0  0
   10.3439    2.1369   20.9004 H   0  0  0  0  0  0  0  0  0  0  0  0
    9.7952    2.9883   22.3380 H   0  0  0  0  0  0  0  0  0  0  0  0
    8.5761    1.3031   21.7803 C   0  0  0  0  0  0  0  0  0  0  0  0
    7.9208    1.8968   21.1357 H   0  0  0  0  0  0  0  0  0  0  0  0
    8.0937    1.2593   22.7734 H   0  0  0  0  0  0  0  0  0  0  0  0
    8.7227   -0.0608   21.2038 N   0  0  0  0  0  0  0  0  0  0  0  0
    7.4500   -0.6899   20.9528 C   0  0  0  0  0  0  0  0  0  0  0  0
    7.6223   -1.9936   20.5811 F   0  0  0  0  0  0  0  0  0  0  0  0
    6.7110   -0.7873   22.1138 F   0  0  0  0  0  0  0  0  0  0  0  0
    6.6477    0.0265   19.9086 C   0  0  0  0  0  0  0  0  0  0  0  0
    7.1813    0.0688   18.6218 C   0  0  0  0  0  0  0  0  0  0  0  0
    8.1224   -0.4263   18.3953 H   0  0  0  0  0  0  0  0  0  0  0  0
    6.5734    0.6735   17.5960 N   0  0  0  0  0  0  0  0  0  0  0  0
    5.4086    1.2889   17.8437 C   0  0  0  0  0  0  0  0  0  0  0  0
    4.9276    1.7747   16.9976 H   0  0  0  0  0  0  0  0  0  0  0  0
    4.8017    1.3119   19.1039 C   0  0  0  0  0  0  0  0  0  0  0  0
    3.8707    1.8454   19.2551 H   0  0  0  0  0  0  0  0  0  0  0  0
    5.4243    0.6568   20.1647 C   0  0  0  0  0  0  0  0  0  0  0  0
    4.9952    0.6334   21.1684 H   0  0  0  0  0  0  0  0  0  0  0  0
    9.5952   -0.8890   22.0782 C   0  0  0  0  0  0  0  0  0  0  0  0
    9.6857   -1.8869   21.6422 H   0  0  0  0  0  0  0  0  0  0  0  0
    9.1427   -1.0179   23.0767 H   0  0  0  0  0  0  0  0  0  0  0  0
   10.9746   -0.2612   22.2118 C   0  0  0  0  0  0  0  0  0  0  0  0
   11.5888   -0.8906   22.8668 H   0  0  0  0  0  0  0  0  0  0  0  0
   11.4548   -0.2641   21.2246 H   0  0  0  0  0  0  0  0  0  0  0  0
  1  2  1  0
  2  3  1  0
  3  4  1  0
  3  5  1  0
  3  6  1  0
  6  7  1  0
  6  8  1  0
  8  9  1  0
  8 10  1  0
  8 11  1  0
 11 12  1  0
 11 13  1  0
 11 14  1  0
 14 15  1  0
 15 16  1  0
 15 17  1  0
 15 18  1  0
 18 19  2  0
 19 20  1  0
 19 21  1  0
 21 22  2  0
 22 23  1  0
 22 24  1  0
 24 25  1  0
 24 26  2  0
 26 27  1  0
 14 28  1  0
 28 29  1  0
 28 30  1  0
 28 31  1  0
 31 32  1  0
 31 33  1  0
 31  6  1  0
 26 18  1  0
M  END
>  <cnnaffinity>  (1) 
-4.65197

>  <filename>  (1) 
OCC1CCN(C(F)(F)c2cccnc2)CC1

$$$$
