
     RDKit          3D

 36 38  0  0  0  0  0  0  0  0999 V2000
    4.4097   -1.9714   26.7583 O   0  0  0  0  0  0  0  0  0  0  0  0
    4.8197   -0.9024   25.9150 C   0  0  0  0  0  0  0  0  0  0  0  0
    6.3062   -0.9021   25.5913 C   0  0  0  0  0  0  0  0  0  0  0  0
    7.1967   -0.2308   26.4429 C   0  0  0  0  0  0  0  0  0  0  0  0
    8.5712   -0.2618   26.2145 C   0  0  0  0  0  0  0  0  0  0  0  0
    9.0585   -0.9630   25.1200 C   0  0  0  0  0  0  0  0  0  0  0  0
   10.3984   -0.9903   24.9485 F   0  0  0  0  0  0  0  0  0  0  0  0
    8.2233   -1.6394   24.2210 C   0  0  0  0  0  0  0  0  0  0  0  0
    8.8084   -2.3731   23.0225 C   0  0  0  0  0  0  0  0  0  0  0  0
    9.3677   -1.4820   22.0056 N   0  0  0  0  0  0  0  0  0  0  0  0
   10.6697   -1.0567   21.9363 C   0  0  0  0  0  0  0  0  0  0  0  0
   10.8169   -0.1038   21.0699 N   0  0  0  0  0  0  0  0  0  0  0  0
    9.5718    0.1376   20.5206 N   0  0  0  0  0  0  0  0  0  0  0  0
    8.7290   -0.6670   21.1067 C   0  0  0  0  0  0  0  0  0  0  0  0
    7.3713   -0.7932   20.8802 N   0  0  0  0  0  0  0  0  0  0  0  0
    6.6903   -0.0630   19.8674 C   0  0  0  0  0  0  0  0  0  0  0  0
    5.4726    0.5765   20.1475 C   0  0  0  0  0  0  0  0  0  0  0  0
    4.8199    1.2705   19.1212 C   0  0  0  0  0  0  0  0  0  0  0  0
    5.3917    1.2915   17.8475 C   0  0  0  0  0  0  0  0  0  0  0  0
    6.5499    0.6792   17.5516 N   0  0  0  0  0  0  0  0  0  0  0  0
    7.1856    0.0377   18.5395 C   0  0  0  0  0  0  0  0  0  0  0  0
    8.1601   -0.3991   18.3180 H   0  0  0  0  0  0  0  0  0  0  0  0
    4.9153    1.8195   17.0265 H   0  0  0  0  0  0  0  0  0  0  0  0
    3.8942    1.8087   19.2936 H   0  0  0  0  0  0  0  0  0  0  0  0
    5.0623    0.5756   21.1570 H   0  0  0  0  0  0  0  0  0  0  0  0
    6.8807   -0.8612   21.7623 H   0  0  0  0  0  0  0  0  0  0  0  0
   11.4547   -1.5119   22.5234 H   0  0  0  0  0  0  0  0  0  0  0  0
    8.0618   -3.0313   22.5670 H   0  0  0  0  0  0  0  0  0  0  0  0
    9.6217   -3.0295   23.3468 H   0  0  0  0  0  0  0  0  0  0  0  0
    6.8424   -1.5864   24.4831 C   0  0  0  0  0  0  0  0  0  0  0  0
    6.1615   -2.0786   23.7904 H   0  0  0  0  0  0  0  0  0  0  0  0
    9.2740    0.2459   26.8629 H   0  0  0  0  0  0  0  0  0  0  0  0
    6.8120    0.3296   27.2918 H   0  0  0  0  0  0  0  0  0  0  0  0
    4.5565   -0.0013   26.4784 H   0  0  0  0  0  0  0  0  0  0  0  0
    4.2049   -0.8717   25.0081 H   0  0  0  0  0  0  0  0  0  0  0  0
    4.6339   -2.7997   26.3128 H   0  0  0  0  0  0  0  0  0  0  0  0
  1  2  1  0
  2  3  1  0
  3  4  2  0
  4  5  1  0
  5  6  2  0
  6  7  1  0
  6  8  1  0
  8  9  1  0
  9 10  1  0
 10 11  1  0
 11 12  2  0
 12 13  1  0
 13 14  2  0
 14 15  1  0
 15 16  1  0
 16 17  2  0
 17 18  1  0
 18 19  2  0
 19 20  1  0
 20 21  2  0
 21 22  1  0
 19 23  1  0
 18 24  1  0
 17 25  1  0
 15 26  1  0
 11 27  1  0
  9 28  1  0
  9 29  1  0
  8 30  2  0
 30 31  1  0
  5 32  1  0
  4 33  1  0
  2 34  1  0
  2 35  1  0
  1 36  1  0
 30  3  1  0
 14 10  1  0
 21 16  1  0
M  END
>  <cnnaffinity>  (1) 
-5.39111

>  <filename>  (1) 
OCc1ccc(F)c(Cn2cnnc2Nc2cccnc2)c1

$$$$
