
     RDKit          3D

 32 34  0  0  0  0  0  0  0  0999 V2000
    3.5154   -6.3594   23.3459 O   0  0  0  0  0  0  0  0  0  0  0  0
    4.1509   -6.2057   24.6093 C   0  0  0  0  0  0  0  0  0  0  0  0
    5.1843   -5.0937   24.6372 C   0  0  0  0  0  0  0  0  0  0  0  0
    6.5370   -5.3620   24.3757 C   0  0  0  0  0  0  0  0  0  0  0  0
    7.4991   -4.3567   24.3864 C   0  0  0  0  0  0  0  0  0  0  0  0
    7.1189   -3.0359   24.6443 C   0  0  0  0  0  0  0  0  0  0  0  0
    8.3640   -1.7560   24.5263 S   0  0  0  0  0  0  0  0  0  0  0  0
    8.1273   -1.3784   22.8137 C   0  0  0  0  0  0  0  0  0  0  0  0
    7.2049   -0.5335   22.2707 C   0  0  0  0  0  0  0  0  0  0  0  0
    7.3606   -0.6704   20.9336 N   0  0  0  0  0  0  0  0  0  0  0  0
    6.6577    0.0022   19.8977 C   0  0  0  0  0  0  0  0  0  0  0  0
    5.4403    0.6433   20.1606 C   0  0  0  0  0  0  0  0  0  0  0  0
    4.8131    1.3019   19.1028 C   0  0  0  0  0  0  0  0  0  0  0  0
    5.4054    1.2894   17.8388 C   0  0  0  0  0  0  0  0  0  0  0  0
    6.5706    0.6708   17.5847 N   0  0  0  0  0  0  0  0  0  0  0  0
    7.1812    0.0499   18.5941 C   0  0  0  0  0  0  0  0  0  0  0  0
    8.1307   -0.4305   18.3634 H   0  0  0  0  0  0  0  0  0  0  0  0
    4.9357    1.7887   16.9953 H   0  0  0  0  0  0  0  0  0  0  0  0
    3.8835    1.8330   19.2587 H   0  0  0  0  0  0  0  0  0  0  0  0
    4.9905    0.6312   21.1547 H   0  0  0  0  0  0  0  0  0  0  0  0
    8.3393   -1.5579   20.6716 N   0  0  0  0  0  0  0  0  0  0  0  0
    8.8033   -1.9907   21.7978 N   0  0  0  0  0  0  0  0  0  0  0  0
    6.4674    0.1037   22.7274 H   0  0  0  0  0  0  0  0  0  0  0  0
    5.7681   -2.7392   24.8840 C   0  0  0  0  0  0  0  0  0  0  0  0
    4.8114   -3.7605   24.8843 C   0  0  0  0  0  0  0  0  0  0  0  0
    3.7603   -3.5256   25.0515 H   0  0  0  0  0  0  0  0  0  0  0  0
    5.4620   -1.7078   25.0375 H   0  0  0  0  0  0  0  0  0  0  0  0
    8.5364   -4.5900   24.1568 H   0  0  0  0  0  0  0  0  0  0  0  0
    6.8589   -6.3556   24.1082 H   0  0  0  0  0  0  0  0  0  0  0  0
    4.6098   -7.1541   24.9328 H   0  0  0  0  0  0  0  0  0  0  0  0
    3.3372   -5.9838   25.3083 H   0  0  0  0  0  0  0  0  0  0  0  0
    4.1887   -6.6606   22.7224 H   0  0  0  0  0  0  0  0  0  0  0  0
  1  2  1  0
  2  3  1  0
  3  4  2  0
  4  5  1  0
  5  6  2  0
  6  7  1  0
  7  8  1  0
  8  9  2  0
  9 10  1  0
 10 11  1  0
 11 12  2  0
 12 13  1  0
 13 14  2  0
 14 15  1  0
 15 16  2  0
 16 17  1  0
 14 18  1  0
 13 19  1  0
 12 20  1  0
 10 21  1  0
 21 22  2  0
  9 23  1  0
  6 24  1  0
 24 25  2  0
 25 26  1  0
 24 27  1  0
  5 28  1  0
  4 29  1  0
  2 30  1  0
  2 31  1  0
  1 32  1  0
 25  3  1  0
 22  8  1  0
 16 11  1  0
M  END
>  <cnnaffinity>  (1) 
-5.22951

>  <filename>  (1) 
OCc1ccc(Sc2cn(-c3cccnc3)nn2)cc1

$$$$
