
     RDKit          3D

 33 35  0  0  0  0  0  0  0  0999 V2000
    6.1321    2.7512   27.4492 H   0  0  0  0  0  0  0  0  0  0  0  0
    5.4398    2.2897   26.9595 O   0  0  0  0  0  0  0  0  0  0  0  0
    5.6210    0.9089   27.2414 C   0  0  0  0  0  0  0  0  0  0  0  0
    5.6185    0.7296   28.3259 H   0  0  0  0  0  0  0  0  0  0  0  0
    4.7420    0.4076   26.8288 H   0  0  0  0  0  0  0  0  0  0  0  0
    6.8818    0.3390   26.6314 C   0  0  0  0  0  0  0  0  0  0  0  0
    8.0783    0.2816   27.3675 C   0  0  0  0  0  0  0  0  0  0  0  0
    8.0900    0.6193   28.3998 H   0  0  0  0  0  0  0  0  0  0  0  0
    9.2580   -0.1903   26.7835 C   0  0  0  0  0  0  0  0  0  0  0  0
   10.1735   -0.2365   27.3654 H   0  0  0  0  0  0  0  0  0  0  0  0
    9.2567   -0.6129   25.4562 C   0  0  0  0  0  0  0  0  0  0  0  0
   10.1678   -0.9748   24.9882 H   0  0  0  0  0  0  0  0  0  0  0  0
    8.0766   -0.5486   24.6955 C   0  0  0  0  0  0  0  0  0  0  0  0
    8.0699   -0.9670   23.2705 C   0  0  0  0  0  0  0  0  0  0  0  0
    8.7631   -2.1123   22.8209 C   0  0  0  0  0  0  0  0  0  0  0  0
    9.3171   -2.7350   23.5055 H   0  0  0  0  0  0  0  0  0  0  0  0
    8.7677   -2.5240   21.5504 N   0  0  0  0  0  0  0  0  0  0  0  0
    8.1145   -1.8125   20.6242 N   0  0  0  0  0  0  0  0  0  0  0  0
    7.4077   -0.7212   20.9714 C   0  0  0  0  0  0  0  0  0  0  0  0
    6.6604   -0.0070   19.9009 C   0  0  0  0  0  0  0  0  0  0  0  0
    7.1734    0.0496   18.5964 C   0  0  0  0  0  0  0  0  0  0  0  0
    8.1212   -0.4324   18.3700 H   0  0  0  0  0  0  0  0  0  0  0  0
    6.5718    0.6773   17.5823 N   0  0  0  0  0  0  0  0  0  0  0  0
    5.4071    1.2885   17.8436 C   0  0  0  0  0  0  0  0  0  0  0  0
    4.9234    1.7795   17.0006 H   0  0  0  0  0  0  0  0  0  0  0  0
    4.8093    1.3016   19.1091 C   0  0  0  0  0  0  0  0  0  0  0  0
    3.8777    1.8399   19.2597 H   0  0  0  0  0  0  0  0  0  0  0  0
    5.4453    0.6468   20.1625 C   0  0  0  0  0  0  0  0  0  0  0  0
    4.9991    0.6317   21.1617 H   0  0  0  0  0  0  0  0  0  0  0  0
    7.3671   -0.2643   22.3002 C   0  0  0  0  0  0  0  0  0  0  0  0
    6.8349    0.6530   22.5447 H   0  0  0  0  0  0  0  0  0  0  0  0
    6.9003   -0.0702   25.2915 C   0  0  0  0  0  0  0  0  0  0  0  0
    5.9942   -0.0207   24.6870 H   0  0  0  0  0  0  0  0  0  0  0  0
  1  2  1  0
  2  3  1  0
  3  4  1  0
  3  5  1  0
  3  6  1  0
  6  7  2  0
  7  8  1  0
  7  9  1  0
  9 10  1  0
  9 11  2  0
 11 12  1  0
 11 13  1  0
 13 14  1  0
 14 15  2  0
 15 16  1  0
 15 17  1  0
 17 18  2  0
 18 19  1  0
 19 20  1  0
 20 21  2  0
 21 22  1  0
 21 23  1  0
 23 24  2  0
 24 25  1  0
 24 26  1  0
 26 27  1  0
 26 28  2  0
 28 29  1  0
 19 30  2  0
 30 31  1  0
 13 32  2  0
 32 33  1  0
 32  6  1  0
 30 14  1  0
 28 20  1  0
M  END
>  <cnnaffinity>  (1) 
-4.61223

>  <filename>  (1) 
OCc1cccc(-c2cnnc(-c3cccnc3)c2)c1

$$$$
