
     RDKit          3D

 51 55  0  0  0  0  0  0  0  0999 V2000
   12.4884   -0.8819   21.5663 O   0  0  0  0  0  0  0  0  0  0  0  0
   12.5238   -0.2254   22.8142 C   0  0  0  0  0  0  0  0  0  0  0  0
   12.5505    1.2875   22.6854 C   0  0  0  0  0  0  0  0  0  0  0  0
   13.7460    1.9807   22.9147 C   0  0  0  0  0  0  0  0  0  0  0  0
   13.8265    3.3686   22.7691 C   0  0  0  0  0  0  0  0  0  0  0  0
   12.6852    4.0946   22.4367 C   0  0  0  0  0  0  0  0  0  0  0  0
   11.4811    3.4245   22.2411 C   0  0  0  0  0  0  0  0  0  0  0  0
   11.3915    2.0260   22.3633 C   0  0  0  0  0  0  0  0  0  0  0  0
   10.0652    1.3760   22.2210 C   0  0  0  0  0  0  0  0  0  0  0  0
    9.6912    0.3567   21.4550 N   0  0  0  0  0  0  0  0  0  0  0  0
    8.3497    0.2741   21.6774 C   0  0  0  0  0  0  0  0  0  0  0  0
    7.4307   -0.6747   20.9506 C   0  0  0  0  0  0  0  0  0  0  0  0
    6.6484   -0.0284   19.8062 C   0  0  0  0  0  0  0  0  0  0  0  0
    5.4433    0.6432   20.0579 C   0  0  0  0  0  0  0  0  0  0  0  0
    4.8076    1.3228   19.0132 C   0  0  0  0  0  0  0  0  0  0  0  0
    5.4015    1.3011   17.7483 C   0  0  0  0  0  0  0  0  0  0  0  0
    6.5331    0.6351   17.4737 N   0  0  0  0  0  0  0  0  0  0  0  0
    7.1266   -0.0130   18.4839 C   0  0  0  0  0  0  0  0  0  0  0  0
    8.0413   -0.5532   18.2337 H   0  0  0  0  0  0  0  0  0  0  0  0
    4.9558    1.8350   16.9102 H   0  0  0  0  0  0  0  0  0  0  0  0
    3.8856    1.8760   19.1617 H   0  0  0  0  0  0  0  0  0  0  0  0
    5.0198    0.6351   21.0646 H   0  0  0  0  0  0  0  0  0  0  0  0
    8.0277   -1.5243   20.6003 H   0  0  0  0  0  0  0  0  0  0  0  0
    6.7212   -1.0639   21.6891 H   0  0  0  0  0  0  0  0  0  0  0  0
    7.8933    1.1403   22.5603 N   0  0  0  0  0  0  0  0  0  0  0  0
    8.9953    1.8384   22.9175 N   0  0  0  0  0  0  0  0  0  0  0  0
    8.9179    2.8949   23.9450 C   0  0  0  0  0  0  0  0  0  0  0  0
    8.1228    4.1466   23.4912 C   0  0  0  0  0  0  0  0  0  0  0  0
    6.8614    4.2426   24.3953 C   0  0  0  0  0  0  0  0  0  0  0  0
    7.0908    3.2026   25.4759 C   0  0  0  0  0  0  0  0  0  0  0  0
    6.3273    2.9188   26.6155 C   0  0  0  0  0  0  0  0  0  0  0  0
    6.7445    1.8963   27.4805 C   0  0  0  0  0  0  0  0  0  0  0  0
    7.9112    1.1674   27.2169 C   0  0  0  0  0  0  0  0  0  0  0  0
    8.6698    1.4463   26.0758 C   0  0  0  0  0  0  0  0  0  0  0  0
    8.2381    2.4568   25.2154 C   0  0  0  0  0  0  0  0  0  0  0  0
    9.5786    0.8898   25.8558 H   0  0  0  0  0  0  0  0  0  0  0  0
    8.2353    0.3883   27.9046 H   0  0  0  0  0  0  0  0  0  0  0  0
    6.1544    1.6653   28.3646 H   0  0  0  0  0  0  0  0  0  0  0  0
    5.4210    3.4797   26.8307 H   0  0  0  0  0  0  0  0  0  0  0  0
    6.7377    5.2441   24.8200 H   0  0  0  0  0  0  0  0  0  0  0  0
    5.9424    4.0258   23.8344 H   0  0  0  0  0  0  0  0  0  0  0  0
    7.8666    4.0474   22.4310 H   0  0  0  0  0  0  0  0  0  0  0  0
    8.7614    5.0319   23.6084 H   0  0  0  0  0  0  0  0  0  0  0  0
    9.9515    3.1415   24.1897 H   0  0  0  0  0  0  0  0  0  0  0  0
   10.5810    3.9787   22.0221 H   0  0  0  0  0  0  0  0  0  0  0  0
   12.7258    5.1728   22.3230 H   0  0  0  0  0  0  0  0  0  0  0  0
   14.7714    3.8868   22.8979 H   0  0  0  0  0  0  0  0  0  0  0  0
   14.6315    1.4116   23.1910 H   0  0  0  0  0  0  0  0  0  0  0  0
   11.6697   -0.5307   23.4395 H   0  0  0  0  0  0  0  0  0  0  0  0
   13.4364   -0.5595   23.3170 H   0  0  0  0  0  0  0  0  0  0  0  0
   11.6443   -0.6435   21.1455 H   0  0  0  0  0  0  0  0  0  0  0  0
  1  2  1  0
  2  3  1  0
  3  4  2  0
  4  5  1  0
  5  6  2  0
  6  7  1  0
  7  8  2  0
  8  9  1  0
  9 10  2  0
 10 11  1  0
 11 12  1  0
 12 13  1  0
 13 14  2  0
 14 15  1  0
 15 16  2  0
 16 17  1  0
 17 18  2  0
 18 19  1  0
 16 20  1  0
 15 21  1  0
 14 22  1  0
 12 23  1  0
 12 24  1  0
 11 25  2  0
 25 26  1  0
 26 27  1  0
 27 28  1  0
 28 29  1  0
 29 30  1  0
 30 31  2  0
 31 32  1  0
 32 33  2  0
 33 34  1  0
 34 35  2  0
 34 36  1  0
 33 37  1  0
 32 38  1  0
 31 39  1  0
 29 40  1  0
 29 41  1  0
 28 42  1  0
 28 43  1  0
 27 44  1  0
  7 45  1  0
  6 46  1  0
  5 47  1  0
  4 48  1  0
  2 49  1  0
  2 50  1  0
  1 51  1  0
  8  3  1  0
 26  9  1  0
 35 27  1  0
 18 13  1  0
 35 30  1  0
M  END
>  <cnnaffinity>  (1) 
-5.94377

>  <filename>  (1) 
OCc1ccccc1-c1nc(Cc2cccnc2)nn1C1CCc2ccccc21

$$$$
