
     RDKit          3D

 32 34  0  0  0  0  0  0  0  0999 V2000
    5.7278   -6.0446   27.3732 H   0  0  0  0  0  0  0  0  0  0  0  0
    5.3388   -5.3531   27.9259 O   0  0  0  0  0  0  0  0  0  0  0  0
    6.2746   -4.2905   28.0714 C   0  0  0  0  0  0  0  0  0  0  0  0
    5.7575   -3.5564   28.7024 H   0  0  0  0  0  0  0  0  0  0  0  0
    7.1621   -4.6160   28.6364 H   0  0  0  0  0  0  0  0  0  0  0  0
    6.7243   -3.6278   26.7769 C   0  0  0  0  0  0  0  0  0  0  0  0
    7.8056   -4.1251   26.0245 C   0  0  0  0  0  0  0  0  0  0  0  0
    8.3969   -4.9632   26.3925 H   0  0  0  0  0  0  0  0  0  0  0  0
    8.1517   -3.5503   24.7993 C   0  0  0  0  0  0  0  0  0  0  0  0
    8.9453   -3.9873   24.2010 H   0  0  0  0  0  0  0  0  0  0  0  0
    7.4588   -2.4386   24.2928 C   0  0  0  0  0  0  0  0  0  0  0  0
    7.8274   -1.8465   22.9763 C   0  0  0  0  0  0  0  0  0  0  0  0
    9.0850   -1.8362   22.4286 C   0  0  0  0  0  0  0  0  0  0  0  0
    9.9940   -2.2279   22.8693 H   0  0  0  0  0  0  0  0  0  0  0  0
    9.1390   -1.0463   20.8987 S   0  0  0  0  0  0  0  0  0  0  0  0
    7.4358   -0.6970   20.9520 C   0  0  0  0  0  0  0  0  0  0  0  0
    6.6956    0.0130   19.8825 C   0  0  0  0  0  0  0  0  0  0  0  0
    7.1810    0.0647   18.5590 C   0  0  0  0  0  0  0  0  0  0  0  0
    8.1232   -0.4195   18.3137 H   0  0  0  0  0  0  0  0  0  0  0  0
    6.5563    0.6781   17.5476 N   0  0  0  0  0  0  0  0  0  0  0  0
    5.3974    1.2960   17.8233 C   0  0  0  0  0  0  0  0  0  0  0  0
    4.9288    1.8068   16.9861 H   0  0  0  0  0  0  0  0  0  0  0  0
    4.8089    1.3066   19.0931 C   0  0  0  0  0  0  0  0  0  0  0  0
    3.8728    1.8359   19.2456 H   0  0  0  0  0  0  0  0  0  0  0  0
    5.4647    0.6522   20.1392 C   0  0  0  0  0  0  0  0  0  0  0  0
    5.0368    0.6553   21.1429 H   0  0  0  0  0  0  0  0  0  0  0  0
    6.9017   -1.1947   22.0980 C   0  0  0  0  0  0  0  0  0  0  0  0
    5.8407   -1.1354   22.2758 H   0  0  0  0  0  0  0  0  0  0  0  0
    6.4069   -1.9150   25.0669 C   0  0  0  0  0  0  0  0  0  0  0  0
    5.8548   -1.0589   24.6900 H   0  0  0  0  0  0  0  0  0  0  0  0
    6.0537   -2.4931   26.2875 C   0  0  0  0  0  0  0  0  0  0  0  0
    5.2409   -2.0677   26.8744 H   0  0  0  0  0  0  0  0  0  0  0  0
  1  2  1  0
  2  3  1  0
  3  4  1  0
  3  5  1  0
  3  6  1  0
  6  7  2  0
  7  8  1  0
  7  9  1  0
  9 10  1  0
  9 11  2  0
 11 12  1  0
 12 13  2  0
 13 14  1  0
 13 15  1  0
 15 16  1  0
 16 17  1  0
 17 18  2  0
 18 19  1  0
 18 20  1  0
 20 21  2  0
 21 22  1  0
 21 23  1  0
 23 24  1  0
 23 25  2  0
 25 26  1  0
 16 27  2  0
 27 28  1  0
 11 29  1  0
 29 30  1  0
 29 31  2  0
 31 32  1  0
 31  6  1  0
 27 12  1  0
 25 17  1  0
M  END
>  <cnnaffinity>  (1) 
-4.85365

>  <filename>  (1) 
OCc1ccc(-c2csc(-c3cccnc3)c2)cc1

$$$$
