
     RDKit          3D

 34 35  0  0  0  0  0  0  0  0999 V2000
    5.8954   -4.0624   20.8068 O   0  0  0  0  0  0  0  0  0  0  0  0
    5.8295   -2.6689   21.0273 C   0  0  0  0  0  0  0  0  0  0  0  0
    7.1959   -2.0189   21.2097 C   0  0  0  0  0  0  0  0  0  0  0  0
    7.1442   -0.4865   21.2703 C   0  0  1  0  0  0  0  0  0  0  0  0
    8.5038   -0.0390   21.4461 N   0  0  0  0  0  0  0  0  0  0  0  0
    8.9097    1.2059   21.7207 C   0  0  0  0  0  0  0  0  0  0  0  0
    8.0723    2.2142   22.1744 C   0  0  0  0  0  0  0  0  0  0  0  0
    8.7327    3.3337   22.6296 C   0  0  0  0  0  0  0  0  0  0  0  0
   10.0589    3.4732   22.5823 N   0  0  0  0  0  0  0  0  0  0  0  0
   10.7396    2.4883   21.9967 C   0  0  0  0  0  0  0  0  0  0  0  0
   12.2540    2.6168   21.7751 C   0  0  0  0  0  0  0  0  0  0  0  0
   12.5352    3.6020   20.8779 F   0  0  0  0  0  0  0  0  0  0  0  0
   12.9321    2.9237   22.9126 F   0  0  0  0  0  0  0  0  0  0  0  0
   12.6175    1.6580   21.3859 H   0  0  0  0  0  0  0  0  0  0  0  0
   10.2224    1.3474   21.5499 N   0  0  0  0  0  0  0  0  0  0  0  0
    8.1958    4.1718   23.0711 H   0  0  0  0  0  0  0  0  0  0  0  0
    7.0022    2.1008   22.1496 H   0  0  0  0  0  0  0  0  0  0  0  0
    9.2789   -0.4839   20.9841 H   0  0  0  0  0  0  0  0  0  0  0  0
    6.4988    0.1859   20.0672 C   0  0  0  0  0  0  0  0  0  0  0  0
    5.2629    0.8481   20.1356 C   0  0  0  0  0  0  0  0  0  0  0  0
    4.7244    1.4153   18.9788 C   0  0  0  0  0  0  0  0  0  0  0  0
    5.4373    1.3048   17.7833 C   0  0  0  0  0  0  0  0  0  0  0  0
    6.6223    0.6860   17.6961 N   0  0  0  0  0  0  0  0  0  0  0  0
    7.1359    0.1587   18.8171 C   0  0  0  0  0  0  0  0  0  0  0  0
    8.1218   -0.2938   18.7033 H   0  0  0  0  0  0  0  0  0  0  0  0
    5.0427    1.7368   16.8641 H   0  0  0  0  0  0  0  0  0  0  0  0
    3.7848    1.9527   18.9940 H   0  0  0  0  0  0  0  0  0  0  0  0
    4.7269    0.9295   21.0821 H   0  0  0  0  0  0  0  0  0  0  0  0
    6.5552   -0.2085   22.1650 H   0  0  0  0  0  0  0  0  0  0  0  0
    7.8559   -2.3038   20.3878 H   0  0  0  0  0  0  0  0  0  0  0  0
    7.6835   -2.3710   22.1298 H   0  0  0  0  0  0  0  0  0  0  0  0
    5.1978   -2.4343   21.9025 H   0  0  0  0  0  0  0  0  0  0  0  0
    5.3517   -2.2664   20.1284 H   0  0  0  0  0  0  0  0  0  0  0  0
    6.3489   -4.4604   21.5594 H   0  0  0  0  0  0  0  0  0  0  0  0
  1  2  1  0
  2  3  1  0
  3  4  1  0
  4  5  1  0
  5  6  1  0
  6  7  2  0
  7  8  1  0
  8  9  2  0
  9 10  1  0
 10 11  1  0
 11 12  1  0
 11 13  1  0
 11 14  1  0
 10 15  2  0
  8 16  1  0
  7 17  1  0
  5 18  1  0
  4 19  1  0
 19 20  2  0
 20 21  1  0
 21 22  2  0
 22 23  1  0
 23 24  2  0
 24 25  1  0
 22 26  1  0
 21 27  1  0
 20 28  1  0
  4 29  1  1
  3 30  1  0
  3 31  1  0
  2 32  1  0
  2 33  1  0
  1 34  1  0
 15  6  1  0
 24 19  1  0
M  END
>  <cnnaffinity>  (1) 
-4.8337

>  <filename>  (1) 
OCC[C@@H](Nc1ccnc(C(F)F)n1)c1cccnc1

$$$$
