
     RDKit          3D

 38 39  0  0  0  0  0  0  0  0999 V2000
   11.1862   -2.6662   22.3896 O   0  0  0  0  0  0  0  0  0  0  0  0
   10.4441   -1.8934   21.4615 C   0  0  0  0  0  0  0  0  0  0  0  0
    9.5575   -0.8991   22.2044 C   0  0  0  0  0  0  0  0  0  0  0  0
    8.6368   -0.0558   21.3436 N   0  0  0  0  0  4  0  0  0  0  0  0
    7.3253   -0.7629   20.9927 C   0  0  0  0  0  0  0  0  0  0  0  0
    6.6299   -0.0033   19.8996 C   0  0  0  0  0  0  0  0  0  0  0  0
    5.4229    0.6689   20.1306 C   0  0  0  0  0  0  0  0  0  0  0  0
    4.8042    1.3329   19.0697 C   0  0  0  0  0  0  0  0  0  0  0  0
    5.4308    1.3249   17.8192 C   0  0  0  0  0  0  0  0  0  0  0  0
    6.5986    0.7107   17.5854 N   0  0  0  0  0  0  0  0  0  0  0  0
    7.1882    0.0825   18.6114 C   0  0  0  0  0  0  0  0  0  0  0  0
    8.1467   -0.3823   18.3758 H   0  0  0  0  0  0  0  0  0  0  0  0
    4.9751    1.8437   16.9755 H   0  0  0  0  0  0  0  0  0  0  0  0
    3.8675    1.8632   19.1923 H   0  0  0  0  0  0  0  0  0  0  0  0
    5.0139    0.7093   21.1441 H   0  0  0  0  0  0  0  0  0  0  0  0
    6.7085   -0.8099   21.8972 H   0  0  0  0  0  0  0  0  0  0  0  0
    7.5519   -1.7950   20.7003 H   0  0  0  0  0  0  0  0  0  0  0  0
    8.3510    1.3159   22.0854 C   0  0  0  0  0  0  0  0  0  0  0  0
    7.6850    1.2705   23.4516 C   0  0  0  0  0  0  0  0  0  0  0  0
    8.4582    1.0184   24.5169 N   0  0  0  0  0  0  0  0  0  0  0  0
    7.8135    0.8867   25.6782 C   0  0  0  0  0  0  0  0  0  0  0  0
    6.4448    1.0527   25.8119 C   0  0  0  0  0  0  0  0  0  0  0  0
    5.7513    1.4477   24.6723 C   0  0  0  0  0  0  0  0  0  0  0  0
    4.2351    1.7549   24.7380 C   0  0  0  0  0  0  0  0  0  0  0  0
    3.5118    0.6310   24.8965 F   0  0  0  0  0  0  0  0  0  0  0  0
    3.7886    2.3677   23.6376 F   0  0  0  0  0  0  0  0  0  0  0  0
    3.9435    2.5429   25.7952 F   0  0  0  0  0  0  0  0  0  0  0  0
    6.3745    1.5170   23.4834 N   0  0  0  0  0  0  0  0  0  0  0  0
    5.9587    0.8913   26.7617 H   0  0  0  0  0  0  0  0  0  0  0  0
    8.4205    0.6371   26.5443 H   0  0  0  0  0  0  0  0  0  0  0  0
    7.6851    1.9055   21.4601 H   0  0  0  0  0  0  0  0  0  0  0  0
    9.3146    1.8077   22.2315 H   0  0  0  0  0  0  0  0  0  0  0  0
    9.0762    0.1571   20.4168 H   0  0  0  0  0  0  0  0  0  0  0  0
    8.9639   -1.4554   22.9363 H   0  0  0  0  0  0  0  0  0  0  0  0
   10.1979   -0.2283   22.7845 H   0  0  0  0  0  0  0  0  0  0  0  0
   11.0847   -1.3604   20.7457 H   0  0  0  0  0  0  0  0  0  0  0  0
    9.8189   -2.5970   20.8985 H   0  0  0  0  0  0  0  0  0  0  0  0
   12.0209   -2.2301   22.6061 H   0  0  0  0  0  0  0  0  0  0  0  0
  1  2  1  0
  2  3  1  0
  3  4  1  0
  4  5  1  0
  5  6  1  0
  6  7  2  0
  7  8  1  0
  8  9  2  0
  9 10  1  0
 10 11  2  0
 11 12  1  0
  9 13  1  0
  8 14  1  0
  7 15  1  0
  5 16  1  0
  5 17  1  0
  4 18  1  0
 18 19  1  0
 19 20  2  0
 20 21  1  0
 21 22  2  0
 22 23  1  0
 23 24  1  0
 24 25  1  0
 24 26  1  0
 24 27  1  0
 23 28  2  0
 22 29  1  0
 21 30  1  0
 18 31  1  0
 18 32  1  0
  4 33  1  0
  3 34  1  0
  3 35  1  0
  2 36  1  0
  2 37  1  0
  1 38  1  0
 11  6  1  0
 28 19  1  0
M  CHG  1   4   1
M  END
>  <cnnaffinity>  (1) 
-4.9679

>  <filename>  (1) 
OCC[NH+](Cc1cccnc1)Cc1nccc(C(F)(F)F)n1

$$$$
