
     RDKit          3D

 44 45  0  0  0  0  0  0  0  0999 V2000
    2.3318   -6.5667   26.3778 O   0  0  0  0  0  0  0  0  0  0  0  0
    3.0007   -7.8068   26.5255 C   0  0  0  0  0  0  0  0  0  0  0  0
    3.0053   -8.6015   25.2252 C   0  0  0  0  0  0  0  0  0  0  0  0
    3.5910   -7.8621   24.0349 C   0  0  0  0  0  0  0  0  0  0  0  0
    4.9962   -7.7515   24.1475 O   0  0  0  0  0  0  0  0  0  0  0  0
    5.5845   -6.7654   23.3056 C   0  0  0  0  0  0  0  0  0  0  0  0
    5.7299   -5.4491   24.0662 C   0  0  0  0  0  0  0  0  0  0  0  0
    6.4907   -4.4332   23.2967 N   0  0  0  0  0  4  0  0  0  0  0  0
    6.5903   -3.0491   23.8608 C   0  0  0  0  0  0  0  0  0  0  0  0
    7.3784   -2.2118   22.8817 C   0  0  0  0  0  0  0  0  0  0  0  0
    8.7692   -2.0538   23.0058 C   0  0  0  0  0  0  0  0  0  0  0  0
    9.4784   -1.2341   22.1197 C   0  0  0  0  0  0  0  0  0  0  0  0
    8.8072   -0.5654   21.0905 C   0  0  0  0  0  0  0  0  0  0  0  0
    7.4139   -0.7082   20.9378 C   0  0  0  0  0  0  0  0  0  0  0  0
    6.6672    0.0165   19.8614 C   0  0  0  0  0  0  0  0  0  0  0  0
    5.4421    0.6655   20.1084 C   0  0  0  0  0  0  0  0  0  0  0  0
    4.8057    1.3337   19.0598 C   0  0  0  0  0  0  0  0  0  0  0  0
    5.3999    1.3217   17.7927 C   0  0  0  0  0  0  0  0  0  0  0  0
    6.5524    0.6887   17.5247 N   0  0  0  0  0  0  0  0  0  0  0  0
    7.1635    0.0725   18.5434 C   0  0  0  0  0  0  0  0  0  0  0  0
    8.0975   -0.4317   18.2992 H   0  0  0  0  0  0  0  0  0  0  0  0
    4.9251    1.8363   16.9616 H   0  0  0  0  0  0  0  0  0  0  0  0
    3.8681    1.8595   19.2081 H   0  0  0  0  0  0  0  0  0  0  0  0
    5.0170    0.6793   21.1126 H   0  0  0  0  0  0  0  0  0  0  0  0
    6.7272   -1.5384   21.8369 C   0  0  0  0  0  0  0  0  0  0  0  0
    5.6554   -1.6729   21.6933 H   0  0  0  0  0  0  0  0  0  0  0  0
    9.3574    0.1079   20.4365 H   0  0  0  0  0  0  0  0  0  0  0  0
   10.5530   -1.1125   22.2396 H   0  0  0  0  0  0  0  0  0  0  0  0
    9.3080   -2.5724   23.7970 H   0  0  0  0  0  0  0  0  0  0  0  0
    5.5965   -2.6085   23.9993 H   0  0  0  0  0  0  0  0  0  0  0  0
    7.0790   -3.0555   24.8405 H   0  0  0  0  0  0  0  0  0  0  0  0
    6.0933   -4.2989   22.3339 H   0  0  0  0  0  0  0  0  0  0  0  0
    7.4840   -4.7473   23.1667 H   0  0  0  0  0  0  0  0  0  0  0  0
    6.2202   -5.6876   25.0154 H   0  0  0  0  0  0  0  0  0  0  0  0
    4.7285   -5.0694   24.3124 H   0  0  0  0  0  0  0  0  0  0  0  0
    5.0284   -6.6059   22.3680 H   0  0  0  0  0  0  0  0  0  0  0  0
    6.5672   -7.1460   23.0107 H   0  0  0  0  0  0  0  0  0  0  0  0
    3.3226   -8.3902   23.1052 H   0  0  0  0  0  0  0  0  0  0  0  0
    3.1328   -6.8630   23.9926 H   0  0  0  0  0  0  0  0  0  0  0  0
    1.9649   -8.8369   24.9622 H   0  0  0  0  0  0  0  0  0  0  0  0
    3.5158   -9.5568   25.3859 H   0  0  0  0  0  0  0  0  0  0  0  0
    4.0183   -7.5651   26.8492 H   0  0  0  0  0  0  0  0  0  0  0  0
    2.5473   -8.4138   27.3263 H   0  0  0  0  0  0  0  0  0  0  0  0
    1.3902   -6.7636   26.2637 H   0  0  0  0  0  0  0  0  0  0  0  0
  1  2  1  0
  2  3  1  0
  3  4  1  0
  4  5  1  0
  5  6  1  0
  6  7  1  0
  7  8  1  0
  8  9  1  0
  9 10  1  0
 10 11  2  0
 11 12  1  0
 12 13  2  0
 13 14  1  0
 14 15  1  0
 15 16  2  0
 16 17  1  0
 17 18  2  0
 18 19  1  0
 19 20  2  0
 20 21  1  0
 18 22  1  0
 17 23  1  0
 16 24  1  0
 14 25  2  0
 25 26  1  0
 13 27  1  0
 12 28  1  0
 11 29  1  0
  9 30  1  0
  9 31  1  0
  8 32  1  0
  8 33  1  0
  7 34  1  0
  7 35  1  0
  6 36  1  0
  6 37  1  0
  4 38  1  0
  4 39  1  0
  3 40  1  0
  3 41  1  0
  2 42  1  0
  2 43  1  0
  1 44  1  0
 25 10  1  0
 20 15  1  0
M  CHG  1   8   1
M  END
>  <cnnaffinity>  (1) 
-4.78853

>  <filename>  (1) 
OCCCOCC[NH2+]Cc1cccc(-c2cccnc2)c1

$$$$
