
     RDKit          3D

 42 45  0  0  0  0  0  0  0  0999 V2000
   12.3066    0.3865   23.6139 O   0  0  0  0  0  0  0  0  0  0  0  0
   11.1137   -0.3629   23.4810 C   0  0  0  0  0  0  0  0  0  0  0  0
   11.2366   -1.3373   22.3137 C   0  0  0  0  0  0  0  0  0  0  0  0
   10.0831   -2.3321   22.1534 C   0  0  0  0  0  0  0  0  0  0  0  0
    8.7797   -1.7120   21.9535 N   0  0  0  0  0  0  0  0  0  0  0  0
    8.4916   -1.2314   20.7255 N   0  0  0  0  0  0  0  0  0  0  0  0
    7.3338   -0.6315   20.9100 C   0  0  0  0  0  0  0  0  0  0  0  0
    6.6138    0.0338   19.8394 C   0  0  0  0  0  0  0  0  0  0  0  0
    5.3975    0.6825   20.0737 C   0  0  0  0  0  0  0  0  0  0  0  0
    4.7940    1.3319   19.0010 C   0  0  0  0  0  0  0  0  0  0  0  0
    5.4289    1.3086   17.7515 C   0  0  0  0  0  0  0  0  0  0  0  0
    6.5853    0.6687   17.5183 N   0  0  0  0  0  0  0  0  0  0  0  0
    7.1594    0.0440   18.5501 C   0  0  0  0  0  0  0  0  0  0  0  0
    8.0975   -0.4725   18.3546 H   0  0  0  0  0  0  0  0  0  0  0  0
    4.9928    1.8254   16.8978 H   0  0  0  0  0  0  0  0  0  0  0  0
    3.8612    1.8699   19.1236 H   0  0  0  0  0  0  0  0  0  0  0  0
    4.9646    0.6806   21.0779 H   0  0  0  0  0  0  0  0  0  0  0  0
    6.8636   -0.6796   22.1782 N   0  0  0  0  0  0  0  0  0  0  0  0
    7.7692   -1.4039   22.8056 C   0  0  0  0  0  0  0  0  0  0  0  0
    7.7930   -1.7492   24.2386 C   0  0  0  0  0  0  0  0  0  0  0  0
    7.8877   -0.7246   25.1644 C   0  0  0  0  0  0  0  0  0  0  0  0
    8.0668   -0.9806   26.5403 C   0  0  0  0  0  0  0  0  0  0  0  0
    8.0970   -2.2782   26.9919 C   0  0  0  0  0  0  0  0  0  0  0  0
    7.8840   -3.3584   26.1007 C   0  0  0  0  0  0  0  0  0  0  0  0
    7.7819   -4.7000   26.5549 C   0  0  0  0  0  0  0  0  0  0  0  0
    7.6081   -5.7150   25.6554 C   0  0  0  0  0  0  0  0  0  0  0  0
    7.5219   -5.5244   24.3106 N   0  0  0  0  0  0  0  0  0  0  0  0
    7.5970   -4.2772   23.8705 C   0  0  0  0  0  0  0  0  0  0  0  0
    7.7620   -3.1173   24.6987 C   0  0  0  0  0  0  0  0  0  0  0  0
    7.5314   -4.1265   22.7930 H   0  0  0  0  0  0  0  0  0  0  0  0
    7.5257   -6.7472   25.9983 H   0  0  0  0  0  0  0  0  0  0  0  0
    7.8205   -4.9073   27.6202 H   0  0  0  0  0  0  0  0  0  0  0  0
    8.3069   -2.5103   28.0182 H   0  0  0  0  0  0  0  0  0  0  0  0
    8.1858   -0.1545   27.2342 H   0  0  0  0  0  0  0  0  0  0  0  0
    7.8223    0.3056   24.8297 H   0  0  0  0  0  0  0  0  0  0  0  0
   10.0113   -3.0258   22.9989 H   0  0  0  0  0  0  0  0  0  0  0  0
   10.2345   -2.8963   21.2369 H   0  0  0  0  0  0  0  0  0  0  0  0
   12.1514   -1.9227   22.4503 H   0  0  0  0  0  0  0  0  0  0  0  0
   11.3648   -0.7695   21.3792 H   0  0  0  0  0  0  0  0  0  0  0  0
   10.2297    0.2864   23.3583 H   0  0  0  0  0  0  0  0  0  0  0  0
   10.9692   -0.9004   24.4293 H   0  0  0  0  0  0  0  0  0  0  0  0
   12.4424    0.8628   22.7818 H   0  0  0  0  0  0  0  0  0  0  0  0
  1  2  1  0
  2  3  1  0
  3  4  1  0
  4  5  1  0
  5  6  1  0
  6  7  2  0
  7  8  1  0
  8  9  2  0
  9 10  1  0
 10 11  2  0
 11 12  1  0
 12 13  2  0
 13 14  1  0
 11 15  1  0
 10 16  1  0
  9 17  1  0
  7 18  1  0
 18 19  2  0
 19 20  1  0
 20 21  2  0
 21 22  1  0
 22 23  2  0
 23 24  1  0
 24 25  2  0
 25 26  1  0
 26 27  2  0
 27 28  1  0
 28 29  2  0
 28 30  1  0
 26 31  1  0
 25 32  1  0
 23 33  1  0
 22 34  1  0
 21 35  1  0
  4 36  1  0
  4 37  1  0
  3 38  1  0
  3 39  1  0
  2 40  1  0
  2 41  1  0
  1 42  1  0
 19  5  1  0
 29 20  1  0
 13  8  1  0
 29 24  1  0
M  END
>  <cnnaffinity>  (1) 
-5.8884

>  <filename>  (1) 
OCCCn1nc(-c2cccnc2)nc1-c1cccc2ccncc12

$$$$
