
     RDKit          3D

 44 47  0  0  0  0  0  0  0  0999 V2000
    4.7950   -3.2584   23.1904 O   0  0  0  0  0  0  0  0  0  0  0  0
    5.1284   -3.0531   24.5467 C   0  0  0  0  0  0  0  0  0  0  0  0
    6.6343   -2.9384   24.7497 C   0  0  0  0  0  0  0  0  0  0  0  0
    7.2857   -1.6536   24.2248 C   0  0  0  0  0  0  0  0  0  0  0  0
    7.3708   -1.4930   22.7724 N   0  0  0  0  0  0  0  0  0  0  0  0
    6.4622   -0.7104   22.1325 N   0  0  0  0  0  0  0  0  0  0  0  0
    6.9259   -0.6497   20.8985 C   0  0  0  0  0  0  0  0  0  0  0  0
    6.3087    0.1155   19.8204 C   0  0  0  0  0  0  0  0  0  0  0  0
    5.1227    0.8541   19.9641 C   0  0  0  0  0  0  0  0  0  0  0  0
    4.6498    1.5372   18.8456 C   0  0  0  0  0  0  0  0  0  0  0  0
    5.3611    1.4553   17.6429 C   0  0  0  0  0  0  0  0  0  0  0  0
    6.4967    0.7551   17.5030 N   0  0  0  0  0  0  0  0  0  0  0  0
    6.9594    0.1136   18.5786 C   0  0  0  0  0  0  0  0  0  0  0  0
    7.8969   -0.4273   18.4543 H   0  0  0  0  0  0  0  0  0  0  0  0
    5.0093    1.9729   16.7525 H   0  0  0  0  0  0  0  0  0  0  0  0
    3.7533    2.1447   18.8890 H   0  0  0  0  0  0  0  0  0  0  0  0
    4.5974    0.8946   20.9216 H   0  0  0  0  0  0  0  0  0  0  0  0
    8.0614   -1.3616   20.6982 N   0  0  0  0  0  0  0  0  0  0  0  0
    8.3148   -1.8823   21.8835 C   0  0  0  0  0  0  0  0  0  0  0  0
    9.4958   -2.7768   22.1429 C   0  0  0  0  0  0  0  0  0  0  0  0
   10.6673   -2.1556   22.9775 C   0  0  0  0  0  0  0  0  0  0  0  0
   10.5817   -2.8067   24.3702 C   0  0  0  0  0  0  0  0  0  0  0  0
    9.7277   -4.0143   24.1687 C   0  0  0  0  0  0  0  0  0  0  0  0
    9.1576   -4.0498   22.9047 C   0  0  0  0  0  0  0  0  0  0  0  0
    8.4291   -5.1671   22.4828 C   0  0  0  0  0  0  0  0  0  0  0  0
    8.2337   -6.2178   23.3855 C   0  0  0  0  0  0  0  0  0  0  0  0
    8.7465   -6.1542   24.6927 C   0  0  0  0  0  0  0  0  0  0  0  0
    9.5320   -5.0616   25.0622 C   0  0  0  0  0  0  0  0  0  0  0  0
   10.3307   -5.0490   26.6149 Cl  0  0  0  0  0  0  0  0  0  0  0  0
    8.5728   -6.9244   25.4341 H   0  0  0  0  0  0  0  0  0  0  0  0
    7.6689   -7.0823   23.0544 H   0  0  0  0  0  0  0  0  0  0  0  0
    8.0388   -5.2060   21.4719 H   0  0  0  0  0  0  0  0  0  0  0  0
   10.1644   -2.1376   25.1284 H   0  0  0  0  0  0  0  0  0  0  0  0
   11.5266   -3.1750   24.7590 H   0  0  0  0  0  0  0  0  0  0  0  0
   10.6406   -1.0576   23.0117 H   0  0  0  0  0  0  0  0  0  0  0  0
   11.6224   -2.4318   22.5084 H   0  0  0  0  0  0  0  0  0  0  0  0
    9.8375   -2.9809   21.1288 H   0  0  0  0  0  0  0  0  0  0  0  0
    8.2968   -1.5723   24.6305 H   0  0  0  0  0  0  0  0  0  0  0  0
    6.7248   -0.7840   24.5769 H   0  0  0  0  0  0  0  0  0  0  0  0
    7.0698   -3.8150   24.2738 H   0  0  0  0  0  0  0  0  0  0  0  0
    6.8651   -3.0011   25.8219 H   0  0  0  0  0  0  0  0  0  0  0  0
    4.5953   -2.1835   24.9742 H   0  0  0  0  0  0  0  0  0  0  0  0
    4.7679   -3.9308   25.0993 H   0  0  0  0  0  0  0  0  0  0  0  0
    4.9509   -2.4003   22.7532 H   0  0  0  0  0  0  0  0  0  0  0  0
  1  2  1  0
  2  3  1  0
  3  4  1  0
  4  5  1  0
  5  6  1  0
  6  7  2  0
  7  8  1  0
  8  9  2  0
  9 10  1  0
 10 11  2  0
 11 12  1  0
 12 13  2  0
 13 14  1  0
 11 15  1  0
 10 16  1  0
  9 17  1  0
  7 18  1  0
 18 19  2  0
 19 20  1  0
 20 21  1  0
 21 22  1  0
 22 23  1  0
 23 24  2  0
 24 25  1  0
 25 26  2  0
 26 27  1  0
 27 28  2  0
 28 29  1  0
 27 30  1  0
 26 31  1  0
 25 32  1  0
 22 33  1  0
 22 34  1  0
 21 35  1  0
 21 36  1  0
 20 37  1  0
  4 38  1  0
  4 39  1  0
  3 40  1  0
  3 41  1  0
  2 42  1  0
  2 43  1  0
  1 44  1  0
 19  5  1  0
 24 20  1  0
 13  8  1  0
 28 23  1  0
M  END
>  <cnnaffinity>  (1) 
-6.20158

>  <filename>  (1) 
OCCCn1nc(-c2cccnc2)nc1C1CCc2c(Cl)cccc21

$$$$
