
     RDKit          3D

 43 46  0  0  0  0  0  0  0  0999 V2000
   12.9672    0.2258   25.0608 O   0  0  0  0  0  0  0  0  0  0  0  0
   11.9943    0.9282   24.3202 C   0  0  0  0  0  0  0  0  0  0  0  0
   12.3433    0.9080   22.8328 C   0  0  0  0  0  0  0  0  0  0  0  0
   11.4912    1.8460   21.9724 C   0  0  0  0  0  0  0  0  0  0  0  0
   10.0640    1.5207   21.9728 N   0  0  0  0  0  0  0  0  0  0  0  0
    9.6202    0.5606   21.1227 N   0  0  0  0  0  0  0  0  0  0  0  0
    8.4058    0.3036   21.5680 C   0  0  0  0  0  0  0  0  0  0  0  0
    7.4758   -0.6705   20.8995 C   0  0  0  0  0  0  0  0  0  0  0  0
    6.6708   -0.0428   19.7665 C   0  0  0  0  0  0  0  0  0  0  0  0
    5.4731    0.6248   20.0442 C   0  0  0  0  0  0  0  0  0  0  0  0
    4.8200    1.3105   19.0166 C   0  0  0  0  0  0  0  0  0  0  0  0
    5.3944    1.3013   17.7418 C   0  0  0  0  0  0  0  0  0  0  0  0
    6.5205    0.6388   17.4407 N   0  0  0  0  0  0  0  0  0  0  0  0
    7.1313   -0.0174   18.4364 C   0  0  0  0  0  0  0  0  0  0  0  0
    8.0406   -0.5546   18.1627 H   0  0  0  0  0  0  0  0  0  0  0  0
    4.9310    1.8506   16.9242 H   0  0  0  0  0  0  0  0  0  0  0  0
    3.9021    1.8588   19.1941 H   0  0  0  0  0  0  0  0  0  0  0  0
    5.0682    0.6083   21.0585 H   0  0  0  0  0  0  0  0  0  0  0  0
    8.0681   -1.5169   20.5373 H   0  0  0  0  0  0  0  0  0  0  0  0
    6.8027   -1.0467   21.6794 H   0  0  0  0  0  0  0  0  0  0  0  0
    8.0495    0.9959   22.6725 N   0  0  0  0  0  0  0  0  0  0  0  0
    9.1059    1.7624   22.9026 C   0  0  0  0  0  0  0  0  0  0  0  0
    9.2123    2.7876   23.9594 C   0  0  0  0  0  0  0  0  0  0  0  0
    9.6505    4.0935   23.7113 C   0  0  0  0  0  0  0  0  0  0  0  0
    9.5617    5.0944   24.6956 C   0  0  0  0  0  0  0  0  0  0  0  0
    9.0262    4.8195   25.9449 C   0  0  0  0  0  0  0  0  0  0  0  0
    8.6200    3.5031   26.2526 C   0  0  0  0  0  0  0  0  0  0  0  0
    8.7478    2.4917   25.2653 C   0  0  0  0  0  0  0  0  0  0  0  0
    8.2066    0.9543   25.8724 S   0  0  0  0  0  0  0  0  0  0  0  0
    7.8149    1.6498   27.4077 C   0  0  0  0  0  0  0  0  0  0  0  0
    8.0423    2.9783   27.4690 C   0  0  0  0  0  0  0  0  0  0  0  0
    7.8250    3.5823   28.3458 H   0  0  0  0  0  0  0  0  0  0  0  0
    7.4590    1.0089   28.2035 H   0  0  0  0  0  0  0  0  0  0  0  0
    8.8798    5.6298   26.6559 H   0  0  0  0  0  0  0  0  0  0  0  0
    9.8553    6.1089   24.4461 H   0  0  0  0  0  0  0  0  0  0  0  0
   10.0272    4.3740   22.7321 H   0  0  0  0  0  0  0  0  0  0  0  0
   11.8001    1.8105   20.9260 H   0  0  0  0  0  0  0  0  0  0  0  0
   11.6134    2.8739   22.3212 H   0  0  0  0  0  0  0  0  0  0  0  0
   12.2764   -0.1202   22.4614 H   0  0  0  0  0  0  0  0  0  0  0  0
   13.3935    1.2113   22.7194 H   0  0  0  0  0  0  0  0  0  0  0  0
   11.0388    0.4290   24.5096 H   0  0  0  0  0  0  0  0  0  0  0  0
   11.8846    1.9649   24.6890 H   0  0  0  0  0  0  0  0  0  0  0  0
   13.8255    0.5737   24.7970 H   0  0  0  0  0  0  0  0  0  0  0  0
  1  2  1  0
  2  3  1  0
  3  4  1  0
  4  5  1  0
  5  6  1  0
  6  7  2  0
  7  8  1  0
  8  9  1  0
  9 10  2  0
 10 11  1  0
 11 12  2  0
 12 13  1  0
 13 14  2  0
 14 15  1  0
 12 16  1  0
 11 17  1  0
 10 18  1  0
  8 19  1  0
  8 20  1  0
  7 21  1  0
 21 22  2  0
 22 23  1  0
 23 24  2  0
 24 25  1  0
 25 26  2  0
 26 27  1  0
 27 28  2  0
 28 29  1  0
 29 30  1  0
 30 31  2  0
 31 32  1  0
 30 33  1  0
 26 34  1  0
 25 35  1  0
 24 36  1  0
  4 37  1  0
  4 38  1  0
  3 39  1  0
  3 40  1  0
  2 41  1  0
  2 42  1  0
  1 43  1  0
 22  5  1  0
 28 23  1  0
 14  9  1  0
 31 27  1  0
M  END
>  <cnnaffinity>  (1) 
-5.55977

>  <filename>  (1) 
OCCCn1nc(Cc2cccnc2)nc1-c1cccc2ccsc12

$$$$
