
     RDKit          3D

 45 48  0  0  0  0  0  0  0  0999 V2000
   13.7683   -0.0981   22.9183 O   0  0  0  0  0  0  0  0  0  0  0  0
   12.5336    0.5587   22.6873 C   0  0  0  0  0  0  0  0  0  0  0  0
   11.4892   -0.3299   22.0105 C   0  0  0  0  0  0  0  0  0  0  0  0
   11.1231   -1.5705   22.8338 C   0  0  0  0  0  0  0  0  0  0  0  0
   10.0599   -2.4646   22.2022 C   0  0  0  0  0  0  0  0  0  0  0  0
    8.7737   -1.8346   21.9674 N   0  0  0  0  0  0  0  0  0  0  0  0
    8.4694   -1.3566   20.7423 N   0  0  0  0  0  0  0  0  0  0  0  0
    7.3629   -0.6751   20.9616 C   0  0  0  0  0  0  0  0  0  0  0  0
    6.6465    0.0157   19.9051 C   0  0  0  0  0  0  0  0  0  0  0  0
    5.4285    0.6580   20.1596 C   0  0  0  0  0  0  0  0  0  0  0  0
    4.8044    1.3054   19.0995 C   0  0  0  0  0  0  0  0  0  0  0  0
    5.4171    1.2806   17.8408 C   0  0  0  0  0  0  0  0  0  0  0  0
    6.5781    0.6579   17.5902 N   0  0  0  0  0  0  0  0  0  0  0  0
    7.1820    0.0435   18.6100 C   0  0  0  0  0  0  0  0  0  0  0  0
    8.1320   -0.4397   18.3827 H   0  0  0  0  0  0  0  0  0  0  0  0
    4.9564    1.7855   16.9961 H   0  0  0  0  0  0  0  0  0  0  0  0
    3.8721    1.8404   19.2384 H   0  0  0  0  0  0  0  0  0  0  0  0
    5.0013    0.6464   21.1656 H   0  0  0  0  0  0  0  0  0  0  0  0
    6.9495   -0.6628   22.2535 N   0  0  0  0  0  0  0  0  0  0  0  0
    7.8283   -1.4387   22.8484 C   0  0  0  0  0  0  0  0  0  0  0  0
    7.8494   -1.7941   24.2574 C   0  0  0  0  0  0  0  0  0  0  0  0
    8.0181   -0.7779   25.1647 C   0  0  0  0  0  0  0  0  0  0  0  0
    8.1014   -0.9796   26.4953 N   0  0  0  0  0  0  0  0  0  0  0  0
    7.9913   -2.2126   26.9544 C   0  0  0  0  0  0  0  0  0  0  0  0
    7.7806   -3.3515   26.1275 C   0  0  0  0  0  0  0  0  0  0  0  0
    7.6176   -4.6810   26.6163 C   0  0  0  0  0  0  0  0  0  0  0  0
    7.6568   -4.9656   28.3277 Cl  0  0  0  0  0  0  0  0  0  0  0  0
    7.4085   -5.7444   25.7686 C   0  0  0  0  0  0  0  0  0  0  0  0
    7.3387   -5.5290   24.3701 C   0  0  0  0  0  0  0  0  0  0  0  0
    7.4847   -4.2559   23.8568 C   0  0  0  0  0  0  0  0  0  0  0  0
    7.7122   -3.1433   24.7185 C   0  0  0  0  0  0  0  0  0  0  0  0
    7.4231   -4.0724   22.7902 H   0  0  0  0  0  0  0  0  0  0  0  0
    7.1640   -6.3629   23.6961 H   0  0  0  0  0  0  0  0  0  0  0  0
    7.2929   -6.7323   26.2027 H   0  0  0  0  0  0  0  0  0  0  0  0
    8.0757   -2.3260   28.0249 H   0  0  0  0  0  0  0  0  0  0  0  0
    8.1203    0.2581   24.8374 H   0  0  0  0  0  0  0  0  0  0  0  0
    9.9018   -3.3386   22.8465 H   0  0  0  0  0  0  0  0  0  0  0  0
   10.3790   -2.7737   21.2073 H   0  0  0  0  0  0  0  0  0  0  0  0
   12.0141   -2.2060   22.8787 H   0  0  0  0  0  0  0  0  0  0  0  0
   10.8416   -1.3087   23.8697 H   0  0  0  0  0  0  0  0  0  0  0  0
   11.8735   -0.6680   21.0345 H   0  0  0  0  0  0  0  0  0  0  0  0
   10.6101    0.2852   21.7847 H   0  0  0  0  0  0  0  0  0  0  0  0
   12.6717    1.4804   22.0980 H   0  0  0  0  0  0  0  0  0  0  0  0
   12.1812    0.8628   23.6829 H   0  0  0  0  0  0  0  0  0  0  0  0
   14.1909   -0.2579   22.0660 H   0  0  0  0  0  0  0  0  0  0  0  0
  1  2  1  0
  2  3  1  0
  3  4  1  0
  4  5  1  0
  5  6  1  0
  6  7  1  0
  7  8  2  0
  8  9  1  0
  9 10  2  0
 10 11  1  0
 11 12  2  0
 12 13  1  0
 13 14  2  0
 14 15  1  0
 12 16  1  0
 11 17  1  0
 10 18  1  0
  8 19  1  0
 19 20  2  0
 20 21  1  0
 21 22  2  0
 22 23  1  0
 23 24  2  0
 24 25  1  0
 25 26  2  0
 26 27  1  0
 26 28  1  0
 28 29  2  0
 29 30  1  0
 30 31  2  0
 30 32  1  0
 29 33  1  0
 28 34  1  0
 24 35  1  0
 22 36  1  0
  5 37  1  0
  5 38  1  0
  4 39  1  0
  4 40  1  0
  3 41  1  0
  3 42  1  0
  2 43  1  0
  2 44  1  0
  1 45  1  0
 20  6  1  0
 31 21  1  0
 14  9  1  0
 31 25  1  0
M  END
>  <cnnaffinity>  (1) 
-6.32569

>  <filename>  (1) 
OCCCCn1nc(-c2cccnc2)nc1-c1cncc2c(Cl)cccc12

$$$$
