
     RDKit          3D

 42 45  0  0  0  0  0  0  0  0999 V2000
   11.0472    0.5372   21.8956 O   0  0  0  0  0  0  0  0  0  0  0  0
   11.8242   -0.5325   22.3717 C   0  0  0  0  0  0  0  0  0  0  0  0
   11.2765   -1.8860   21.9499 C   0  0  0  0  0  0  0  0  0  0  0  0
    9.9455   -2.3392   22.5469 C   0  0  0  0  0  0  0  0  0  0  0  0
    8.7904   -1.4778   22.2532 N   0  0  0  0  0  0  0  0  0  0  0  0
    8.5313   -1.0554   20.9848 N   0  0  0  0  0  0  0  0  0  0  0  0
    7.2870   -0.6112   21.0588 C   0  0  0  0  0  0  0  0  0  0  0  0
    6.5866    0.0275   19.9343 C   0  0  0  0  0  0  0  0  0  0  0  0
    5.3572    0.6946   20.0900 C   0  0  0  0  0  0  0  0  0  0  0  0
    4.8050    1.3368   18.9854 C   0  0  0  0  0  0  0  0  0  0  0  0
    5.4796    1.2771   17.7611 C   0  0  0  0  0  0  0  0  0  0  0  0
    6.6343    0.6147   17.5932 N   0  0  0  0  0  0  0  0  0  0  0  0
    7.1710    0.0106   18.6583 C   0  0  0  0  0  0  0  0  0  0  0  0
    8.1088   -0.5120   18.4738 H   0  0  0  0  0  0  0  0  0  0  0  0
    5.0741    1.7697   16.8791 H   0  0  0  0  0  0  0  0  0  0  0  0
    3.8696    1.8828   19.0524 H   0  0  0  0  0  0  0  0  0  0  0  0
    4.8548    0.7083   21.0597 H   0  0  0  0  0  0  0  0  0  0  0  0
    6.7094   -0.7759   22.2771 N   0  0  0  0  0  0  0  0  0  0  0  0
    7.6607   -1.3354   22.9936 C   0  0  0  0  0  0  0  0  0  0  0  0
    7.6027   -1.7618   24.4345 C   0  0  0  0  0  0  0  0  0  0  0  0
    8.6655   -1.0556   25.3206 C   0  0  0  0  0  0  0  0  0  0  0  0
    9.0220   -2.1655   26.7222 S   0  0  0  0  0  0  0  0  0  0  0  0
    8.5605   -3.5790   25.7856 C   0  0  0  0  0  0  0  0  0  0  0  0
    8.9273   -4.8972   26.0735 C   0  0  0  0  0  0  0  0  0  0  0  0
    8.4907   -5.9176   25.2256 C   0  0  0  0  0  0  0  0  0  0  0  0
    7.7162   -5.6193   24.0939 C   0  0  0  0  0  0  0  0  0  0  0  0
    7.3824   -4.2893   23.8030 C   0  0  0  0  0  0  0  0  0  0  0  0
    7.8147   -3.2600   24.6473 C   0  0  0  0  0  0  0  0  0  0  0  0
    6.7965   -4.0379   22.9216 H   0  0  0  0  0  0  0  0  0  0  0  0
    7.3704   -6.4155   23.4400 H   0  0  0  0  0  0  0  0  0  0  0  0
    8.7703   -6.9393   25.4638 H   0  0  0  0  0  0  0  0  0  0  0  0
    9.5634   -5.1115   26.9282 H   0  0  0  0  0  0  0  0  0  0  0  0
    8.3349   -0.0857   25.6996 H   0  0  0  0  0  0  0  0  0  0  0  0
    9.5995   -0.8969   24.7714 H   0  0  0  0  0  0  0  0  0  0  0  0
    6.6022   -1.5024   24.8001 H   0  0  0  0  0  0  0  0  0  0  0  0
    9.6918   -3.3406   22.1952 H   0  0  0  0  0  0  0  0  0  0  0  0
   10.0485   -2.4350   23.6273 H   0  0  0  0  0  0  0  0  0  0  0  0
   12.0151   -2.6408   22.2341 H   0  0  0  0  0  0  0  0  0  0  0  0
   11.2049   -1.9207   20.8615 H   0  0  0  0  0  0  0  0  0  0  0  0
   11.9457   -0.4782   23.4713 H   0  0  0  0  0  0  0  0  0  0  0  0
   12.8243   -0.4294   21.9309 H   0  0  0  0  0  0  0  0  0  0  0  0
   10.1314    0.2272   21.9284 H   0  0  0  0  0  0  0  0  0  0  0  0
  1  2  1  0
  2  3  1  0
  3  4  1  0
  4  5  1  0
  5  6  1  0
  6  7  2  0
  7  8  1  0
  8  9  2  0
  9 10  1  0
 10 11  2  0
 11 12  1  0
 12 13  2  0
 13 14  1  0
 11 15  1  0
 10 16  1  0
  9 17  1  0
  7 18  1  0
 18 19  2  0
 19 20  1  0
 20 21  1  0
 21 22  1  0
 22 23  1  0
 23 24  2  0
 24 25  1  0
 25 26  2  0
 26 27  1  0
 27 28  2  0
 27 29  1  0
 26 30  1  0
 25 31  1  0
 24 32  1  0
 21 33  1  0
 21 34  1  0
 20 35  1  0
  4 36  1  0
  4 37  1  0
  3 38  1  0
  3 39  1  0
  2 40  1  0
  2 41  1  0
  1 42  1  0
 19  5  1  0
 28 20  1  0
 13  8  1  0
 28 23  1  0
M  END
>  <cnnaffinity>  (1) 
-5.7621

>  <filename>  (1) 
OCCCn1nc(-c2cccnc2)nc1C1CSc2ccccc21

$$$$
