
     RDKit          3D

 42 44  0  0  0  0  0  0  0  0999 V2000
    7.6143    7.7839   25.4711 H   0  0  0  0  0  0  0  0  0  0  0  0
    7.9696    6.9013   25.3120 O   0  0  0  0  0  0  0  0  0  0  0  0
    7.0365    6.1744   24.5165 C   0  0  0  0  0  0  0  0  0  0  0  0
    6.6990    6.7620   23.6521 H   0  0  0  0  0  0  0  0  0  0  0  0
    6.1424    5.9036   25.1023 H   0  0  0  0  0  0  0  0  0  0  0  0
    7.7134    4.8946   24.0068 C   0  0  0  0  0  0  0  0  0  0  0  0
    8.6259    5.1930   23.4769 H   0  0  0  0  0  0  0  0  0  0  0  0
    8.0281    4.2905   24.8707 H   0  0  0  0  0  0  0  0  0  0  0  0
    6.8378    4.1410   23.1023 N   0  0  0  0  0  0  0  0  0  0  0  0
    7.4250    3.6206   21.8565 C   0  0  0  0  0  0  0  0  0  0  0  0
    8.1202    4.3585   21.4404 H   0  0  0  0  0  0  0  0  0  0  0  0
    6.6154    3.5008   21.1214 H   0  0  0  0  0  0  0  0  0  0  0  0
    8.1380    2.2606   21.9773 C   0  0  0  0  0  0  0  0  0  0  0  0
    8.4525    1.9223   20.9831 H   0  0  0  0  0  0  0  0  0  0  0  0
    9.0461    2.3824   22.5990 H   0  0  0  0  0  0  0  0  0  0  0  0
    7.2219    1.2711   22.5619 N   0  0  0  0  0  0  0  0  0  0  0  0
    7.5653   -0.0920   22.3352 C   0  0  0  0  0  0  0  0  0  0  0  0
    8.3303   -0.8025   23.2752 C   0  0  0  0  0  0  0  0  0  0  0  0
    8.6469   -0.2823   24.1765 H   0  0  0  0  0  0  0  0  0  0  0  0
    8.6506   -2.1463   23.0719 C   0  0  0  0  0  0  0  0  0  0  0  0
    9.2663   -2.6706   23.8009 H   0  0  0  0  0  0  0  0  0  0  0  0
    8.1767   -2.8135   21.9366 C   0  0  0  0  0  0  0  0  0  0  0  0
    8.3852   -3.8720   21.8009 H   0  0  0  0  0  0  0  0  0  0  0  0
    7.4617   -2.0964   20.9721 C   0  0  0  0  0  0  0  0  0  0  0  0
    7.0770   -2.5924   20.0874 H   0  0  0  0  0  0  0  0  0  0  0  0
    7.2096   -0.7194   21.1116 C   0  0  0  0  0  0  0  0  0  0  0  0
    6.5835    0.0350   19.9778 C   0  0  0  0  0  0  0  0  0  0  0  0
    7.1354   -0.0132   18.6799 C   0  0  0  0  0  0  0  0  0  0  0  0
    8.0637   -0.5598   18.4967 H   0  0  0  0  0  0  0  0  0  0  0  0
    6.6078    0.5988   17.6130 N   0  0  0  0  0  0  0  0  0  0  0  0
    5.4733    1.2901   17.7978 C   0  0  0  0  0  0  0  0  0  0  0  0
    5.0631    1.7762   16.9151 H   0  0  0  0  0  0  0  0  0  0  0  0
    4.8414    1.4121   19.0387 C   0  0  0  0  0  0  0  0  0  0  0  0
    3.9285    1.9911   19.1202 H   0  0  0  0  0  0  0  0  0  0  0  0
    5.4210    0.8023   20.1505 C   0  0  0  0  0  0  0  0  0  0  0  0
    4.9823    0.8999   21.1441 H   0  0  0  0  0  0  0  0  0  0  0  0
    6.7658    1.7204   23.8849 C   0  0  0  0  0  0  0  0  0  0  0  0
    7.5991    1.8353   24.6084 H   0  0  0  0  0  0  0  0  0  0  0  0
    6.0681    0.9815   24.2897 H   0  0  0  0  0  0  0  0  0  0  0  0
    6.0290    3.0729   23.7101 C   0  0  0  0  0  0  0  0  0  0  0  0
    5.1952    2.8861   23.0214 H   0  0  0  0  0  0  0  0  0  0  0  0
    5.5940    3.4182   24.6567 H   0  0  0  0  0  0  0  0  0  0  0  0
  1  2  1  0
  2  3  1  0
  3  4  1  0
  3  5  1  0
  3  6  1  0
  6  7  1  0
  6  8  1  0
  6  9  1  0
  9 10  1  0
 10 11  1  0
 10 12  1  0
 10 13  1  0
 13 14  1  0
 13 15  1  0
 13 16  1  0
 16 17  1  0
 17 18  2  0
 18 19  1  0
 18 20  1  0
 20 21  1  0
 20 22  2  0
 22 23  1  0
 22 24  1  0
 24 25  1  0
 24 26  2  0
 26 27  1  0
 27 28  2  0
 28 29  1  0
 28 30  1  0
 30 31  2  0
 31 32  1  0
 31 33  1  0
 33 34  1  0
 33 35  2  0
 35 36  1  0
 16 37  1  0
 37 38  1  0
 37 39  1  0
 37 40  1  0
 40 41  1  0
 40 42  1  0
 40  9  1  0
 26 17  1  0
 35 27  1  0
M  END
>  <cnnaffinity>  (1) 
-4.63926

>  <filename>  (1) 
OCCN1CCN(c2ccccc2-c2cccnc2)CC1

$$$$
