
     RDKit          3D

 26 28  0  0  0  0  0  0  0  0999 V2000
    7.2683   -2.5695   20.7869 H   0  0  0  0  0  0  0  0  0  0  0  0
    7.9344   -1.8775   20.6087 O   0  0  0  0  0  0  0  0  0  0  0  0
    7.3312   -0.6821   20.9565 N   0  0  0  0  0  0  0  0  0  0  0  0
    7.5049   -0.1218   22.2101 C   0  0  0  0  0  0  0  0  0  0  0  0
    7.1828    1.0906   22.5350 N   0  0  0  0  0  0  0  0  0  0  0  0
    7.5300    1.1631   23.8777 C   0  0  0  0  0  0  0  0  0  0  0  0
    7.4302    2.2164   24.7912 C   0  0  0  0  0  0  0  0  0  0  0  0
    7.0290    3.1670   24.4544 H   0  0  0  0  0  0  0  0  0  0  0  0
    7.8584    1.9884   26.1013 C   0  0  0  0  0  0  0  0  0  0  0  0
    7.7899    2.7948   26.8224 H   0  0  0  0  0  0  0  0  0  0  0  0
    8.3718    0.7345   26.4868 C   0  0  0  0  0  0  0  0  0  0  0  0
    8.6988    0.5797   27.5094 H   0  0  0  0  0  0  0  0  0  0  0  0
    8.4714   -0.3252   25.5740 C   0  0  0  0  0  0  0  0  0  0  0  0
    8.8628   -1.2989   25.8441 H   0  0  0  0  0  0  0  0  0  0  0  0
    8.0404   -0.0754   24.2800 C   0  0  0  0  0  0  0  0  0  0  0  0
    8.0186   -0.9105   23.1924 O   0  0  0  0  0  0  0  0  0  0  0  0
    6.6655    0.0081   19.9094 C   0  0  0  0  0  0  0  0  0  0  0  0
    7.1857    0.0507   18.5961 C   0  0  0  0  0  0  0  0  0  0  0  0
    8.1344   -0.4405   18.3813 H   0  0  0  0  0  0  0  0  0  0  0  0
    6.5714    0.6803   17.5876 N   0  0  0  0  0  0  0  0  0  0  0  0
    5.4000    1.2916   17.8456 C   0  0  0  0  0  0  0  0  0  0  0  0
    4.9058    1.7723   17.0051 H   0  0  0  0  0  0  0  0  0  0  0  0
    4.8049    1.3076   19.1101 C   0  0  0  0  0  0  0  0  0  0  0  0
    3.8730    1.8446   19.2685 H   0  0  0  0  0  0  0  0  0  0  0  0
    5.4433    0.6497   20.1613 C   0  0  0  0  0  0  0  0  0  0  0  0
    5.0133    0.6302   21.1605 H   0  0  0  0  0  0  0  0  0  0  0  0
  1  2  1  0
  2  3  1  0
  3  4  1  0
  4  5  2  0
  5  6  1  0
  6  7  2  0
  7  8  1  0
  7  9  1  0
  9 10  1  0
  9 11  2  0
 11 12  1  0
 11 13  1  0
 13 14  1  0
 13 15  2  0
 15 16  1  0
  3 17  1  0
 17 18  2  0
 18 19  1  0
 18 20  1  0
 20 21  2  0
 21 22  1  0
 21 23  1  0
 23 24  1  0
 23 25  2  0
 25 26  1  0
 16  4  1  0
 25 17  1  0
 15  6  1  0
M  END
>  <cnnaffinity>  (1) 
-4.73772

>  <filename>  (1) 
ON(c1cccnc1)c1nc2ccccc2o1

$$$$
