
     RDKit          3D

 25 26  0  0  0  0  0  0  0  0999 V2000
    7.7632   -2.1979   20.5985 H   0  0  0  0  0  0  0  0  0  0  0  0
    8.4036   -1.4761   20.5135 O   0  0  0  0  0  0  0  0  0  0  0  0
    7.6515   -0.3968   21.0159 N   0  0  0  0  0  0  0  0  0  0  0  0
    6.8840   -0.9809   22.0380 O   0  0  0  0  0  0  0  0  0  0  0  0
    7.5655   -1.1006   23.2576 C   0  0  0  0  0  0  0  0  0  0  0  0
    6.8516   -1.7178   24.2884 C   0  0  0  0  0  0  0  0  0  0  0  0
    5.8214   -2.0283   24.1427 H   0  0  0  0  0  0  0  0  0  0  0  0
    7.5047   -1.9429   25.5060 C   0  0  0  0  0  0  0  0  0  0  0  0
    6.9728   -2.4248   26.3227 H   0  0  0  0  0  0  0  0  0  0  0  0
    8.8365   -1.5538   25.6932 C   0  0  0  0  0  0  0  0  0  0  0  0
    9.3470   -1.7048   26.6363 H   0  0  0  0  0  0  0  0  0  0  0  0
    9.5115   -0.9197   24.6485 C   0  0  0  0  0  0  0  0  0  0  0  0
   11.1526   -0.3917   24.8708 Cl  0  0  0  0  0  0  0  0  0  0  0  0
    8.8880   -0.6753   23.4259 C   0  0  0  0  0  0  0  0  0  0  0  0
    9.4083   -0.1738   22.6201 H   0  0  0  0  0  0  0  0  0  0  0  0
    6.7849    0.0991   19.9667 C   0  0  0  0  0  0  0  0  0  0  0  0
    7.2464    0.0828   18.6348 C   0  0  0  0  0  0  0  0  0  0  0  0
    8.1771   -0.4237   18.3914 H   0  0  0  0  0  0  0  0  0  0  0  0
    6.5881    0.6388   17.6144 N   0  0  0  0  0  0  0  0  0  0  0  0
    5.4160    1.2363   17.8838 C   0  0  0  0  0  0  0  0  0  0  0  0
    4.9229    1.6994   17.0329 H   0  0  0  0  0  0  0  0  0  0  0  0
    4.8440    1.2626   19.1620 C   0  0  0  0  0  0  0  0  0  0  0  0
    3.8821    1.7477   19.2975 H   0  0  0  0  0  0  0  0  0  0  0  0
    5.5304    0.6763   20.2310 C   0  0  0  0  0  0  0  0  0  0  0  0
    5.1102    0.6261   21.2362 H   0  0  0  0  0  0  0  0  0  0  0  0
  1  2  1  0
  2  3  1  0
  3  4  1  0
  4  5  1  0
  5  6  2  0
  6  7  1  0
  6  8  1  0
  8  9  1  0
  8 10  2  0
 10 11  1  0
 10 12  1  0
 12 13  1  0
 12 14  2  0
 14 15  1  0
  3 16  1  0
 16 17  2  0
 17 18  1  0
 17 19  1  0
 19 20  2  0
 20 21  1  0
 20 22  1  0
 22 23  1  0
 22 24  2  0
 24 25  1  0
 14  5  1  0
 24 16  1  0
M  END
>  <cnnaffinity>  (1) 
-4.80509

>  <filename>  (1) 
ON(Oc1cccc(Cl)c1)c1cccnc1

$$$$
