
     RDKit          3D

 28 29  0  0  0  0  0  0  0  0999 V2000
    5.1140    1.7620   17.0209 H   0  0  0  0  0  0  0  0  0  0  0  0
    5.5146    1.2607   17.8995 C   0  0  0  0  0  0  0  0  0  0  0  0
    6.6509    0.5682   17.7196 N   0  0  0  0  0  0  0  0  0  0  0  0
    7.1642   -0.0565   18.7782 C   0  0  0  0  0  0  0  0  0  0  0  0
    8.0747   -0.6332   18.6046 H   0  0  0  0  0  0  0  0  0  0  0  0
    6.6058   -0.0109   20.0694 C   0  0  0  0  0  0  0  0  0  0  0  0
    7.2584   -0.7660   21.1691 C   0  0  0  0  0  0  0  0  0  0  0  0
    7.8169   -2.2776   20.9486 S   0  0  0  0  0  0  0  0  0  0  0  0
    7.4453   -0.0894   22.5083 C   0  0  0  0  0  0  0  0  0  0  0  0
    6.6096    0.5895   22.7096 H   0  0  0  0  0  0  0  0  0  0  0  0
    7.4163   -0.8772   23.2644 H   0  0  0  0  0  0  0  0  0  0  0  0
    8.7590    0.7238   22.6258 C   0  0  1  0  0  0  0  0  0  0  0  0
    8.9078    0.9324   23.6980 H   0  0  0  0  0  0  0  0  0  0  0  0
   10.0717    0.1116   22.0943 C   0  0  0  0  0  0  0  0  0  0  0  0
   10.4396   -0.7716   22.6235 H   0  0  0  0  0  0  0  0  0  0  0  0
    9.9332   -0.1919   21.0490 H   0  0  0  0  0  0  0  0  0  0  0  0
   11.0351    1.2116   22.1177 N   0  0  0  0  0  0  0  0  0  0  0  0
   11.3999    1.3090   23.0600 H   0  0  0  0  0  0  0  0  0  0  0  0
   10.2679    2.4271   21.7732 C   0  0  0  0  0  0  0  0  0  0  0  0
   10.5385    2.7771   20.7699 H   0  0  0  0  0  0  0  0  0  0  0  0
   10.5186    3.2345   22.4669 H   0  0  0  0  0  0  0  0  0  0  0  0
    8.7683    2.0464   21.8409 C   0  0  0  0  0  0  0  0  0  0  0  0
    8.4034    1.8541   20.8247 H   0  0  0  0  0  0  0  0  0  0  0  0
    8.1339    2.8261   22.2792 H   0  0  0  0  0  0  0  0  0  0  0  0
    5.4180    0.7226   20.2399 C   0  0  0  0  0  0  0  0  0  0  0  0
    4.9408    0.7768   21.2195 H   0  0  0  0  0  0  0  0  0  0  0  0
    4.8525    1.3503   19.1292 C   0  0  0  0  0  0  0  0  0  0  0  0
    3.9261    1.9109   19.2050 H   0  0  0  0  0  0  0  0  0  0  0  0
  1  2  1  0
  2  3  2  0
  3  4  1  0
  4  5  1  0
  4  6  2  0
  6  7  1  0
  7  8  2  0
  7  9  1  0
  9 10  1  0
  9 11  1  0
  9 12  1  0
 12 13  1  1
 12 14  1  0
 14 15  1  0
 14 16  1  0
 14 17  1  0
 17 18  1  0
 17 19  1  0
 19 20  1  0
 19 21  1  0
 19 22  1  0
 22 23  1  0
 22 24  1  0
  6 25  1  0
 25 26  1  0
 25 27  2  0
 27 28  1  0
 27  2  1  0
 22 12  1  0
M  END
>  <cnnaffinity>  (1) 
-4.6415

>  <filename>  (1) 
S=C(C[C@@H]1CCNC1)c1cccnc1

$$$$
