
     RDKit          3D

 31 33  0  0  0  0  0  0  0  0999 V2000
    5.1120    1.7814   16.9714 H   0  0  0  0  0  0  0  0  0  0  0  0
    5.4970    1.2653   17.8469 C   0  0  0  0  0  0  0  0  0  0  0  0
    6.6269    0.5606   17.6678 N   0  0  0  0  0  0  0  0  0  0  0  0
    7.1295   -0.0830   18.7245 C   0  0  0  0  0  0  0  0  0  0  0  0
    8.0478   -0.6487   18.5522 H   0  0  0  0  0  0  0  0  0  0  0  0
    6.5455   -0.0399   20.0057 C   0  0  0  0  0  0  0  0  0  0  0  0
    7.1669   -0.7411   21.1526 C   0  0  0  0  0  0  0  0  0  0  0  0
    7.7701   -2.2441   21.0144 S   0  0  0  0  0  0  0  0  0  0  0  0
    7.1920   -0.0187   22.5070 C   0  0  0  0  0  0  0  0  0  0  0  0
    7.8051   -0.6280   23.1845 H   0  0  0  0  0  0  0  0  0  0  0  0
    6.1745   -0.0748   22.9190 H   0  0  0  0  0  0  0  0  0  0  0  0
    7.7208    1.4131   22.4790 C   0  0  0  0  0  0  0  0  0  0  0  0
    6.9220    2.5230   22.6718 C   0  0  0  0  0  0  0  0  0  0  0  0
    5.8433    2.4268   22.7899 H   0  0  0  0  0  0  0  0  0  0  0  0
    7.3689    3.8104   22.7579 N   0  0  0  0  0  0  0  0  0  0  0  0
    8.6624    4.0188   22.6385 C   0  0  0  0  0  0  0  0  0  0  0  0
    9.0024    5.0538   22.6976 H   0  0  0  0  0  0  0  0  0  0  0  0
    9.6190    2.9825   22.4129 C   0  0  0  0  0  0  0  0  0  0  0  0
   11.0174    3.2380   22.2901 C   0  0  0  0  0  0  0  0  0  0  0  0
   11.3702    4.2617   22.3902 H   0  0  0  0  0  0  0  0  0  0  0  0
   11.8967    2.2177   22.0200 C   0  0  0  0  0  0  0  0  0  0  0  0
   12.9646    2.4084   21.9800 H   0  0  0  0  0  0  0  0  0  0  0  0
   11.4080    0.9013   21.8180 C   0  0  0  0  0  0  0  0  0  0  0  0
   12.0894    0.1012   21.5574 H   0  0  0  0  0  0  0  0  0  0  0  0
   10.0680    0.6210   21.9598 C   0  0  0  0  0  0  0  0  0  0  0  0
    9.7229   -0.3969   21.8233 H   0  0  0  0  0  0  0  0  0  0  0  0
    9.1286    1.6480   22.2835 C   0  0  0  0  0  0  0  0  0  0  0  0
    5.3506    0.6782   20.1638 C   0  0  0  0  0  0  0  0  0  0  0  0
    4.8547    0.7091   21.1344 H   0  0  0  0  0  0  0  0  0  0  0  0
    4.8106    1.3352   19.0617 C   0  0  0  0  0  0  0  0  0  0  0  0
    3.8832    1.8943   19.1322 H   0  0  0  0  0  0  0  0  0  0  0  0
  1  2  1  0
  2  3  2  0
  3  4  1  0
  4  5  1  0
  4  6  2  0
  6  7  1  0
  7  8  2  0
  7  9  1  0
  9 10  1  0
  9 11  1  0
  9 12  1  0
 12 13  2  0
 13 14  1  0
 13 15  1  0
 15 16  2  0
 16 17  1  0
 16 18  1  0
 18 19  2  0
 19 20  1  0
 19 21  1  0
 21 22  1  0
 21 23  2  0
 23 24  1  0
 23 25  1  0
 25 26  1  0
 25 27  2  0
  6 28  1  0
 28 29  1  0
 28 30  2  0
 30 31  1  0
 30  2  1  0
 27 12  1  0
 27 18  1  0
M  END
>  <cnnaffinity>  (1) 
-5.33017

>  <filename>  (1) 
S=C(Cc1cncc2ccccc12)c1cccnc1

$$$$
