
     RDKit          3D

 33 35  0  0  0  0  0  0  0  0999 V2000
    9.7072    0.7445   20.6715 S   0  0  0  0  0  0  0  0  0  0  0  0
    8.6750   -0.3832   21.2945 C   0  0  0  0  0  0  0  0  0  0  0  0
    7.4319   -0.6759   20.8476 N   0  0  0  0  0  0  0  0  0  0  0  0
    6.7280   -0.0322   19.7907 C   0  0  0  0  0  0  0  0  0  0  0  0
    5.5167    0.5937   20.0882 C   0  0  0  0  0  0  0  0  0  0  0  0
    4.8437    1.2736   19.0672 C   0  0  0  0  0  0  0  0  0  0  0  0
    5.4023    1.2848   17.7842 C   0  0  0  0  0  0  0  0  0  0  0  0
    6.5581    0.6717   17.4773 N   0  0  0  0  0  0  0  0  0  0  0  0
    7.2040    0.0329   18.4595 C   0  0  0  0  0  0  0  0  0  0  0  0
    8.1438   -0.4526   18.2025 H   0  0  0  0  0  0  0  0  0  0  0  0
    4.9081    1.8055   16.9680 H   0  0  0  0  0  0  0  0  0  0  0  0
    3.9151    1.8008   19.2586 H   0  0  0  0  0  0  0  0  0  0  0  0
    5.1498    0.5689   21.1160 H   0  0  0  0  0  0  0  0  0  0  0  0
    6.9226   -1.2749   21.4807 H   0  0  0  0  0  0  0  0  0  0  0  0
    9.0677   -1.1504   22.3621 N   0  0  0  0  0  0  0  0  0  0  0  0
    8.3028   -1.6086   23.4657 C   0  0  0  0  0  0  0  0  0  0  0  0
    8.6258   -2.6940   24.2217 C   0  0  0  0  0  0  0  0  0  0  0  0
    7.7141   -2.7778   25.2406 N   0  0  0  0  0  0  0  0  0  0  0  0
    7.7519   -3.7352   26.3168 C   0  0  0  0  0  0  0  0  0  0  0  0
    8.9938   -4.1815   26.8162 C   0  0  0  0  0  0  0  0  0  0  0  0
    9.0004   -5.1465   27.8221 C   0  0  0  0  0  0  0  0  0  0  0  0
    7.7765   -5.6076   28.3141 C   0  0  0  0  0  0  0  0  0  0  0  0
    6.6052   -5.0994   27.7505 C   0  0  0  0  0  0  0  0  0  0  0  0
    6.5841   -4.1892   26.7737 N   0  0  0  0  0  0  0  0  0  0  0  0
    5.6295   -5.4288   28.0944 H   0  0  0  0  0  0  0  0  0  0  0  0
    7.7040   -6.3183   29.1308 H   0  0  0  0  0  0  0  0  0  0  0  0
    9.9482   -5.5323   28.2023 H   0  0  0  0  0  0  0  0  0  0  0  0
    9.9180   -3.7544   26.4476 H   0  0  0  0  0  0  0  0  0  0  0  0
    6.7943   -1.7809   25.1576 N   0  0  0  0  0  0  0  0  0  0  0  0
    7.1313   -1.0858   24.0939 C   0  0  0  0  0  0  0  0  0  0  0  0
    6.5374   -0.2268   23.8166 H   0  0  0  0  0  0  0  0  0  0  0  0
    9.4018   -3.4282   24.0591 H   0  0  0  0  0  0  0  0  0  0  0  0
   10.0492   -0.9632   22.5220 H   0  0  0  0  0  0  0  0  0  0  0  0
  1  2  2  0
  2  3  1  0
  3  4  1  0
  4  5  2  0
  5  6  1  0
  6  7  2  0
  7  8  1  0
  8  9  2  0
  9 10  1  0
  7 11  1  0
  6 12  1  0
  5 13  1  0
  3 14  1  0
  2 15  1  0
 15 16  1  0
 16 17  2  0
 17 18  1  0
 18 19  1  0
 19 20  2  0
 20 21  1  0
 21 22  2  0
 22 23  1  0
 23 24  2  0
 23 25  1  0
 22 26  1  0
 21 27  1  0
 20 28  1  0
 18 29  1  0
 29 30  2  0
 30 31  1  0
 17 32  1  0
 15 33  1  0
  9  4  1  0
 30 16  1  0
 24 19  1  0
M  END
>  <cnnaffinity>  (1) 
-5.15955

>  <filename>  (1) 
S=C(Nc1cccnc1)Nc1cnn(-c2ccccn2)c1

$$$$
