
     RDKit          3D

 41 44  0  0  0  0  0  0  0  0999 V2000
    5.0153    1.7923   16.9511 H   0  0  0  0  0  0  0  0  0  0  0  0
    5.4880    1.2967   17.7981 C   0  0  0  0  0  0  0  0  0  0  0  0
    6.6430    0.6649   17.5425 N   0  0  0  0  0  0  0  0  0  0  0  0
    7.2340    0.0464   18.5717 C   0  0  0  0  0  0  0  0  0  0  0  0
    8.1662   -0.4679   18.3411 H   0  0  0  0  0  0  0  0  0  0  0  0
    6.7419    0.0151   19.8905 C   0  0  0  0  0  0  0  0  0  0  0  0
    7.4928   -0.7281   20.9832 C   0  0  1  0  0  0  0  0  0  0  0  0
    8.4427   -1.0602   20.5510 H   0  0  0  0  0  0  0  0  0  0  0  0
    7.8309    0.1585   22.2325 C   0  0  0  0  0  0  0  0  0  0  0  0
    8.9118    0.2278   22.3942 H   0  0  0  0  0  0  0  0  0  0  0  0
    7.4544    1.1831   22.1346 H   0  0  0  0  0  0  0  0  0  0  0  0
    7.1552   -0.5629   23.3600 C   0  0  0  0  0  0  0  0  0  0  0  0
    7.0044   -0.2998   24.6442 N   0  0  0  0  0  0  0  0  0  0  0  0
    6.1881   -1.3060   25.0525 N   0  0  0  0  0  0  0  0  0  0  0  0
    6.0743   -1.4978   26.0298 H   0  0  0  0  0  0  0  0  0  0  0  0
    5.8755   -2.1895   24.0753 C   0  0  0  0  0  0  0  0  0  0  0  0
    4.8864   -3.1837   24.2714 N   0  0  0  0  0  0  0  0  0  0  0  0
    3.9291   -2.8465   24.2752 H   0  0  0  0  0  0  0  0  0  0  0  0
    4.9023   -4.3376   23.5220 C   0  0  0  0  0  0  0  0  0  0  0  0
    3.5020   -4.9571   22.8998 S   0  0  0  0  0  0  0  0  0  0  0  0
    6.0849   -4.9707   23.3413 N   0  0  0  0  0  0  0  0  0  0  0  0
    5.9140   -5.8629   22.9037 H   0  0  0  0  0  0  0  0  0  0  0  0
    7.2194   -4.8579   24.2084 C   0  0  0  0  0  0  0  0  0  0  0  0
    7.0549   -4.9865   25.5909 C   0  0  0  0  0  0  0  0  0  0  0  0
    6.0645   -5.1697   25.9934 H   0  0  0  0  0  0  0  0  0  0  0  0
    8.1667   -4.8661   26.4287 C   0  0  0  0  0  0  0  0  0  0  0  0
    8.0395   -4.9769   27.4997 H   0  0  0  0  0  0  0  0  0  0  0  0
    9.4371   -4.6286   25.8942 C   0  0  0  0  0  0  0  0  0  0  0  0
   10.2924   -4.5178   26.5547 H   0  0  0  0  0  0  0  0  0  0  0  0
    9.5950   -4.5129   24.5101 C   0  0  0  0  0  0  0  0  0  0  0  0
   10.5746   -4.3437   24.0712 H   0  0  0  0  0  0  0  0  0  0  0  0
    8.4804   -4.6172   23.6688 C   0  0  0  0  0  0  0  0  0  0  0  0
    8.5591   -4.5018   22.5937 H   0  0  0  0  0  0  0  0  0  0  0  0
    6.5289   -1.7376   22.9533 C   0  0  0  0  0  0  0  0  0  0  0  0
    6.7227   -2.0031   21.4971 C   0  0  0  0  0  0  0  0  0  0  0  0
    7.3230   -2.9086   21.3363 H   0  0  0  0  0  0  0  0  0  0  0  0
    5.7847   -2.1814   20.9534 H   0  0  0  0  0  0  0  0  0  0  0  0
    5.5192    0.6626   20.1243 C   0  0  0  0  0  0  0  0  0  0  0  0
    5.0673    0.6576   21.1188 H   0  0  0  0  0  0  0  0  0  0  0  0
    4.8877    1.3162   19.0614 C   0  0  0  0  0  0  0  0  0  0  0  0
    3.9520    1.8451   19.1964 H   0  0  0  0  0  0  0  0  0  0  0  0
  1  2  1  0
  2  3  2  0
  3  4  1  0
  4  5  1  0
  4  6  2  0
  6  7  1  0
  7  8  1  6
  7  9  1  0
  9 10  1  0
  9 11  1  0
  9 12  1  0
 12 13  2  0
 13 14  1  0
 14 15  1  0
 14 16  1  0
 16 17  1  0
 17 18  1  0
 17 19  1  0
 19 20  2  0
 19 21  1  0
 21 22  1  0
 21 23  1  0
 23 24  2  0
 24 25  1  0
 24 26  1  0
 26 27  1  0
 26 28  2  0
 28 29  1  0
 28 30  1  0
 30 31  1  0
 30 32  2  0
 32 33  1  0
 16 34  2  0
 34 35  1  0
 35 36  1  0
 35 37  1  0
  6 38  1  0
 38 39  1  0
 38 40  2  0
 40 41  1  0
 40  2  1  0
 35  7  1  0
 34 12  1  0
 32 23  1  0
M  END
>  <cnnaffinity>  (1) 
-5.78333

>  <filename>  (1) 
S=C(Nc1ccccc1)Nc1[nH]nc2c1C[C@@H](c1cccnc1)C2

$$$$
