
     RDKit          3D

 35 37  0  0  0  0  0  0  0  0999 V2000
    5.0073    1.8272   16.9681 H   0  0  0  0  0  0  0  0  0  0  0  0
    5.4597    1.2880   17.7979 C   0  0  0  0  0  0  0  0  0  0  0  0
    6.5855    0.6090   17.5242 N   0  0  0  0  0  0  0  0  0  0  0  0
    7.1673   -0.0601   18.5294 C   0  0  0  0  0  0  0  0  0  0  0  0
    8.0756   -0.6097   18.2899 H   0  0  0  0  0  0  0  0  0  0  0  0
    6.6697   -0.0778   19.8453 C   0  0  0  0  0  0  0  0  0  0  0  0
    7.2505   -0.8027   20.8614 O   0  0  0  0  0  0  0  0  0  0  0  0
    8.6194   -0.7812   21.0326 C   0  0  0  0  0  0  0  0  0  0  0  0
    9.5978    0.1633   20.6538 C   0  0  0  0  0  0  0  0  0  0  0  0
    9.4699    1.0441   20.0475 H   0  0  0  0  0  0  0  0  0  0  0  0
   10.7944   -0.1634   21.1319 N   0  0  0  0  0  0  0  0  0  0  0  0
   10.5906   -1.3175   21.7975 N   0  0  0  0  0  0  0  0  0  0  0  0
   11.2890   -1.7671   22.3822 H   0  0  0  0  0  0  0  0  0  0  0  0
    9.3039   -1.7089   21.7791 C   0  0  0  0  0  0  0  0  0  0  0  0
    8.8057   -2.8458   22.4246 N   0  0  0  0  0  0  0  0  0  0  0  0
    7.8388   -3.0587   22.2221 H   0  0  0  0  0  0  0  0  0  0  0  0
    9.2897   -3.4859   23.5151 C   0  0  0  0  0  0  0  0  0  0  0  0
   10.7960   -3.2958   24.1906 S   0  0  0  0  0  0  0  0  0  0  0  0
    8.4495   -4.3865   24.0765 N   0  0  0  0  0  0  0  0  0  0  0  0
    8.8504   -4.7230   24.9399 H   0  0  0  0  0  0  0  0  0  0  0  0
    7.0989   -4.7403   23.7776 C   0  0  0  0  0  0  0  0  0  0  0  0
    6.0324   -3.8494   23.9573 C   0  0  0  0  0  0  0  0  0  0  0  0
    6.2414   -2.8110   24.2084 H   0  0  0  0  0  0  0  0  0  0  0  0
    4.7181   -4.3230   23.8454 C   0  0  0  0  0  0  0  0  0  0  0  0
    3.8962   -3.6425   24.0352 H   0  0  0  0  0  0  0  0  0  0  0  0
    4.4654   -5.6525   23.4965 C   0  0  0  0  0  0  0  0  0  0  0  0
    3.4451   -6.0185   23.4352 H   0  0  0  0  0  0  0  0  0  0  0  0
    5.5371   -6.5137   23.2379 C   0  0  0  0  0  0  0  0  0  0  0  0
    5.3449   -7.5383   22.9263 H   0  0  0  0  0  0  0  0  0  0  0  0
    6.8480   -6.0592   23.3866 C   0  0  0  0  0  0  0  0  0  0  0  0
    7.6970   -6.7161   23.2096 H   0  0  0  0  0  0  0  0  0  0  0  0
    5.4800    0.6098   20.1174 C   0  0  0  0  0  0  0  0  0  0  0  0
    5.0592    0.5890   21.1225 H   0  0  0  0  0  0  0  0  0  0  0  0
    4.8731    1.3117   19.0698 C   0  0  0  0  0  0  0  0  0  0  0  0
    3.9608    1.8809   19.2283 H   0  0  0  0  0  0  0  0  0  0  0  0
  1  2  1  0
  2  3  2  0
  3  4  1  0
  4  5  1  0
  4  6  2  0
  6  7  1  0
  7  8  1  0
  8  9  1  0
  9 10  1  0
  9 11  2  0
 11 12  1  0
 12 13  1  0
 12 14  1  0
 14 15  1  0
 15 16  1  0
 15 17  1  0
 17 18  2  0
 17 19  1  0
 19 20  1  0
 19 21  1  0
 21 22  2  0
 22 23  1  0
 22 24  1  0
 24 25  1  0
 24 26  2  0
 26 27  1  0
 26 28  1  0
 28 29  1  0
 28 30  2  0
 30 31  1  0
  6 32  1  0
 32 33  1  0
 32 34  2  0
 34 35  1  0
 34  2  1  0
 14  8  2  0
 30 21  1  0
M  END
>  <cnnaffinity>  (1) 
-5.64662

>  <filename>  (1) 
S=C(Nc1ccccc1)Nc1[nH]ncc1Oc1cccnc1

$$$$
