
     RDKit          3D

 32 34  0  0  0  0  0  0  0  0999 V2000
    4.9593    1.7672   17.0539 H   0  0  0  0  0  0  0  0  0  0  0  0
    5.4382    1.2403   17.8782 C   0  0  0  0  0  0  0  0  0  0  0  0
    6.5829    0.6021   17.5812 N   0  0  0  0  0  0  0  0  0  0  0  0
    7.2240   -0.0289   18.5690 C   0  0  0  0  0  0  0  0  0  0  0  0
    8.1472   -0.5416   18.3075 H   0  0  0  0  0  0  0  0  0  0  0  0
    6.7415   -0.0766   19.8936 C   0  0  0  0  0  0  0  0  0  0  0  0
    7.5285   -0.7025   20.9269 N   0  0  0  0  0  0  0  0  0  0  0  0
    8.8513   -0.4053   21.0779 N   0  0  0  0  0  0  0  0  0  0  0  0
    9.2490   -0.9855   22.1430 N   0  0  0  0  0  0  0  0  0  0  0  0
    8.2449   -1.6765   22.7384 N   0  0  0  0  0  0  0  0  0  0  0  0
    7.2063   -1.5251   21.9604 C   0  0  0  0  0  0  0  0  0  0  0  0
    6.0006   -2.1788   22.0702 N   0  0  0  0  0  0  0  0  0  0  0  0
    5.5751   -2.4479   21.1990 H   0  0  0  0  0  0  0  0  0  0  0  0
    5.6729   -3.1504   23.0098 C   0  0  0  0  0  0  0  0  0  0  0  0
    4.7151   -4.3845   22.4786 S   0  0  0  0  0  0  0  0  0  0  0  0
    6.1562   -2.9175   24.2371 N   0  0  0  0  0  0  0  0  0  0  0  0
    6.7411   -2.0976   24.2888 H   0  0  0  0  0  0  0  0  0  0  0  0
    5.9217   -3.6177   25.4558 C   0  0  0  0  0  0  0  0  0  0  0  0
    5.9839   -5.0130   25.5259 C   0  0  0  0  0  0  0  0  0  0  0  0
    6.1674   -5.5706   24.6127 H   0  0  0  0  0  0  0  0  0  0  0  0
    5.8332   -5.6485   26.7638 C   0  0  0  0  0  0  0  0  0  0  0  0
    5.9286   -6.7289   26.8193 H   0  0  0  0  0  0  0  0  0  0  0  0
    5.5956   -4.9020   27.9224 C   0  0  0  0  0  0  0  0  0  0  0  0
    5.4663   -5.4073   28.8748 H   0  0  0  0  0  0  0  0  0  0  0  0
    5.5222   -3.5076   27.8436 C   0  0  0  0  0  0  0  0  0  0  0  0
    5.3813   -2.9207   28.7473 H   0  0  0  0  0  0  0  0  0  0  0  0
    5.6950   -2.8621   26.6138 C   0  0  0  0  0  0  0  0  0  0  0  0
    5.6593   -1.7773   26.5415 H   0  0  0  0  0  0  0  0  0  0  0  0
    5.5055    0.5166   20.1816 C   0  0  0  0  0  0  0  0  0  0  0  0
    5.0613    0.4332   21.1764 H   0  0  0  0  0  0  0  0  0  0  0  0
    4.8589    1.2154   19.1514 C   0  0  0  0  0  0  0  0  0  0  0  0
    3.9255    1.7424   19.3189 H   0  0  0  0  0  0  0  0  0  0  0  0
  1  2  1  0
  2  3  2  0
  3  4  1  0
  4  5  1  0
  4  6  2  0
  6  7  1  0
  7  8  1  0
  8  9  2  0
  9 10  1  0
 10 11  2  0
 11 12  1  0
 12 13  1  0
 12 14  1  0
 14 15  2  0
 14 16  1  0
 16 17  1  0
 16 18  1  0
 18 19  2  0
 19 20  1  0
 19 21  1  0
 21 22  1  0
 21 23  2  0
 23 24  1  0
 23 25  1  0
 25 26  1  0
 25 27  2  0
 27 28  1  0
  6 29  1  0
 29 30  1  0
 29 31  2  0
 31 32  1  0
 31  2  1  0
 11  7  1  0
 27 18  1  0
M  END
>  <cnnaffinity>  (1) 
-5.25795

>  <filename>  (1) 
S=C(Nc1ccccc1)Nc1nnnn1-c1cccnc1

$$$$
