
     RDKit          3D

 23 24  0  0  0  0  0  0  0  0999 V2000
    4.9137    1.7810   16.9968 H   0  0  0  0  0  0  0  0  0  0  0  0
    5.3973    1.2924   17.8407 C   0  0  0  0  0  0  0  0  0  0  0  0
    6.5604    0.6766   17.5798 N   0  0  0  0  0  0  0  0  0  0  0  0
    7.1673    0.0491   18.5927 C   0  0  0  0  0  0  0  0  0  0  0  0
    8.1252   -0.4269   18.3795 H   0  0  0  0  0  0  0  0  0  0  0  0
    6.6358   -0.0063   19.8935 C   0  0  0  0  0  0  0  0  0  0  0  0
    7.5343   -0.7924   21.2260 S   0  0  0  0  0  0  0  0  0  0  0  0
    8.5489    0.6044   21.6928 C   0  0  0  0  0  0  0  0  0  0  0  0
    9.9757    0.8687   20.9617 S   0  0  0  0  0  0  0  0  0  0  0  0
    7.9303    1.5319   22.6957 C   0  0  0  0  0  0  0  0  0  0  0  0
    6.8021    1.3138   23.2683 N   0  0  0  0  0  0  0  0  0  0  0  0
    6.5824    2.4032   24.2195 C   0  0  0  0  0  0  0  0  0  0  0  0
    5.6404    2.9033   23.9848 H   0  0  0  0  0  0  0  0  0  0  0  0
    6.4927    2.0049   25.2347 H   0  0  0  0  0  0  0  0  0  0  0  0
    7.7874    3.3686   24.0954 C   0  0  0  0  0  0  0  0  0  0  0  0
    8.3365    3.4702   25.0426 H   0  0  0  0  0  0  0  0  0  0  0  0
    7.4798    4.3729   23.7695 H   0  0  0  0  0  0  0  0  0  0  0  0
    8.5692    2.6809   23.0897 N   0  0  0  0  0  0  0  0  0  0  0  0
    9.4379    3.0061   22.7056 H   0  0  0  0  0  0  0  0  0  0  0  0
    5.4279    0.6470   20.1594 C   0  0  0  0  0  0  0  0  0  0  0  0
    5.0198    0.6356   21.1740 H   0  0  0  0  0  0  0  0  0  0  0  0
    4.7991    1.3127   19.1033 C   0  0  0  0  0  0  0  0  0  0  0  0
    3.8694    1.8481   19.2573 H   0  0  0  0  0  0  0  0  0  0  0  0
  1  2  1  0
  2  3  2  0
  3  4  1  0
  4  5  1  0
  4  6  2  0
  6  7  1  0
  7  8  1  0
  8  9  2  0
  8 10  1  0
 10 11  2  0
 11 12  1  0
 12 13  1  0
 12 14  1  0
 12 15  1  0
 15 16  1  0
 15 17  1  0
 15 18  1  0
 18 19  1  0
  6 20  1  0
 20 21  1  0
 20 22  2  0
 22 23  1  0
 22  2  1  0
 18 10  1  0
M  END
>  <cnnaffinity>  (1) 
-4.22468

>  <filename>  (1) 
S=C(Sc1cccnc1)C1=NCCN1

$$$$
