
     RDKit          3D

 28 30  0  0  0  0  0  0  0  0999 V2000
    4.9498    1.7936   16.9892 H   0  0  0  0  0  0  0  0  0  0  0  0
    5.4089    1.2944   17.8414 C   0  0  0  0  0  0  0  0  0  0  0  0
    6.5716    0.6684   17.5996 N   0  0  0  0  0  0  0  0  0  0  0  0
    7.1600    0.0275   18.6123 C   0  0  0  0  0  0  0  0  0  0  0  0
    8.1172   -0.4447   18.3885 H   0  0  0  0  0  0  0  0  0  0  0  0
    6.6233   -0.0379   19.9163 C   0  0  0  0  0  0  0  0  0  0  0  0
    7.3480   -0.7620   20.9941 C   0  0  0  0  0  0  0  0  0  0  0  0
    8.4085   -1.9686   20.7670 S   0  0  0  0  0  0  0  0  0  0  0  0
    7.1673   -0.1386   22.6588 S   0  0  0  0  0  0  0  0  0  0  0  0
    8.5136    1.0511   22.5576 C   0  0  0  0  0  0  0  0  0  0  0  0
    8.2006    2.3658   22.1464 C   0  0  0  0  0  0  0  0  0  0  0  0
    7.1765    2.6070   21.8868 H   0  0  0  0  0  0  0  0  0  0  0  0
    9.1787    3.3413   22.0327 C   0  0  0  0  0  0  0  0  0  0  0  0
    8.8770    4.3548   21.7796 H   0  0  0  0  0  0  0  0  0  0  0  0
   10.5350    2.9917   22.2414 C   0  0  0  0  0  0  0  0  0  0  0  0
   11.7999    3.6833   22.1483 C   0  0  0  0  0  0  0  0  0  0  0  0
   11.9610    4.7060   21.8271 H   0  0  0  0  0  0  0  0  0  0  0  0
   12.7656    2.7910   22.5060 C   0  0  0  0  0  0  0  0  0  0  0  0
   13.8380    2.9195   22.5910 H   0  0  0  0  0  0  0  0  0  0  0  0
   12.1917    1.5727   22.7984 N   0  0  0  0  0  0  0  0  0  0  0  0
   12.6869    0.7503   23.1019 H   0  0  0  0  0  0  0  0  0  0  0  0
   10.8309    1.6596   22.6388 C   0  0  0  0  0  0  0  0  0  0  0  0
    9.8330    0.6806   22.8034 C   0  0  0  0  0  0  0  0  0  0  0  0
   10.0715   -0.3385   23.0898 H   0  0  0  0  0  0  0  0  0  0  0  0
    5.4200    0.6502   20.1531 C   0  0  0  0  0  0  0  0  0  0  0  0
    4.9799    0.6659   21.1498 H   0  0  0  0  0  0  0  0  0  0  0  0
    4.8004    1.3183   19.0986 C   0  0  0  0  0  0  0  0  0  0  0  0
    3.8659    1.8510   19.2346 H   0  0  0  0  0  0  0  0  0  0  0  0
  1  2  1  0
  2  3  2  0
  3  4  1  0
  4  5  1  0
  4  6  2  0
  6  7  1  0
  7  8  2  0
  7  9  1  0
  9 10  1  0
 10 11  2  0
 11 12  1  0
 11 13  1  0
 13 14  1  0
 13 15  2  0
 15 16  1  0
 16 17  1  0
 16 18  2  0
 18 19  1  0
 18 20  1  0
 20 21  1  0
 20 22  1  0
 22 23  2  0
 23 24  1  0
  6 25  1  0
 25 26  1  0
 25 27  2  0
 27 28  1  0
 27  2  1  0
 23 10  1  0
 22 15  1  0
M  END
>  <cnnaffinity>  (1) 
-4.85144

>  <filename>  (1) 
S=C(Sc1ccc2cc[nH]c2c1)c1cccnc1

$$$$
