
     RDKit          3D

 33 35  0  0  0  0  0  0  0  0999 V2000
    4.8947    1.8674   16.8791 H   0  0  0  0  0  0  0  0  0  0  0  0
    5.3308    1.3092   17.7042 C   0  0  0  0  0  0  0  0  0  0  0  0
    6.4590    0.6312   17.4363 N   0  0  0  0  0  0  0  0  0  0  0  0
    7.0497   -0.0212   18.4437 C   0  0  0  0  0  0  0  0  0  0  0  0
    7.9577   -0.5779   18.2038 H   0  0  0  0  0  0  0  0  0  0  0  0
    6.5569    0.0051   19.7638 C   0  0  0  0  0  0  0  0  0  0  0  0
    7.5145   -0.6193   21.1573 S   0  0  0  0  0  0  0  0  0  0  0  0
    8.4906    0.7906   21.6194 C   0  0  0  0  0  0  0  0  0  0  0  0
    9.6857    1.1173   21.1842 N   0  0  0  0  0  0  0  0  0  0  0  0
   10.0385    2.2401   21.8748 N   0  0  0  0  0  0  0  0  0  0  0  0
    9.1032    2.5941   22.6820 N   0  0  0  0  0  0  0  0  0  0  0  0
    8.1149    1.7040   22.5589 N   0  0  0  0  0  0  0  0  0  0  0  0
    6.9233    1.8405   23.2385 N   0  0  0  0  0  0  0  0  0  0  0  0
    6.3150    2.6007   22.9565 H   0  0  0  0  0  0  0  0  0  0  0  0
    6.2742    0.9262   24.0290 C   0  0  0  0  0  0  0  0  0  0  0  0
    4.7221    1.2358   24.5036 S   0  0  0  0  0  0  0  0  0  0  0  0
    6.9058   -0.2252   24.3842 N   0  0  0  0  0  0  0  0  0  0  0  0
    6.2417   -0.8288   24.8478 H   0  0  0  0  0  0  0  0  0  0  0  0
    8.2816   -0.3710   24.7166 C   0  0  0  0  0  0  0  0  0  0  0  0
    8.9695    0.7060   25.2836 C   0  0  0  0  0  0  0  0  0  0  0  0
    8.4370    1.6347   25.4722 H   0  0  0  0  0  0  0  0  0  0  0  0
   10.3460    0.6135   25.5031 C   0  0  0  0  0  0  0  0  0  0  0  0
   10.8698    1.4692   25.9244 H   0  0  0  0  0  0  0  0  0  0  0  0
   11.0363   -0.5480   25.1453 C   0  0  0  0  0  0  0  0  0  0  0  0
   12.1115   -0.5754   25.2927 H   0  0  0  0  0  0  0  0  0  0  0  0
   10.3355   -1.6431   24.6140 C   0  0  0  0  0  0  0  0  0  0  0  0
   10.8691   -2.5499   24.3269 H   0  0  0  0  0  0  0  0  0  0  0  0
    8.9493   -1.5679   24.4274 C   0  0  0  0  0  0  0  0  0  0  0  0
    8.4002   -2.4141   24.0181 H   0  0  0  0  0  0  0  0  0  0  0  0
    5.3184    0.6114   20.0027 C   0  0  0  0  0  0  0  0  0  0  0  0
    4.8590    0.5414   20.9913 H   0  0  0  0  0  0  0  0  0  0  0  0
    4.7095    1.3008   18.9565 C   0  0  0  0  0  0  0  0  0  0  0  0
    3.7801    1.8358   19.1097 H   0  0  0  0  0  0  0  0  0  0  0  0
  1  2  1  0
  2  3  2  0
  3  4  1  0
  4  5  1  0
  4  6  2  0
  6  7  1  0
  7  8  1  0
  8  9  2  0
  9 10  1  0
 10 11  2  0
 11 12  1  0
 12 13  1  0
 13 14  1  0
 13 15  1  0
 15 16  2  0
 15 17  1  0
 17 18  1  0
 17 19  1  0
 19 20  2  0
 20 21  1  0
 20 22  1  0
 22 23  1  0
 22 24  2  0
 24 25  1  0
 24 26  1  0
 26 27  1  0
 26 28  2  0
 28 29  1  0
  6 30  1  0
 30 31  1  0
 30 32  2  0
 32 33  1  0
 32  2  1  0
 12  8  1  0
 28 19  1  0
M  END
>  <cnnaffinity>  (1) 
-4.99955

>  <filename>  (1) 
S=C(Nc1ccccc1)Nn1nnnc1Sc1cccnc1

$$$$
