
     RDKit          3D

 37 39  0  0  0  0  0  0  0  0999 V2000
    7.5400   -1.5769   23.3634 S   0  0  0  0  0  0  0  0  0  0  0  0
    7.3026   -0.3004   22.3339 C   0  0  0  0  0  0  0  0  0  0  0  0
    7.0293    0.9897   22.7089 N   0  0  0  0  0  0  0  0  0  0  0  0
    6.4395    1.4428   23.8413 C   0  0  0  0  0  0  0  0  0  0  0  0
    5.5522    0.6969   24.5078 N   0  0  0  0  0  4  0  0  0  0  0  0
    5.3703    1.3361   25.7833 N   0  0  0  0  0  0  0  0  0  0  0  0
    4.3337    0.9053   26.6169 C   0  0  0  0  0  0  0  0  0  0  0  0
    3.4861   -0.1697   26.2746 C   0  0  0  0  0  0  0  0  0  0  0  0
    2.5546   -0.6560   27.1956 C   0  0  0  0  0  0  0  0  0  0  0  0
    2.4283   -0.0741   28.4619 C   0  0  0  0  0  0  0  0  0  0  0  0
    3.2381    1.0154   28.7941 C   0  0  0  0  0  0  0  0  0  0  0  0
    4.1748    1.5071   27.8851 C   0  0  0  0  0  0  0  0  0  0  0  0
    4.8030    2.3536   28.1466 H   0  0  0  0  0  0  0  0  0  0  0  0
    3.1504    1.4837   29.7721 H   0  0  0  0  0  0  0  0  0  0  0  0
    1.7135   -0.4656   29.1806 H   0  0  0  0  0  0  0  0  0  0  0  0
    1.9346   -1.5073   26.9256 H   0  0  0  0  0  0  0  0  0  0  0  0
    3.5714   -0.6114   25.2875 H   0  0  0  0  0  0  0  0  0  0  0  0
    5.8791    2.7049   25.7303 C   0  0  0  0  0  0  0  0  0  0  0  0
    6.6698    2.7660   24.4006 C   0  0  0  0  0  0  0  0  0  0  0  0
    6.2882    3.5276   23.7097 H   0  0  0  0  0  0  0  0  0  0  0  0
    7.7423    2.9308   24.5611 H   0  0  0  0  0  0  0  0  0  0  0  0
    6.5244    2.8942   26.5983 H   0  0  0  0  0  0  0  0  0  0  0  0
    5.0626    3.4401   25.7359 H   0  0  0  0  0  0  0  0  0  0  0  0
    5.9211   -0.2715   24.5732 H   0  0  0  0  0  0  0  0  0  0  0  0
    7.2670    1.6908   22.0179 H   0  0  0  0  0  0  0  0  0  0  0  0
    7.4606   -0.4678   20.9840 N   0  0  0  0  0  0  0  0  0  0  0  0
    6.7026    0.1083   19.9142 C   0  0  0  0  0  0  0  0  0  0  0  0
    5.4458    0.6926   20.1216 C   0  0  0  0  0  0  0  0  0  0  0  0
    4.8132    1.3102   19.0391 C   0  0  0  0  0  0  0  0  0  0  0  0
    5.4277    1.2979   17.7857 C   0  0  0  0  0  0  0  0  0  0  0  0
    6.6055    0.6907   17.5613 N   0  0  0  0  0  0  0  0  0  0  0  0
    7.2134    0.1067   18.5974 C   0  0  0  0  0  0  0  0  0  0  0  0
    8.1597   -0.3997   18.4055 H   0  0  0  0  0  0  0  0  0  0  0  0
    4.9616    1.7710   16.9242 H   0  0  0  0  0  0  0  0  0  0  0  0
    3.8602    1.8084   19.1636 H   0  0  0  0  0  0  0  0  0  0  0  0
    4.9684    0.6448   21.0969 H   0  0  0  0  0  0  0  0  0  0  0  0
    7.8107   -1.4072   20.8389 H   0  0  0  0  0  0  0  0  0  0  0  0
  1  2  2  0
  2  3  1  0
  3  4  1  0
  4  5  2  0
  5  6  1  0
  6  7  1  0
  7  8  2  0
  8  9  1  0
  9 10  2  0
 10 11  1  0
 11 12  2  0
 12 13  1  0
 11 14  1  0
 10 15  1  0
  9 16  1  0
  8 17  1  0
  6 18  1  0
 18 19  1  0
 19 20  1  0
 19 21  1  0
 18 22  1  0
 18 23  1  0
  5 24  1  0
  3 25  1  0
  2 26  1  0
 26 27  1  0
 27 28  2  0
 28 29  1  0
 29 30  2  0
 30 31  1  0
 31 32  2  0
 32 33  1  0
 30 34  1  0
 29 35  1  0
 28 36  1  0
 26 37  1  0
 19  4  1  0
 32 27  1  0
 12  7  1  0
M  CHG  1   5   1
M  END
>  <cnnaffinity>  (1) 
-4.97118

>  <filename>  (1) 
S=C(NC1=[NH+]N(c2ccccc2)CC1)Nc1cccnc1

$$$$
