
     RDKit          3D

 34 36  0  0  0  0  0  0  0  0999 V2000
    5.0306    1.8090   16.9477 H   0  0  0  0  0  0  0  0  0  0  0  0
    5.4559    1.2969   17.8081 C   0  0  0  0  0  0  0  0  0  0  0  0
    6.6082    0.6391   17.5965 N   0  0  0  0  0  0  0  0  0  0  0  0
    7.1575   -0.0041   18.6274 C   0  0  0  0  0  0  0  0  0  0  0  0
    8.0820   -0.5439   18.4393 H   0  0  0  0  0  0  0  0  0  0  0  0
    6.6048   -0.0080   19.9185 C   0  0  0  0  0  0  0  0  0  0  0  0
    7.2973   -0.7007   20.9474 N   0  0  0  0  0  0  0  0  0  0  0  0
    7.9812   -1.8348   20.6544 N   0  0  0  0  0  0  0  0  0  0  0  0
    8.5174   -2.2240   21.7971 C   0  0  0  0  0  0  0  0  0  0  0  0
    9.1252   -3.1225   21.8180 H   0  0  0  0  0  0  0  0  0  0  0  0
    8.2055   -1.3527   22.8580 C   0  0  0  0  0  0  0  0  0  0  0  0
    8.5136   -1.3946   23.8866 H   0  0  0  0  0  0  0  0  0  0  0  0
    7.4440   -0.3706   22.2672 C   0  0  0  0  0  0  0  0  0  0  0  0
    6.9385    0.8150   22.8273 N   0  0  0  0  0  0  0  0  0  0  0  0
    7.0159    1.6623   22.2839 H   0  0  0  0  0  0  0  0  0  0  0  0
    6.9759    1.1451   24.1701 C   0  0  0  0  0  0  0  0  0  0  0  0
    7.1366    2.7274   24.6181 S   0  0  0  0  0  0  0  0  0  0  0  0
    6.8283    0.0610   24.9671 N   0  0  0  0  0  0  0  0  0  0  0  0
    6.4390   -0.7267   24.4738 H   0  0  0  0  0  0  0  0  0  0  0  0
    6.7529    0.0570   26.3863 C   0  0  0  0  0  0  0  0  0  0  0  0
    5.5888   -0.3840   27.0255 C   0  0  0  0  0  0  0  0  0  0  0  0
    4.7590   -0.7718   26.4389 H   0  0  0  0  0  0  0  0  0  0  0  0
    5.4839   -0.2788   28.4184 C   0  0  0  0  0  0  0  0  0  0  0  0
    4.5624   -0.5730   28.9157 H   0  0  0  0  0  0  0  0  0  0  0  0
    6.5560    0.2111   29.1663 C   0  0  0  0  0  0  0  0  0  0  0  0
    6.4874    0.2483   30.2499 H   0  0  0  0  0  0  0  0  0  0  0  0
    7.7314    0.6080   28.5224 C   0  0  0  0  0  0  0  0  0  0  0  0
    8.5745    0.9642   29.1045 H   0  0  0  0  0  0  0  0  0  0  0  0
    7.8349    0.5310   27.1317 C   0  0  0  0  0  0  0  0  0  0  0  0
    8.7273    0.8564   26.6045 H   0  0  0  0  0  0  0  0  0  0  0  0
    5.3993    0.6730   20.1388 C   0  0  0  0  0  0  0  0  0  0  0  0
    4.9348    0.6918   21.1257 H   0  0  0  0  0  0  0  0  0  0  0  0
    4.8154    1.3286   19.0505 C   0  0  0  0  0  0  0  0  0  0  0  0
    3.8858    1.8771   19.1573 H   0  0  0  0  0  0  0  0  0  0  0  0
  1  2  1  0
  2  3  2  0
  3  4  1  0
  4  5  1  0
  4  6  2  0
  6  7  1  0
  7  8  1  0
  8  9  2  0
  9 10  1  0
  9 11  1  0
 11 12  1  0
 11 13  2  0
 13 14  1  0
 14 15  1  0
 14 16  1  0
 16 17  2  0
 16 18  1  0
 18 19  1  0
 18 20  1  0
 20 21  2  0
 21 22  1  0
 21 23  1  0
 23 24  1  0
 23 25  2  0
 25 26  1  0
 25 27  1  0
 27 28  1  0
 27 29  2  0
 29 30  1  0
  6 31  1  0
 31 32  1  0
 31 33  2  0
 33 34  1  0
 33  2  1  0
 13  7  1  0
 29 20  1  0
M  END
>  <cnnaffinity>  (1) 
-5.05949

>  <filename>  (1) 
S=C(Nc1ccccc1)Nc1ccnn1-c1cccnc1

$$$$
