
     RDKit          3D

 34 35  0  0  0  0  0  0  0  0999 V2000
    4.9002    2.1421   17.1526 H   0  0  0  0  0  0  0  0  0  0  0  0
    5.4620    1.6583   17.9509 C   0  0  0  0  0  0  0  0  0  0  0  0
    6.6391    1.1121   17.5969 N   0  0  0  0  0  0  0  0  0  0  0  0
    7.3702    0.5465   18.5563 C   0  0  0  0  0  0  0  0  0  0  0  0
    8.3425    0.1514   18.2492 H   0  0  0  0  0  0  0  0  0  0  0  0
    6.9600    0.4263   19.8969 C   0  0  0  0  0  0  0  0  0  0  0  0
    7.7876   -0.3675   20.8353 C   0  0  0  0  0  0  0  0  0  0  0  0
    9.3934   -0.5346   20.6090 S   0  0  0  0  0  0  0  0  0  0  0  0
    7.1336   -1.0258   22.0686 C   0  0  0  0  0  0  0  0  0  0  0  0
    6.7728   -0.2030   22.6939 H   0  0  0  0  0  0  0  0  0  0  0  0
    7.9508   -1.4972   22.6284 H   0  0  0  0  0  0  0  0  0  0  0  0
    6.0519   -1.9750   21.8925 N   0  0  0  0  0  0  0  0  0  0  0  0
    5.1184   -1.6678   22.1265 H   0  0  0  0  0  0  0  0  0  0  0  0
    6.1394   -3.1103   20.9783 C   0  0  0  0  0  0  0  0  0  0  0  0
    7.2401   -3.4010   21.0536 H   0  0  0  0  0  0  0  0  0  0  0  0
    5.3960   -4.2647   21.7037 C   0  0  0  0  0  0  0  0  0  0  0  0
    5.6687   -4.2261   22.7638 H   0  0  0  0  0  0  0  0  0  0  0  0
    4.3403   -3.9920   21.6258 H   0  0  0  0  0  0  0  0  0  0  0  0
    5.5933   -5.6990   21.1672 C   0  0  0  0  0  0  0  0  0  0  0  0
    6.4828   -6.1615   21.6181 H   0  0  0  0  0  0  0  0  0  0  0  0
    4.7332   -6.3120   21.4607 H   0  0  0  0  0  0  0  0  0  0  0  0
    5.7443   -5.7077   19.6246 C   0  0  0  0  0  0  0  0  0  0  0  0
    5.6793   -6.7581   19.2540 H   0  0  0  0  0  0  0  0  0  0  0  0
    4.8972   -5.1949   19.1583 H   0  0  0  0  0  0  0  0  0  0  0  0
    5.3803   -2.9420   19.5100 C   0  0  0  0  0  0  0  0  0  0  0  0
    5.8611   -3.4737   18.5372 H   0  0  0  0  0  0  0  0  0  0  0  0
    6.7266   -5.2522   19.3237 H   0  0  0  0  0  0  0  0  0  0  0  0
    5.6277   -2.7014   19.3446 C   0  0  0  0  0  0  0  0  0  0  0  0
    4.7575   -2.0131   19.0144 H   0  0  0  0  0  0  0  0  0  0  0  0
    6.5086   -1.8418   19.1248 H   0  0  0  0  0  0  0  0  0  0  0  0
    5.7256    0.9991   20.2557 C   0  0  0  0  0  0  0  0  0  0  0  0
    5.3357    0.9273   21.2720 H   0  0  0  0  0  0  0  0  0  0  0  0
    4.9756    1.6254   19.2567 C   0  0  0  0  0  0  0  0  0  0  0  0
    4.0173    2.0805   19.4754 H   0  0  0  0  0  0  0  0  0  0  0  0
  1  2  1  0
  2  3  2  0
  3  4  1  0
  4  5  1  0
  4  6  2  0
  6  7  1  0
  7  8  2  0
  7  9  1  0
  9 10  1  0
  9 11  1  0
  9 12  1  0
 12 13  1  0
 12 14  1  0
 14 15  1  0
 14 16  1  0
 16 17  1  0
 16 18  1  0
 16 19  1  0
 19 20  1  0
 19 21  1  0
 19 22  1  0
 22 23  1  0
 22 24  1  0
 22 25  1  0
 25 26  1  0
 25 27  1  0
 25 28  1  0
 28 29  1  0
 28 30  1  0
  6 31  1  0
 31 32  1  0
 31 33  2  0
 33 34  1  0
 33  2  1  0
 28 14  1  0
M  END
>  <cnnaffinity>  (1) 
-4.75287

>  <filename>  (1) 
S=C(CNC1CCCCC1)c1cccnc1

$$$$
