
     RDKit          3D

 33 35  0  0  0  0  0  0  0  0999 V2000
    5.0322    1.9806   16.9146 H   0  0  0  0  0  0  0  0  0  0  0  0
    5.3742    1.3393   17.7250 C   0  0  0  0  0  0  0  0  0  0  0  0
    6.4361    0.5645   17.4532 N   0  0  0  0  0  0  0  0  0  0  0  0
    6.9045   -0.1947   18.4526 C   0  0  0  0  0  0  0  0  0  0  0  0
    7.7698   -0.8170   18.2213 H   0  0  0  0  0  0  0  0  0  0  0  0
    6.3664   -0.2249   19.7627 C   0  0  0  0  0  0  0  0  0  0  0  0
    7.0327   -0.9646   20.8637 C   0  0  0  0  0  0  0  0  0  0  0  0
    6.5107   -2.0314   21.6720 C   0  0  0  0  0  0  0  0  0  0  0  0
    5.4832   -2.3880   21.6488 H   0  0  0  0  0  0  0  0  0  0  0  0
    7.3314   -2.6370   22.4769 N   0  0  0  0  0  0  0  0  0  0  0  0
    8.8421   -1.9306   22.3907 S   0  0  0  0  0  0  0  0  0  0  0  0
    8.3370   -0.7511   21.2255 C   0  0  0  0  0  0  0  0  0  0  0  0
    9.0997    0.3115   20.7773 N   0  0  0  0  0  0  0  0  0  0  0  0
    8.6008    1.1374   20.4713 H   0  0  0  0  0  0  0  0  0  0  0  0
   10.3715    0.6705   21.1489 C   0  0  0  0  0  0  0  0  0  0  0  0
   10.8076    2.2490   21.1586 S   0  0  0  0  0  0  0  0  0  0  0  0
   11.1672   -0.3992   21.4032 N   0  0  0  0  0  0  0  0  0  0  0  0
   10.8090   -1.2848   21.0759 H   0  0  0  0  0  0  0  0  0  0  0  0
   12.4026   -0.3334   21.9334 C   0  0  0  0  0  0  0  0  0  0  0  0
   13.6597   -1.7383   21.7387 C   0  0  0  0  0  0  0  0  0  0  0  0
   13.4468   -1.3607   20.4560 H   0  0  0  0  0  0  0  0  0  0  0  0
   13.8231   -1.9358   21.3975 C   0  0  0  0  0  0  0  0  0  0  0  0
   14.3602   -2.7635   20.8928 H   0  0  0  0  0  0  0  0  0  0  0  0
   14.6074   -1.2185   22.6920 C   0  0  0  0  0  0  0  0  0  0  0  0
   15.2364   -1.9547   23.1227 H   0  0  0  0  0  0  0  0  0  0  0  0
   14.2495   -0.0189   23.3646 C   0  0  0  0  0  0  0  0  0  0  0  0
   14.8051    0.3882   24.1941 H   0  0  0  0  0  0  0  0  0  0  0  0
   12.9821    0.4912   22.8653 C   0  0  0  0  0  0  0  0  0  0  0  0
   12.5155    1.4168   23.2068 H   0  0  0  0  0  0  0  0  0  0  0  0
    5.2158    0.5407   19.9949 C   0  0  0  0  0  0  0  0  0  0  0  0
    4.7541    0.5343   20.9831 H   0  0  0  0  0  0  0  0  0  0  0  0
    4.7217    1.3456   18.9631 C   0  0  0  0  0  0  0  0  0  0  0  0
    3.8616    1.9917   19.1066 H   0  0  0  0  0  0  0  0  0  0  0  0
  1  2  1  0
  2  3  2  0
  3  4  1  0
  4  5  1  0
  4  6  2  0
  6  7  1  0
  7  8  1  0
  8  9  1  0
  8 10  2  0
 10 11  1  0
 11 12  1  0
 12 13  1  0
 13 14  1  0
 13 15  1  0
 15 16  2  0
 15 17  1  0
 17 18  1  0
 17 19  1  0
 19 20  2  0
 20 21  1  0
 20 22  1  0
 22 23  1  0
 22 24  2  0
 24 25  1  0
 24 26  1  0
 26 27  1  0
 26 28  2  0
 28 29  1  0
  6 30  1  0
 30 31  1  0
 30 32  2  0
 32 33  1  0
 32  2  1  0
 12  7  2  0
 28 19  1  0
M  END
>  <cnnaffinity>  (1) 
-6.13147

>  <filename>  (1) 
S=C(Nc1ccccc1)Nc1sncc1-c1cccnc1

$$$$
