
     RDKit          3D

 33 35  0  0  0  0  0  0  0  0999 V2000
    9.1144   -3.3125   21.7662 H   0  0  0  0  0  0  0  0  0  0  0  0
    8.5663   -2.3781   21.7463 C   0  0  0  0  0  0  0  0  0  0  0  0
    8.0240   -1.8836   20.6853 N   0  0  0  0  0  0  0  0  0  0  0  0
    7.3857   -0.6987   20.9730 C   0  0  0  0  0  0  0  0  0  0  0  0
    6.6507    0.0006   19.9097 C   0  0  0  0  0  0  0  0  0  0  0  0
    7.1667    0.0411   18.6013 C   0  0  0  0  0  0  0  0  0  0  0  0
    8.1180   -0.4361   18.3714 H   0  0  0  0  0  0  0  0  0  0  0  0
    6.5679    0.6718   17.5876 N   0  0  0  0  0  0  0  0  0  0  0  0
    5.4032    1.2914   17.8404 C   0  0  0  0  0  0  0  0  0  0  0  0
    4.9318    1.7869   16.9948 H   0  0  0  0  0  0  0  0  0  0  0  0
    4.8022    1.3084   19.1018 C   0  0  0  0  0  0  0  0  0  0  0  0
    3.8739    1.8426   19.2480 H   0  0  0  0  0  0  0  0  0  0  0  0
    5.4290    0.6534   20.1573 C   0  0  0  0  0  0  0  0  0  0  0  0
    4.9987    0.6397   21.1599 H   0  0  0  0  0  0  0  0  0  0  0  0
    7.4863   -0.2943   22.2871 C   0  0  0  0  0  0  0  0  0  0  0  0
    6.9904    0.8683   22.8831 N   0  0  0  0  0  0  0  0  0  0  0  0
    7.1199    1.7318   22.3668 H   0  0  0  0  0  0  0  0  0  0  0  0
    6.8115    1.2230   24.2172 C   0  0  0  0  0  0  0  0  0  0  0  0
    7.2439    2.7523   24.6665 S   0  0  0  0  0  0  0  0  0  0  0  0
    6.2300    0.2722   24.9717 N   0  0  0  0  0  0  0  0  0  0  0  0
    6.1605   -0.6291   24.5293 H   0  0  0  0  0  0  0  0  0  0  0  0
    5.7006    0.4460   26.2878 C   0  0  0  0  0  0  0  0  0  0  0  0
    6.0068   -0.4944   27.2763 C   0  0  0  0  0  0  0  0  0  0  0  0
    6.6395   -1.3419   27.0274 H   0  0  0  0  0  0  0  0  0  0  0  0
    5.5105   -0.3275   28.5744 C   0  0  0  0  0  0  0  0  0  0  0  0
    5.7521   -1.0544   29.3448 H   0  0  0  0  0  0  0  0  0  0  0  0
    4.6974    0.7659   28.8873 C   0  0  0  0  0  0  0  0  0  0  0  0
    4.3140    0.8957   29.8959 H   0  0  0  0  0  0  0  0  0  0  0  0
    4.3766    1.6893   27.8894 C   0  0  0  0  0  0  0  0  0  0  0  0
    3.7457    2.5445   28.1196 H   0  0  0  0  0  0  0  0  0  0  0  0
    4.8671    1.5325   26.5925 C   0  0  0  0  0  0  0  0  0  0  0  0
    4.6199    2.2446   25.8126 H   0  0  0  0  0  0  0  0  0  0  0  0
    8.4025   -1.4509   23.1938 S   0  0  0  0  0  0  0  0  0  0  0  0
  1  2  1  0
  2  3  2  0
  3  4  1  0
  4  5  1  0
  5  6  2  0
  6  7  1  0
  6  8  1  0
  8  9  2  0
  9 10  1  0
  9 11  1  0
 11 12  1  0
 11 13  2  0
 13 14  1  0
  4 15  2  0
 15 16  1  0
 16 17  1  0
 16 18  1  0
 18 19  2  0
 18 20  1  0
 20 21  1  0
 20 22  1  0
 22 23  2  0
 23 24  1  0
 23 25  1  0
 25 26  1  0
 25 27  2  0
 27 28  1  0
 27 29  1  0
 29 30  1  0
 29 31  2  0
 31 32  1  0
 15 33  1  0
 33  2  1  0
 13  5  1  0
 31 22  1  0
M  END
>  <cnnaffinity>  (1) 
-5.20484

>  <filename>  (1) 
S=C(Nc1ccccc1)Nc1scnc1-c1cccnc1

$$$$
