
     RDKit          3D

 29 31  0  0  0  0  0  0  0  0999 V2000
    5.0694    1.7811   17.0435 H   0  0  0  0  0  0  0  0  0  0  0  0
    5.4983    1.2536   17.8899 C   0  0  0  0  0  0  0  0  0  0  0  0
    6.6413    0.5845   17.6552 N   0  0  0  0  0  0  0  0  0  0  0  0
    7.1975   -0.0692   18.6780 C   0  0  0  0  0  0  0  0  0  0  0  0
    8.1224   -0.6066   18.4674 H   0  0  0  0  0  0  0  0  0  0  0  0
    6.6618   -0.0863   19.9768 C   0  0  0  0  0  0  0  0  0  0  0  0
    7.3599   -0.8215   21.0578 C   0  0  0  0  0  0  0  0  0  0  0  0
    7.9840   -2.3128   20.8954 S   0  0  0  0  0  0  0  0  0  0  0  0
    7.5333   -0.0784   22.3660 C   0  0  0  0  0  0  0  0  0  0  0  0
    6.5542    0.2995   22.6864 H   0  0  0  0  0  0  0  0  0  0  0  0
    7.8501   -0.8149   23.1098 H   0  0  0  0  0  0  0  0  0  0  0  0
    8.5421    1.0619   22.2386 C   0  0  0  0  0  0  0  0  0  0  0  0
    8.1235    2.3954   22.1784 C   0  0  0  0  0  0  0  0  0  0  0  0
    7.0656    2.6275   22.0752 H   0  0  0  0  0  0  0  0  0  0  0  0
    9.0332    3.4662   22.2165 C   0  0  0  0  0  0  0  0  0  0  0  0
    8.7042    4.5020   22.1709 H   0  0  0  0  0  0  0  0  0  0  0  0
   10.3752    3.1413   22.2666 C   0  0  0  0  0  0  0  0  0  0  0  0
   10.8211    1.8130   22.2134 C   0  0  0  0  0  0  0  0  0  0  0  0
    9.9272    0.7626   22.1876 C   0  0  0  0  0  0  0  0  0  0  0  0
   10.2757   -0.2614   22.0985 H   0  0  0  0  0  0  0  0  0  0  0  0
   12.1930    1.8004   22.2207 O   0  0  0  0  0  0  0  0  0  0  0  0
   12.5341    3.1521   21.9231 C   0  0  0  0  0  0  0  0  0  0  0  0
   12.6629    3.2610   20.8385 H   0  0  0  0  0  0  0  0  0  0  0  0
   13.4394    3.4471   22.4541 H   0  0  0  0  0  0  0  0  0  0  0  0
   11.4577    3.9756   22.3418 O   0  0  0  0  0  0  0  0  0  0  0  0
    5.4683    0.6232   20.2031 C   0  0  0  0  0  0  0  0  0  0  0  0
    5.0061    0.6191   21.1905 H   0  0  0  0  0  0  0  0  0  0  0  0
    4.8693    1.2918   19.1388 C   0  0  0  0  0  0  0  0  0  0  0  0
    3.9440    1.8479   19.2643 H   0  0  0  0  0  0  0  0  0  0  0  0
  1  2  1  0
  2  3  2  0
  3  4  1  0
  4  5  1  0
  4  6  2  0
  6  7  1  0
  7  8  2  0
  7  9  1  0
  9 10  1  0
  9 11  1  0
  9 12  1  0
 12 13  2  0
 13 14  1  0
 13 15  1  0
 15 16  1  0
 15 17  2  0
 17 18  1  0
 18 19  2  0
 19 20  1  0
 18 21  1  0
 21 22  1  0
 22 23  1  0
 22 24  1  0
 22 25  1  0
  6 26  1  0
 26 27  1  0
 26 28  2  0
 28 29  1  0
 28  2  1  0
 19 12  1  0
 25 17  1  0
M  END
>  <cnnaffinity>  (1) 
-4.98752

>  <filename>  (1) 
S=C(Cc1ccc2c(c1)OCO2)c1cccnc1

$$$$
