
     RDKit          3D

 23 24  0  0  0  0  0  0  0  0999 V2000
    5.0139    1.7900   16.9708 H   0  0  0  0  0  0  0  0  0  0  0  0
    5.4644    1.2925   17.8287 C   0  0  0  0  0  0  0  0  0  0  0  0
    6.6260    0.6641   17.6042 N   0  0  0  0  0  0  0  0  0  0  0  0
    7.2049    0.0571   18.6455 C   0  0  0  0  0  0  0  0  0  0  0  0
    8.1528   -0.4491   18.4492 H   0  0  0  0  0  0  0  0  0  0  0  0
    6.6520    0.0190   19.9353 C   0  0  0  0  0  0  0  0  0  0  0  0
    7.3586   -0.7374   20.9998 C   0  0  0  0  0  0  0  0  0  0  0  0
    6.6367   -1.9353   21.8254 S   0  0  0  0  0  0  0  0  0  0  0  0
    8.8041   -0.3075   21.2651 C   0  0  0  0  0  0  0  0  0  0  0  0
    9.3061   -1.0859   21.8459 H   0  0  0  0  0  0  0  0  0  0  0  0
    9.3255   -0.2051   20.3047 H   0  0  0  0  0  0  0  0  0  0  0  0
    8.8716    1.0078   22.0056 C   0  0  0  0  0  0  0  0  0  0  0  0
    8.9368    2.5177   21.1714 S   0  0  0  0  0  0  0  0  0  0  0  0
    8.9116    3.3938   22.6574 C   0  0  0  0  0  0  0  0  0  0  0  0
    8.9419    5.1114   22.6611 Cl  0  0  0  0  0  0  0  0  0  0  0  0
    8.8446    2.5775   23.7437 C   0  0  0  0  0  0  0  0  0  0  0  0
    8.8053    2.9414   24.7635 H   0  0  0  0  0  0  0  0  0  0  0  0
    8.8195    1.2005   23.3560 C   0  0  0  0  0  0  0  0  0  0  0  0
    8.7546    0.3772   24.0554 H   0  0  0  0  0  0  0  0  0  0  0  0
    5.4293    0.6749   20.1541 C   0  0  0  0  0  0  0  0  0  0  0  0
    4.9783    0.7006   21.1482 H   0  0  0  0  0  0  0  0  0  0  0  0
    4.8293    1.3222   19.0733 C   0  0  0  0  0  0  0  0  0  0  0  0
    3.8893    1.8517   19.1811 H   0  0  0  0  0  0  0  0  0  0  0  0
  1  2  1  0
  2  3  2  0
  3  4  1  0
  4  5  1  0
  4  6  2  0
  6  7  1  0
  7  8  2  0
  7  9  1  0
  9 10  1  0
  9 11  1  0
  9 12  1  0
 12 13  1  0
 13 14  1  0
 14 15  1  0
 14 16  2  0
 16 17  1  0
 16 18  1  0
 18 19  1  0
  6 20  1  0
 20 21  1  0
 20 22  2  0
 22 23  1  0
 22  2  1  0
 18 12  2  0
M  END
>  <cnnaffinity>  (1) 
-4.60875

>  <filename>  (1) 
S=C(Cc1ccc(Cl)s1)c1cccnc1

$$$$
