
     RDKit          3D

 33 35  0  0  0  0  0  0  0  0999 V2000
    9.7794   -2.5474   21.8477 H   0  0  0  0  0  0  0  0  0  0  0  0
    8.8586   -1.9763   21.8353 C   0  0  0  0  0  0  0  0  0  0  0  0
    8.4405   -1.3457   20.7014 N   0  0  0  0  0  0  0  0  0  0  0  0
    7.2975   -0.7525   20.9011 C   0  0  0  0  0  0  0  0  0  0  0  0
    6.5939    0.0080   19.8776 C   0  0  0  0  0  0  0  0  0  0  0  0
    7.1653    0.0583   18.5945 C   0  0  0  0  0  0  0  0  0  0  0  0
    8.1162   -0.4354   18.4006 H   0  0  0  0  0  0  0  0  0  0  0  0
    6.6028    0.6903   17.5646 N   0  0  0  0  0  0  0  0  0  0  0  0
    5.4385    1.3178   17.7823 C   0  0  0  0  0  0  0  0  0  0  0  0
    4.9876    1.8009   16.9202 H   0  0  0  0  0  0  0  0  0  0  0  0
    4.8032    1.3552   19.0279 C   0  0  0  0  0  0  0  0  0  0  0  0
    3.8651    1.8837   19.1377 H   0  0  0  0  0  0  0  0  0  0  0  0
    5.3919    0.7000   20.1040 C   0  0  0  0  0  0  0  0  0  0  0  0
    4.9282    0.7385   21.0899 H   0  0  0  0  0  0  0  0  0  0  0  0
    6.6509   -0.9343   22.5076 S   0  0  0  0  0  0  0  0  0  0  0  0
    8.0387   -1.8504   22.9178 C   0  0  0  0  0  0  0  0  0  0  0  0
    8.1567   -2.3471   24.2140 N   0  0  0  0  0  0  0  0  0  0  0  0
    7.3817   -2.8481   24.6153 H   0  0  0  0  0  0  0  0  0  0  0  0
    9.3141   -2.4137   24.9194 C   0  0  0  0  0  0  0  0  0  0  0  0
   10.4834   -1.2640   24.8084 S   0  0  0  0  0  0  0  0  0  0  0  0
    9.4137   -3.5175   25.7037 N   0  0  0  0  0  0  0  0  0  0  0  0
   10.2756   -3.5211   26.2208 H   0  0  0  0  0  0  0  0  0  0  0  0
    8.5396   -4.6212   25.8279 C   0  0  0  0  0  0  0  0  0  0  0  0
    8.4502   -5.2687   27.0648 C   0  0  0  0  0  0  0  0  0  0  0  0
    9.1558   -5.0115   27.8511 H   0  0  0  0  0  0  0  0  0  0  0  0
    7.4348   -6.2050   27.2813 C   0  0  0  0  0  0  0  0  0  0  0  0
    7.3639   -6.7062   28.2433 H   0  0  0  0  0  0  0  0  0  0  0  0
    6.5092   -6.5002   26.2714 C   0  0  0  0  0  0  0  0  0  0  0  0
    5.6895   -7.1875   26.4633 H   0  0  0  0  0  0  0  0  0  0  0  0
    6.6693   -5.9228   25.0076 C   0  0  0  0  0  0  0  0  0  0  0  0
    5.9949   -6.1749   24.1931 H   0  0  0  0  0  0  0  0  0  0  0  0
    7.7298   -5.0521   24.7603 C   0  0  0  0  0  0  0  0  0  0  0  0
    7.9264   -4.7016   23.7548 H   0  0  0  0  0  0  0  0  0  0  0  0
  1  2  1  0
  2  3  1  0
  3  4  2  0
  4  5  1  0
  5  6  2  0
  6  7  1  0
  6  8  1  0
  8  9  2  0
  9 10  1  0
  9 11  1  0
 11 12  1  0
 11 13  2  0
 13 14  1  0
  4 15  1  0
 15 16  1  0
 16 17  1  0
 17 18  1  0
 17 19  1  0
 19 20  2  0
 19 21  1  0
 21 22  1  0
 21 23  1  0
 23 24  2  0
 24 25  1  0
 24 26  1  0
 26 27  1  0
 26 28  2  0
 28 29  1  0
 28 30  1  0
 30 31  1  0
 30 32  2  0
 32 33  1  0
 16  2  2  0
 32 23  1  0
 13  5  1  0
M  END
>  <cnnaffinity>  (1) 
-4.85605

>  <filename>  (1) 
S=C(Nc1ccccc1)Nc1cnc(-c2cccnc2)s1

$$$$
