
     RDKit          3D

 25 26  0  0  0  0  0  0  0  0999 V2000
    4.9254    1.7882   16.9912 H   0  0  0  0  0  0  0  0  0  0  0  0
    5.4042    1.2925   17.8321 C   0  0  0  0  0  0  0  0  0  0  0  0
    6.5673    0.6737   17.5772 N   0  0  0  0  0  0  0  0  0  0  0  0
    7.1730    0.0445   18.5945 C   0  0  0  0  0  0  0  0  0  0  0  0
    8.1290   -0.4279   18.3738 H   0  0  0  0  0  0  0  0  0  0  0  0
    6.6513   -0.0093   19.9050 C   0  0  0  0  0  0  0  0  0  0  0  0
    7.3328   -0.6886   20.9656 N   0  0  0  0  0  0  0  0  0  0  0  0
    7.7545   -1.5857   20.7798 H   0  0  0  0  0  0  0  0  0  0  0  0
    7.5612   -0.1979   22.2120 C   0  0  0  0  0  0  0  0  0  0  0  0
    7.3597    1.3756   22.6538 S   0  0  0  0  0  0  0  0  0  0  0  0
    8.0170   -1.2148   23.2271 C   0  0  0  0  0  0  0  0  0  0  0  0
    7.2333   -1.4467   24.3766 C   0  0  0  0  0  0  0  0  0  0  0  0
    6.2912   -0.9191   24.5024 H   0  0  0  0  0  0  0  0  0  0  0  0
    7.6556   -2.3115   25.3849 C   0  0  0  0  0  0  0  0  0  0  0  0
    7.0506   -2.4958   26.2646 H   0  0  0  0  0  0  0  0  0  0  0  0
    8.8906   -2.9491   25.2525 C   0  0  0  0  0  0  0  0  0  0  0  0
    9.4241   -4.0493   26.4829 Cl  0  0  0  0  0  0  0  0  0  0  0  0
    9.7115   -2.7247   24.1501 C   0  0  0  0  0  0  0  0  0  0  0  0
   10.6718   -3.2190   24.0552 H   0  0  0  0  0  0  0  0  0  0  0  0
    9.2643   -1.8589   23.1490 C   0  0  0  0  0  0  0  0  0  0  0  0
   10.3351   -1.5508   21.8188 Cl  0  0  0  0  0  0  0  0  0  0  0  0
    5.4359    0.6380   20.1562 C   0  0  0  0  0  0  0  0  0  0  0  0
    5.0230    0.6208   21.1652 H   0  0  0  0  0  0  0  0  0  0  0  0
    4.8118    1.3022   19.0985 C   0  0  0  0  0  0  0  0  0  0  0  0
    3.8857    1.8360   19.2565 H   0  0  0  0  0  0  0  0  0  0  0  0
  1  2  1  0
  2  3  2  0
  3  4  1  0
  4  5  1  0
  4  6  2  0
  6  7  1  0
  7  8  1  0
  7  9  1  0
  9 10  2  0
  9 11  1  0
 11 12  2  0
 12 13  1  0
 12 14  1  0
 14 15  1  0
 14 16  2  0
 16 17  1  0
 16 18  1  0
 18 19  1  0
 18 20  2  0
 20 21  1  0
  6 22  1  0
 22 23  1  0
 22 24  2  0
 24 25  1  0
 24  2  1  0
 20 11  1  0
M  END
>  <cnnaffinity>  (1) 
-5.13658

>  <filename>  (1) 
S=C(Nc1cccnc1)c1ccc(Cl)cc1Cl

$$$$
