
     RDKit          3D

 38 40  0  0  0  0  0  0  0  0999 V2000
    6.1723   -6.7832   27.1792 H   0  0  0  0  0  0  0  0  0  0  0  0
    7.0244   -6.1133   27.0873 C   0  0  0  0  0  0  0  0  0  0  0  0
    6.9112   -5.1958   26.1163 N   0  0  0  0  0  0  0  0  0  0  0  0
    7.9360   -4.3476   25.9481 C   0  0  0  0  0  0  0  0  0  0  0  0
    7.7950   -3.3503   25.0118 N   0  0  0  0  0  0  0  0  0  0  0  0
    6.6070   -3.2490   24.1583 C   0  0  0  0  0  0  0  0  0  0  0  0
    5.8065   -2.6959   24.6700 H   0  0  0  0  0  0  0  0  0  0  0  0
    6.2116   -4.2404   23.9455 H   0  0  0  0  0  0  0  0  0  0  0  0
    6.9574   -2.5346   22.8470 C   0  0  0  0  0  0  0  0  0  0  0  0
    7.6996   -3.1451   22.3135 H   0  0  0  0  0  0  0  0  0  0  0  0
    6.0584   -2.4846   22.2265 H   0  0  0  0  0  0  0  0  0  0  0  0
    7.4781   -1.1654   23.0913 N   0  0  0  0  0  0  0  0  0  0  0  0
    7.3125   -0.1317   22.2069 C   0  0  0  0  0  0  0  0  0  0  0  0
    7.2801    1.4627   22.6716 S   0  0  0  0  0  0  0  0  0  0  0  0
    7.2282   -0.5559   20.8993 N   0  0  0  0  0  0  0  0  0  0  0  0
    7.5362   -1.5079   20.7921 H   0  0  0  0  0  0  0  0  0  0  0  0
    6.6104    0.0933   19.7889 C   0  0  0  0  0  0  0  0  0  0  0  0
    7.1540    0.0611   18.4806 C   0  0  0  0  0  0  0  0  0  0  0  0
    8.0896   -0.4645   18.2868 H   0  0  0  0  0  0  0  0  0  0  0  0
    6.5873    0.6622   17.4234 N   0  0  0  0  0  0  0  0  0  0  0  0
    5.4352    1.3261   17.6244 C   0  0  0  0  0  0  0  0  0  0  0  0
    4.9988    1.8120   16.7546 H   0  0  0  0  0  0  0  0  0  0  0  0
    4.8004    1.3902   18.8681 C   0  0  0  0  0  0  0  0  0  0  0  0
    3.8715    1.9407   18.9770 H   0  0  0  0  0  0  0  0  0  0  0  0
    5.3938    0.7639   19.9675 C   0  0  0  0  0  0  0  0  0  0  0  0
    4.9532    0.7883   20.9634 H   0  0  0  0  0  0  0  0  0  0  0  0
    7.9721   -0.9202   24.4619 C   0  0  0  0  0  0  0  0  0  0  0  0
    8.6772   -0.0872   24.4606 H   0  0  0  0  0  0  0  0  0  0  0  0
    7.1399   -0.6364   25.1192 H   0  0  0  0  0  0  0  0  0  0  0  0
    8.6722   -2.1652   25.0243 C   0  0  0  0  0  0  0  0  0  0  0  0
    9.5801   -2.3391   24.4300 H   0  0  0  0  0  0  0  0  0  0  0  0
    8.9859   -1.9251   26.0465 H   0  0  0  0  0  0  0  0  0  0  0  0
    9.1346   -4.4577   26.6913 C   0  0  0  0  0  0  0  0  0  0  0  0
    9.9666   -3.8190   26.4428 H   0  0  0  0  0  0  0  0  0  0  0  0
    9.2146   -5.3867   27.7161 C   0  0  0  0  0  0  0  0  0  0  0  0
   10.1073   -5.4302   28.3395 H   0  0  0  0  0  0  0  0  0  0  0  0
    8.1261   -6.2383   27.9312 C   0  0  0  0  0  0  0  0  0  0  0  0
    8.1451   -6.9772   28.7255 H   0  0  0  0  0  0  0  0  0  0  0  0
  1  2  1  0
  2  3  2  0
  3  4  1  0
  4  5  1  0
  5  6  1  0
  6  7  1  0
  6  8  1  0
  6  9  1  0
  9 10  1  0
  9 11  1  0
  9 12  1  0
 12 13  1  0
 13 14  2  0
 13 15  1  0
 15 16  1  0
 15 17  1  0
 17 18  2  0
 18 19  1  0
 18 20  1  0
 20 21  2  0
 21 22  1  0
 21 23  1  0
 23 24  1  0
 23 25  2  0
 25 26  1  0
 12 27  1  0
 27 28  1  0
 27 29  1  0
 27 30  1  0
 30 31  1  0
 30 32  1  0
  4 33  2  0
 33 34  1  0
 33 35  1  0
 35 36  1  0
 35 37  2  0
 37 38  1  0
 37  2  1  0
 30  5  1  0
 25 17  1  0
M  END
>  <cnnaffinity>  (1) 
-5.0135

>  <filename>  (1) 
S=C(Nc1cccnc1)N1CCN(c2ccccn2)CC1

$$$$
