
     RDKit          3D

 32 34  0  0  0  0  0  0  0  0999 V2000
    5.0288    1.8927   16.6464 H   0  0  0  0  0  0  0  0  0  0  0  0
    5.4165    1.4048   17.5404 C   0  0  0  0  0  0  0  0  0  0  0  0
    6.5704    0.7375   17.4000 N   0  0  0  0  0  0  0  0  0  0  0  0
    7.0867    0.1495   18.4836 C   0  0  0  0  0  0  0  0  0  0  0  0
    8.0335   -0.3659   18.3320 H   0  0  0  0  0  0  0  0  0  0  0  0
    6.4763    0.1755   19.7459 C   0  0  0  0  0  0  0  0  0  0  0  0
    7.1616   -0.5145   20.8452 C   0  0  0  0  0  0  0  0  0  0  0  0
    6.6507   -0.5921   22.0465 N   0  0  0  0  0  0  0  0  0  0  0  0
    7.6182   -1.3332   22.7485 O   0  0  0  0  0  0  0  0  0  0  0  0
    8.5716   -1.6178   21.8648 C   0  0  0  0  0  0  0  0  0  0  0  0
    9.6433   -2.3447   22.2488 N   0  0  0  0  0  0  0  0  0  0  0  0
   10.4268   -2.2876   21.6265 H   0  0  0  0  0  0  0  0  0  0  0  0
    9.8491   -3.1490   23.3575 C   0  0  0  0  0  0  0  0  0  0  0  0
   11.3822   -3.5952   23.7237 S   0  0  0  0  0  0  0  0  0  0  0  0
    8.7187   -3.4939   23.9939 N   0  0  0  0  0  0  0  0  0  0  0  0
    7.9526   -2.8686   23.8305 H   0  0  0  0  0  0  0  0  0  0  0  0
    8.5635   -4.3465   25.1109 C   0  0  0  0  0  0  0  0  0  0  0  0
    9.1547   -5.6092   25.1695 C   0  0  0  0  0  0  0  0  0  0  0  0
    9.7898   -5.9523   24.3637 H   0  0  0  0  0  0  0  0  0  0  0  0
    8.9272   -6.4092   26.2927 C   0  0  0  0  0  0  0  0  0  0  0  0
    9.3952   -7.3850   26.3420 H   0  0  0  0  0  0  0  0  0  0  0  0
    8.1431   -5.9505   27.3594 C   0  0  0  0  0  0  0  0  0  0  0  0
    8.0171   -6.5594   28.2501 H   0  0  0  0  0  0  0  0  0  0  0  0
    7.5547   -4.6829   27.2808 C   0  0  0  0  0  0  0  0  0  0  0  0
    6.9365   -4.3016   28.0873 H   0  0  0  0  0  0  0  0  0  0  0  0
    7.7447   -3.8899   26.1463 C   0  0  0  0  0  0  0  0  0  0  0  0
    7.2922   -2.9049   26.0496 H   0  0  0  0  0  0  0  0  0  0  0  0
    8.3801   -1.1336   20.6797 N   0  0  0  0  0  0  0  0  0  0  0  0
    5.2560    0.8648   19.8808 C   0  0  0  0  0  0  0  0  0  0  0  0
    4.7368    0.9194   20.8393 H   0  0  0  0  0  0  0  0  0  0  0  0
    4.7261    1.4920   18.7541 C   0  0  0  0  0  0  0  0  0  0  0  0
    3.8040    2.0619   18.8016 H   0  0  0  0  0  0  0  0  0  0  0  0
  1  2  1  0
  2  3  2  0
  3  4  1  0
  4  5  1  0
  4  6  2  0
  6  7  1  0
  7  8  2  0
  8  9  1  0
  9 10  1  0
 10 11  1  0
 11 12  1  0
 11 13  1  0
 13 14  2  0
 13 15  1  0
 15 16  1  0
 15 17  1  0
 17 18  2  0
 18 19  1  0
 18 20  1  0
 20 21  1  0
 20 22  2  0
 22 23  1  0
 22 24  1  0
 24 25  1  0
 24 26  2  0
 26 27  1  0
 10 28  2  0
  6 29  1  0
 29 30  1  0
 29 31  2  0
 31 32  1  0
 31  2  1  0
 28  7  1  0
 26 17  1  0
M  END
>  <cnnaffinity>  (1) 
-5.50745

>  <filename>  (1) 
S=C(Nc1ccccc1)Nc1nc(-c2cccnc2)no1

$$$$
