
     RDKit          3D

 26 27  0  0  0  0  0  0  0  0999 V2000
    4.9702    1.7645   17.0061 H   0  0  0  0  0  0  0  0  0  0  0  0
    5.4530    1.2516   17.8334 C   0  0  0  0  0  0  0  0  0  0  0  0
    6.5938    0.5791   17.6050 N   0  0  0  0  0  0  0  0  0  0  0  0
    7.1701   -0.0494   18.6437 C   0  0  0  0  0  0  0  0  0  0  0  0
    8.0995   -0.5764   18.4555 H   0  0  0  0  0  0  0  0  0  0  0  0
    6.6478   -0.0262   19.9450 C   0  0  0  0  0  0  0  0  0  0  0  0
    7.3512   -0.6939   21.0355 C   0  0  0  0  0  0  0  0  0  0  0  0
    8.1844   -2.1084   20.8066 S   0  0  0  0  0  0  0  0  0  0  0  0
    7.5122   -0.0377   22.3614 C   0  0  0  0  0  0  0  0  0  0  0  0
    6.5743    0.4347   22.6653 H   0  0  0  0  0  0  0  0  0  0  0  0
    7.7655   -0.7830   23.1212 H   0  0  0  0  0  0  0  0  0  0  0  0
    8.6167    0.9819   22.2390 C   0  0  0  0  0  0  0  0  0  0  0  0
    9.9735    0.6156   22.2283 C   0  0  0  0  0  0  0  0  0  0  0  0
   10.2223   -0.4357   22.2819 H   0  0  0  0  0  0  0  0  0  0  0  0
   10.9975    1.5778   22.1854 C   0  0  0  0  0  0  0  0  0  0  0  0
   12.0431    1.2727   22.2007 H   0  0  0  0  0  0  0  0  0  0  0  0
   10.6577    2.9364   22.1745 C   0  0  0  0  0  0  0  0  0  0  0  0
   11.9844    4.3140   22.2216 Br  0  0  0  0  0  0  0  0  0  0  0  0
    9.3077    3.2944   22.1368 C   0  0  0  0  0  0  0  0  0  0  0  0
    9.0367    4.3414   22.1016 H   0  0  0  0  0  0  0  0  0  0  0  0
    8.2957    2.3314   22.1372 C   0  0  0  0  0  0  0  0  0  0  0  0
    7.2568    2.6429   22.0866 H   0  0  0  0  0  0  0  0  0  0  0  0
    5.4641    0.6730   20.1855 C   0  0  0  0  0  0  0  0  0  0  0  0
    5.0177    0.7195   21.1808 H   0  0  0  0  0  0  0  0  0  0  0  0
    4.8632    1.3087   19.1020 C   0  0  0  0  0  0  0  0  0  0  0  0
    3.9398    1.8599   19.2286 H   0  0  0  0  0  0  0  0  0  0  0  0
  1  2  1  0
  2  3  2  0
  3  4  1  0
  4  5  1  0
  4  6  2  0
  6  7  1  0
  7  8  2  0
  7  9  1  0
  9 10  1  0
  9 11  1  0
  9 12  1  0
 12 13  2  0
 13 14  1  0
 13 15  1  0
 15 16  1  0
 15 17  2  0
 17 18  1  0
 17 19  1  0
 19 20  1  0
 19 21  2  0
 21 22  1  0
  6 23  1  0
 23 24  1  0
 23 25  2  0
 25 26  1  0
 25  2  1  0
 21 12  1  0
M  END
>  <cnnaffinity>  (1) 
-5.28985

>  <filename>  (1) 
S=C(Cc1ccc(Br)cc1)c1cccnc1

$$$$
