
     RDKit          3D

 33 35  0  0  0  0  0  0  0  0999 V2000
    7.5999    1.0833   22.2782 H   0  0  0  0  0  0  0  0  0  0  0  0
    7.7007    0.0227   22.1440 C   0  0  0  0  0  0  0  0  0  0  0  0
    7.3363   -0.5935   21.0119 C   0  0  0  0  0  0  0  0  0  0  0  0
    6.6626    0.0642   19.8909 C   0  0  0  0  0  0  0  0  0  0  0  0
    7.1923    0.0230   18.5907 C   0  0  0  0  0  0  0  0  0  0  0  0
    8.1364   -0.4894   18.4032 H   0  0  0  0  0  0  0  0  0  0  0  0
    6.6141    0.6118   17.5389 N   0  0  0  0  0  0  0  0  0  0  0  0
    5.4563    1.2587   17.7444 C   0  0  0  0  0  0  0  0  0  0  0  0
    5.0047    1.7183   16.8674 H   0  0  0  0  0  0  0  0  0  0  0  0
    4.8359    1.3442   18.9957 C   0  0  0  0  0  0  0  0  0  0  0  0
    3.8940    1.8682   19.0959 H   0  0  0  0  0  0  0  0  0  0  0  0
    5.4609    0.7589   20.0943 C   0  0  0  0  0  0  0  0  0  0  0  0
    5.0335    0.8183   21.0943 H   0  0  0  0  0  0  0  0  0  0  0  0
    7.5469   -1.9614   20.8870 N   0  0  0  0  0  0  0  0  0  0  0  0
    7.1361   -2.5064   20.1481 H   0  0  0  0  0  0  0  0  0  0  0  0
    8.0758   -2.7358   21.8710 C   0  0  0  0  0  0  0  0  0  0  0  0
    8.0814   -4.3828   21.7524 S   0  0  0  0  0  0  0  0  0  0  0  0
    8.6002   -2.0755   22.9104 N   0  0  0  0  0  0  0  0  0  0  0  0
    8.9788   -2.6533   23.6375 H   0  0  0  0  0  0  0  0  0  0  0  0
    8.3307   -0.7072   23.2719 C   0  0  1  0  0  0  0  0  0  0  0  0
    7.6872   -0.6717   24.1714 H   0  0  0  0  0  0  0  0  0  0  0  0
    9.6482   -0.2287   23.6413 N   0  0  0  0  0  0  0  0  0  0  0  0
   10.3083   -0.5797   22.9627 H   0  0  0  0  0  0  0  0  0  0  0  0
    9.8622    1.1004   23.9387 C   0  0  0  0  0  0  0  0  0  0  0  0
   11.1145    1.6566   23.6940 C   0  0  0  0  0  0  0  0  0  0  0  0
   11.9224    1.0313   23.3358 H   0  0  0  0  0  0  0  0  0  0  0  0
   11.2953    3.0063   23.9575 C   0  0  0  0  0  0  0  0  0  0  0  0
   12.2552    3.4814   23.7542 H   0  0  0  0  0  0  0  0  0  0  0  0
   10.3441    3.8127   24.4492 N   0  0  0  0  0  0  0  0  0  0  0  0
    9.1581    3.2484   24.7056 C   0  0  0  0  0  0  0  0  0  0  0  0
    8.3833    3.9092   25.0939 H   0  0  0  0  0  0  0  0  0  0  0  0
    8.8680    1.9074   24.4955 C   0  0  0  0  0  0  0  0  0  0  0  0
    7.9139    1.4904   24.7799 H   0  0  0  0  0  0  0  0  0  0  0  0
  1  2  1  0
  2  3  2  0
  3  4  1  0
  4  5  2  0
  5  6  1  0
  5  7  1  0
  7  8  2  0
  8  9  1  0
  8 10  1  0
 10 11  1  0
 10 12  2  0
 12 13  1  0
  3 14  1  0
 14 15  1  0
 14 16  1  0
 16 17  2  0
 16 18  1  0
 18 19  1  0
 18 20  1  0
 20 21  1  1
 20 22  1  0
 22 23  1  0
 22 24  1  0
 24 25  2  0
 25 26  1  0
 25 27  1  0
 27 28  1  0
 27 29  2  0
 29 30  1  0
 30 31  1  0
 30 32  2  0
 32 33  1  0
 20  2  1  0
 32 24  1  0
 12  4  1  0
M  END
>  <cnnaffinity>  (1) 
-5.2749

>  <filename>  (1) 
S=C1NC(c2cccnc2)=C[C@H](Nc2ccncc2)N1

$$$$
