
     RDKit          3D

 34 36  0  0  0  0  0  0  0  0999 V2000
    7.6023    1.0881   22.2766 H   0  0  0  0  0  0  0  0  0  0  0  0
    7.6999    0.0245   22.1416 C   0  0  0  0  0  0  0  0  0  0  0  0
    7.3305   -0.5988   21.0143 C   0  0  0  0  0  0  0  0  0  0  0  0
    6.6563    0.0652   19.8928 C   0  0  0  0  0  0  0  0  0  0  0  0
    7.1879    0.0234   18.5939 C   0  0  0  0  0  0  0  0  0  0  0  0
    8.1329   -0.4855   18.4049 H   0  0  0  0  0  0  0  0  0  0  0  0
    6.6137    0.6063   17.5356 N   0  0  0  0  0  0  0  0  0  0  0  0
    5.4567    1.2577   17.7365 C   0  0  0  0  0  0  0  0  0  0  0  0
    5.0063    1.7219   16.8612 H   0  0  0  0  0  0  0  0  0  0  0  0
    4.8327    1.3459   18.9863 C   0  0  0  0  0  0  0  0  0  0  0  0
    3.8913    1.8755   19.0878 H   0  0  0  0  0  0  0  0  0  0  0  0
    5.4557    0.7619   20.0889 C   0  0  0  0  0  0  0  0  0  0  0  0
    5.0255    0.8228   21.0900 H   0  0  0  0  0  0  0  0  0  0  0  0
    7.5597   -1.9656   20.8835 N   0  0  0  0  0  0  0  0  0  0  0  0
    7.1443   -2.5059   20.1408 H   0  0  0  0  0  0  0  0  0  0  0  0
    8.0903   -2.7448   21.8658 C   0  0  0  0  0  0  0  0  0  0  0  0
    8.1254   -4.3960   21.7189 S   0  0  0  0  0  0  0  0  0  0  0  0
    8.6048   -2.0830   22.9140 N   0  0  0  0  0  0  0  0  0  0  0  0
    9.0085   -2.6371   23.6430 H   0  0  0  0  0  0  0  0  0  0  0  0
    8.3315   -0.7085   23.2680 C   0  0  1  0  0  0  0  0  0  0  0  0
    7.6918   -0.6627   24.1701 H   0  0  0  0  0  0  0  0  0  0  0  0
    9.6459   -0.2190   23.6409 N   0  0  0  0  0  0  0  0  0  0  0  0
   10.2985   -0.5460   22.9398 H   0  0  0  0  0  0  0  0  0  0  0  0
    9.8546    1.1387   23.9244 C   0  0  0  0  0  0  0  0  0  0  0  0
    8.8601    1.9416   24.5009 C   0  0  0  0  0  0  0  0  0  0  0  0
    7.9149    1.4833   24.7699 H   0  0  0  0  0  0  0  0  0  0  0  0
    9.0884    3.2997   24.7437 C   0  0  0  0  0  0  0  0  0  0  0  0
    8.2982    3.9207   25.1503 H   0  0  0  0  0  0  0  0  0  0  0  0
   10.3307    3.8568   24.4374 C   0  0  0  0  0  0  0  0  0  0  0  0
   10.6130    5.5453   24.7535 Cl  0  0  0  0  0  0  0  0  0  0  0  0
   11.3532    3.0611   23.9129 C   0  0  0  0  0  0  0  0  0  0  0  0
   12.3185    3.5099   23.6956 H   0  0  0  0  0  0  0  0  0  0  0  0
   11.1085    1.7069   23.6572 C   0  0  0  0  0  0  0  0  0  0  0  0
   11.8922    1.0605   23.2737 H   0  0  0  0  0  0  0  0  0  0  0  0
  1  2  1  0
  2  3  2  0
  3  4  1  0
  4  5  2  0
  5  6  1  0
  5  7  1  0
  7  8  2  0
  8  9  1  0
  8 10  1  0
 10 11  1  0
 10 12  2  0
 12 13  1  0
  3 14  1  0
 14 15  1  0
 14 16  1  0
 16 17  2  0
 16 18  1  0
 18 19  1  0
 18 20  1  0
 20 21  1  1
 20 22  1  0
 22 23  1  0
 22 24  1  0
 24 25  2  0
 25 26  1  0
 25 27  1  0
 27 28  1  0
 27 29  2  0
 29 30  1  0
 29 31  1  0
 31 32  1  0
 31 33  2  0
 33 34  1  0
 20  2  1  0
 33 24  1  0
 12  4  1  0
M  END
>  <cnnaffinity>  (1) 
-5.3909

>  <filename>  (1) 
S=C1NC(c2cccnc2)=C[C@H](Nc2ccc(Cl)cc2)N1

$$$$
