
     RDKit          3D

 30 32  0  0  0  0  0  0  0  0999 V2000
    4.9674    1.8489   17.0126 H   0  0  0  0  0  0  0  0  0  0  0  0
    5.4383    1.3030   17.8252 C   0  0  0  0  0  0  0  0  0  0  0  0
    6.5971    0.6893   17.5353 N   0  0  0  0  0  0  0  0  0  0  0  0
    7.1908    0.0184   18.5261 C   0  0  0  0  0  0  0  0  0  0  0  0
    8.1365   -0.4635   18.2921 H   0  0  0  0  0  0  0  0  0  0  0  0
    6.6572   -0.1019   19.8221 C   0  0  0  0  0  0  0  0  0  0  0  0
    7.3885   -0.8077   20.8182 N   0  0  0  0  0  0  0  0  0  0  0  0
    8.6981   -0.4621   21.1528 C   0  0  0  0  0  0  0  0  0  0  0  0
    9.2486    0.3047   20.6416 H   0  0  0  0  0  0  0  0  0  0  0  0
    9.0763   -1.2902   22.1410 C   0  0  0  0  0  0  0  0  0  0  0  0
   10.2246   -1.4693   22.8767 N   0  0  0  0  0  0  0  0  0  0  0  0
   10.4641   -2.4427   22.9578 H   0  0  0  0  0  0  0  0  0  0  0  0
   11.3399   -0.6718   22.6348 C   0  0  0  0  0  0  0  0  0  0  0  0
   12.5766   -1.2641   22.3998 C   0  0  0  0  0  0  0  0  0  0  0  0
   12.6743   -2.3320   22.2593 H   0  0  0  0  0  0  0  0  0  0  0  0
   13.6966   -0.4429   22.3649 C   0  0  0  0  0  0  0  0  0  0  0  0
   14.6941   -0.8711   22.2645 H   0  0  0  0  0  0  0  0  0  0  0  0
   13.6392    0.8899   22.4694 N   0  0  0  0  0  0  0  0  0  0  0  0
   12.4281    1.4467   22.5973 C   0  0  0  0  0  0  0  0  0  0  0  0
   12.3962    2.5371   22.6314 H   0  0  0  0  0  0  0  0  0  0  0  0
   11.2484    0.7163   22.6801 C   0  0  0  0  0  0  0  0  0  0  0  0
   10.2785    1.1838   22.7817 H   0  0  0  0  0  0  0  0  0  0  0  0
    8.0394   -2.1498   22.3771 N   0  0  0  0  0  0  0  0  0  0  0  0
    7.9655   -2.7142   23.1984 H   0  0  0  0  0  0  0  0  0  0  0  0
    6.9689   -1.8826   21.5756 C   0  0  0  0  0  0  0  0  0  0  0  0
    5.5576   -2.7580   21.5297 S   0  0  0  0  0  0  0  0  0  0  0  0
    5.4505    0.5382   20.1210 C   0  0  0  0  0  0  0  0  0  0  0  0
    5.0415    0.4984   21.1341 H   0  0  0  0  0  0  0  0  0  0  0  0
    4.8377    1.2596   19.0907 C   0  0  0  0  0  0  0  0  0  0  0  0
    3.9172    1.8045   19.2655 H   0  0  0  0  0  0  0  0  0  0  0  0
  1  2  1  0
  2  3  2  0
  3  4  1  0
  4  5  1  0
  4  6  2  0
  6  7  1  0
  7  8  1  0
  8  9  1  0
  8 10  2  0
 10 11  1  0
 11 12  1  0
 11 13  1  0
 13 14  2  0
 14 15  1  0
 14 16  1  0
 16 17  1  0
 16 18  2  0
 18 19  1  0
 19 20  1  0
 19 21  2  0
 21 22  1  0
 10 23  1  0
 23 24  1  0
 23 25  1  0
 25 26  2  0
  6 27  1  0
 27 28  1  0
 27 29  2  0
 29 30  1  0
 29  2  1  0
 25  7  1  0
 21 13  1  0
M  END
>  <cnnaffinity>  (1) 
-5.21279

>  <filename>  (1) 
S=c1[nH]c(Nc2ccncc2)cn1-c1cccnc1

$$$$
