
     RDKit          3D

 34 37  0  0  0  0  0  0  0  0999 V2000
    5.0429    1.9572   16.5859 H   0  0  0  0  0  0  0  0  0  0  0  0
    5.4877    1.4382   17.4356 C   0  0  0  0  0  0  0  0  0  0  0  0
    6.6255    0.7641   17.2004 N   0  0  0  0  0  0  0  0  0  0  0  0
    7.1991    0.1241   18.2311 C   0  0  0  0  0  0  0  0  0  0  0  0
    8.1135   -0.4126   17.9803 H   0  0  0  0  0  0  0  0  0  0  0  0
    6.6767    0.1047   19.5422 C   0  0  0  0  0  0  0  0  0  0  0  0
    7.2906   -0.6182   20.6783 C   0  0  0  0  0  0  0  0  0  0  0  0
    6.7170   -1.1971   21.7590 C   0  0  0  0  0  0  0  0  0  0  0  0
    5.6729   -1.3924   21.9490 H   0  0  0  0  0  0  0  0  0  0  0  0
    7.7372   -1.6360   22.6221 N   0  0  0  0  0  0  0  0  0  0  0  0
    7.6045   -2.3317   23.8520 C   0  0  0  0  0  0  0  0  0  0  0  0
    8.4829   -3.2707   24.0734 N   0  0  0  0  0  0  0  0  0  0  0  0
    8.4410   -3.9160   25.2731 C   0  0  0  0  0  0  0  0  0  0  0  0
    9.5499   -4.7347   25.6055 C   0  0  0  0  0  0  0  0  0  0  0  0
   10.3530   -4.7579   24.8760 H   0  0  0  0  0  0  0  0  0  0  0  0
    9.5796   -5.3940   26.8143 C   0  0  0  0  0  0  0  0  0  0  0  0
   10.4555   -5.9768   27.0656 H   0  0  0  0  0  0  0  0  0  0  0  0
    8.4875   -5.3005   27.7220 C   0  0  0  0  0  0  0  0  0  0  0  0
    8.5324   -5.8506   28.6579 H   0  0  0  0  0  0  0  0  0  0  0  0
    7.4040   -4.5009   27.4292 C   0  0  0  0  0  0  0  0  0  0  0  0
    6.5640   -4.4286   28.1176 H   0  0  0  0  0  0  0  0  0  0  0  0
    7.3902   -3.7392   26.2223 C   0  0  0  0  0  0  0  0  0  0  0  0
    6.4309   -2.7193   25.9304 C   0  0  0  0  0  0  0  0  0  0  0  0
    5.6526   -2.5185   26.6677 H   0  0  0  0  0  0  0  0  0  0  0  0
    6.5501   -1.9895   24.7701 C   0  0  0  0  0  0  0  0  0  0  0  0
    5.8933   -1.1484   24.5578 H   0  0  0  0  0  0  0  0  0  0  0  0
    8.9674   -1.3232   22.0730 C   0  0  0  0  0  0  0  0  0  0  0  0
   10.5409   -1.4356   22.5884 S   0  0  0  0  0  0  0  0  0  0  0  0
    8.6512   -0.7435   20.8806 N   0  0  0  0  0  0  0  0  0  0  0  0
    9.4169   -0.4586   20.2975 H   0  0  0  0  0  0  0  0  0  0  0  0
    5.4837    0.8178   19.7553 C   0  0  0  0  0  0  0  0  0  0  0  0
    5.0596    0.8527   20.7587 H   0  0  0  0  0  0  0  0  0  0  0  0
    4.8841    1.4952   18.6947 C   0  0  0  0  0  0  0  0  0  0  0  0
    3.9733    2.0673   18.8340 H   0  0  0  0  0  0  0  0  0  0  0  0
  1  2  1  0
  2  3  2  0
  3  4  1  0
  4  5  1  0
  4  6  2  0
  6  7  1  0
  7  8  2  0
  8  9  1  0
  8 10  1  0
 10 11  1  0
 11 12  2  0
 12 13  1  0
 13 14  2  0
 14 15  1  0
 14 16  1  0
 16 17  1  0
 16 18  2  0
 18 19  1  0
 18 20  1  0
 20 21  1  0
 20 22  2  0
 22 23  1  0
 23 24  1  0
 23 25  2  0
 25 26  1  0
 10 27  1  0
 27 28  2  0
 27 29  1  0
 29 30  1  0
  6 31  1  0
 31 32  1  0
 31 33  2  0
 33 34  1  0
 33  2  1  0
 29  7  1  0
 25 11  1  0
 22 13  1  0
M  END
>  <cnnaffinity>  (1) 
-5.71337

>  <filename>  (1) 
S=c1[nH]c(-c2cccnc2)cn1-c1ccc2ccccc2n1

$$$$
