
     RDKit          3D

 35 38  0  0  0  0  0  0  0  0999 V2000
    5.6832   -1.6794   21.6742 H   0  0  0  0  0  0  0  0  0  0  0  0
    6.7362   -1.5243   21.7943 C   0  0  0  0  0  0  0  0  0  0  0  0
    7.3926   -0.6970   20.9708 C   0  0  0  0  0  0  0  0  0  0  0  0
    6.6991    0.0395   19.9088 C   0  0  0  0  0  0  0  0  0  0  0  0
    7.1955    0.0770   18.5992 C   0  0  0  0  0  0  0  0  0  0  0  0
    8.1291   -0.4320   18.3575 H   0  0  0  0  0  0  0  0  0  0  0  0
    6.5676    0.6729   17.5797 N   0  0  0  0  0  0  0  0  0  0  0  0
    5.4036    1.2901   17.8437 C   0  0  0  0  0  0  0  0  0  0  0  0
    4.9164    1.7763   17.0016 H   0  0  0  0  0  0  0  0  0  0  0  0
    4.8125    1.3101   19.1113 C   0  0  0  0  0  0  0  0  0  0  0  0
    3.8779    1.8387   19.2616 H   0  0  0  0  0  0  0  0  0  0  0  0
    5.4533    0.6529   20.1581 C   0  0  0  0  0  0  0  0  0  0  0  0
    5.0192    0.6278   21.1614 H   0  0  0  0  0  0  0  0  0  0  0  0
    8.7658   -0.5552   21.1354 N   0  0  0  0  0  0  0  0  0  0  0  0
    9.3016    0.0661   20.5636 H   0  0  0  0  0  0  0  0  0  0  0  0
    9.4777   -1.0679   22.1763 C   0  0  0  0  0  0  0  0  0  0  0  0
   11.0971   -0.7552   22.3761 S   0  0  0  0  0  0  0  0  0  0  0  0
    8.7870   -1.8453   23.0221 N   0  0  0  0  0  0  0  0  0  0  0  0
    9.3272   -2.1939   23.7905 H   0  0  0  0  0  0  0  0  0  0  0  0
    7.4058   -2.2979   22.8623 C   0  0  1  0  0  0  0  0  0  0  0  0
    7.4289   -3.3658   22.5701 H   0  0  0  0  0  0  0  0  0  0  0  0
    6.6398   -2.2214   24.1761 C   0  0  0  0  0  0  0  0  0  0  0  0
    6.0227   -3.2657   24.7604 C   0  0  0  0  0  0  0  0  0  0  0  0
    6.0130   -4.2896   24.4111 H   0  0  0  0  0  0  0  0  0  0  0  0
    5.1782   -2.8504   26.2161 S   0  0  0  0  0  0  0  0  0  0  0  0
    5.6480   -1.1827   26.0553 C   0  0  0  0  0  0  0  0  0  0  0  0
    5.3296   -0.1137   26.9117 C   0  0  0  0  0  0  0  0  0  0  0  0
    4.7270   -0.2857   27.7999 H   0  0  0  0  0  0  0  0  0  0  0  0
    5.8014    1.1552   26.5991 C   0  0  0  0  0  0  0  0  0  0  0  0
    5.5673    1.9947   27.2516 H   0  0  0  0  0  0  0  0  0  0  0  0
    6.5851    1.3724   25.4398 C   0  0  0  0  0  0  0  0  0  0  0  0
    6.9460    2.3741   25.2131 H   0  0  0  0  0  0  0  0  0  0  0  0
    6.8982    0.3202   24.5962 C   0  0  0  0  0  0  0  0  0  0  0  0
    7.4987    0.4770   23.6987 H   0  0  0  0  0  0  0  0  0  0  0  0
    6.4363   -0.9820   24.9017 C   0  0  0  0  0  0  0  0  0  0  0  0
  1  2  1  0
  2  3  2  0
  3  4  1  0
  4  5  2  0
  5  6  1  0
  5  7  1  0
  7  8  2  0
  8  9  1  0
  8 10  1  0
 10 11  1  0
 10 12  2  0
 12 13  1  0
  3 14  1  0
 14 15  1  0
 14 16  1  0
 16 17  2  0
 16 18  1  0
 18 19  1  0
 18 20  1  0
 20 21  1  6
 20 22  1  0
 22 23  2  0
 23 24  1  0
 23 25  1  0
 25 26  1  0
 26 27  2  0
 27 28  1  0
 27 29  1  0
 29 30  1  0
 29 31  2  0
 31 32  1  0
 31 33  1  0
 33 34  1  0
 33 35  2  0
 20  2  1  0
 35 22  1  0
 12  4  1  0
 35 26  1  0
M  END
>  <cnnaffinity>  (1) 
-5.27248

>  <filename>  (1) 
S=C1NC(c2cccnc2)=C[C@H](c2csc3ccccc23)N1

$$$$
