
     RDKit          3D

 31 33  0  0  0  0  0  0  0  0999 V2000
    5.6431    4.0271   24.8116 S   0  0  0  0  0  0  0  0  0  0  0  0
    6.4845    3.2611   23.6221 C   0  0  0  0  0  0  0  0  0  0  0  0
    7.2369    1.6876   23.8203 S   0  0  0  0  0  0  0  0  0  0  0  0
    7.8604    1.8042   22.1919 C   0  0  0  0  0  0  0  0  0  0  0  0
    8.8118    0.5186   21.4406 S   0  0  0  0  0  0  0  0  0  0  0  0
    7.4320   -0.6078   20.9721 C   0  0  0  0  0  0  0  0  0  0  0  0
    6.5915   -0.0204   19.8695 C   0  0  0  0  0  0  0  0  0  0  0  0
    5.3494    0.5914   20.0873 C   0  0  0  0  0  0  0  0  0  0  0  0
    4.7449    1.2698   19.0224 C   0  0  0  0  0  0  0  0  0  0  0  0
    5.3840    1.2995   17.7832 C   0  0  0  0  0  0  0  0  0  0  0  0
    6.5461    0.6690   17.5416 N   0  0  0  0  0  0  0  0  0  0  0  0
    7.1204    0.0365   18.5654 C   0  0  0  0  0  0  0  0  0  0  0  0
    8.0809   -0.4368   18.3573 H   0  0  0  0  0  0  0  0  0  0  0  0
    4.9574    1.8530   16.9475 H   0  0  0  0  0  0  0  0  0  0  0  0
    3.8074    1.7968   19.1468 H   0  0  0  0  0  0  0  0  0  0  0  0
    4.8658    0.5514   21.0653 H   0  0  0  0  0  0  0  0  0  0  0  0
    7.9388   -1.5263   20.6527 H   0  0  0  0  0  0  0  0  0  0  0  0
    6.8439   -0.8492   21.8635 H   0  0  0  0  0  0  0  0  0  0  0  0
    7.5507    2.8825   21.5726 N   0  0  0  0  0  0  0  0  0  0  0  0
    6.7335    3.6720   22.3400 N   0  0  0  0  0  0  0  0  0  0  0  0
    6.1695    4.8640   21.7413 C   0  0  0  0  0  0  0  0  0  0  0  0
    7.0130    5.8026   21.1329 C   0  0  0  0  0  0  0  0  0  0  0  0
    6.4634    6.9867   20.6256 C   0  0  0  0  0  0  0  0  0  0  0  0
    5.0831    7.2164   20.6828 C   0  0  0  0  0  0  0  0  0  0  0  0
    4.2488    6.2584   21.2641 C   0  0  0  0  0  0  0  0  0  0  0  0
    4.7851    5.0816   21.7933 C   0  0  0  0  0  0  0  0  0  0  0  0
    4.1460    4.3515   22.2751 H   0  0  0  0  0  0  0  0  0  0  0  0
    3.1779    6.4191   21.3151 H   0  0  0  0  0  0  0  0  0  0  0  0
    4.6530    8.1186   20.2644 H   0  0  0  0  0  0  0  0  0  0  0  0
    7.1147    7.7389   20.2002 H   0  0  0  0  0  0  0  0  0  0  0  0
    8.0761    5.6004   21.0550 H   0  0  0  0  0  0  0  0  0  0  0  0
  1  2  2  0
  2  3  1  0
  3  4  1  0
  4  5  1  0
  5  6  1  0
  6  7  1  0
  7  8  2  0
  8  9  1  0
  9 10  2  0
 10 11  1  0
 11 12  2  0
 12 13  1  0
 10 14  1  0
  9 15  1  0
  8 16  1  0
  6 17  1  0
  6 18  1  0
  4 19  2  0
 19 20  1  0
 20 21  1  0
 21 22  2  0
 22 23  1  0
 23 24  2  0
 24 25  1  0
 25 26  2  0
 26 27  1  0
 25 28  1  0
 24 29  1  0
 23 30  1  0
 22 31  1  0
 20  2  1  0
 26 21  1  0
 12  7  1  0
M  END
>  <cnnaffinity>  (1) 
-4.9175

>  <filename>  (1) 
S=c1sc(SCc2cccnc2)nn1-c1ccccc1

$$$$
