
     RDKit          3D

 27 29  0  0  0  0  0  0  0  0999 V2000
    4.9316    1.7927   17.0005 H   0  0  0  0  0  0  0  0  0  0  0  0
    5.3997    1.2879   17.8408 C   0  0  0  0  0  0  0  0  0  0  0  0
    6.5557    0.6593   17.5764 N   0  0  0  0  0  0  0  0  0  0  0  0
    7.1743    0.0407   18.5885 C   0  0  0  0  0  0  0  0  0  0  0  0
    8.1264   -0.4346   18.3604 H   0  0  0  0  0  0  0  0  0  0  0  0
    6.6553   -0.0079   19.8999 C   0  0  0  0  0  0  0  0  0  0  0  0
    7.3338   -0.6960   20.9555 N   0  0  0  0  0  0  0  0  0  0  0  0
    6.7258   -1.6176   21.8058 C   0  0  0  0  0  0  0  0  0  0  0  0
    5.6747   -1.8316   21.7108 H   0  0  0  0  0  0  0  0  0  0  0  0
    7.6691   -2.0668   22.6691 C   0  0  0  0  0  0  0  0  0  0  0  0
    7.5745   -2.9724   23.7320 N   0  0  0  0  0  0  0  0  0  0  0  0
    6.3915   -3.5921   24.0875 C   0  0  0  0  0  0  0  0  0  0  0  0
    5.4888   -3.3699   23.5403 H   0  0  0  0  0  0  0  0  0  0  0  0
    6.6208   -4.4121   25.1523 C   0  0  0  0  0  0  0  0  0  0  0  0
    5.8803   -5.0276   25.6493 H   0  0  0  0  0  0  0  0  0  0  0  0
    8.0058   -4.2956   25.4782 C   0  0  0  0  0  0  0  0  0  0  0  0
    8.5295   -4.8097   26.2768 H   0  0  0  0  0  0  0  0  0  0  0  0
    8.5611   -3.4114   24.5986 C   0  0  0  0  0  0  0  0  0  0  0  0
    9.5789   -3.0575   24.5202 H   0  0  0  0  0  0  0  0  0  0  0  0
    8.8419   -1.4158   22.3297 N   0  0  0  0  0  0  0  0  0  0  0  0
    9.7606   -1.4316   22.7350 H   0  0  0  0  0  0  0  0  0  0  0  0
    8.6518   -0.5308   21.3186 C   0  0  0  0  0  0  0  0  0  0  0  0
    9.8143    0.5136   20.7756 S   0  0  0  0  0  0  0  0  0  0  0  0
    5.4445    0.6420   20.1611 C   0  0  0  0  0  0  0  0  0  0  0  0
    5.0357    0.6278   21.1742 H   0  0  0  0  0  0  0  0  0  0  0  0
    4.8090    1.3083   19.1091 C   0  0  0  0  0  0  0  0  0  0  0  0
    3.8777    1.8426   19.2618 H   0  0  0  0  0  0  0  0  0  0  0  0
  1  2  1  0
  2  3  2  0
  3  4  1  0
  4  5  1  0
  4  6  2  0
  6  7  1  0
  7  8  1  0
  8  9  1  0
  8 10  2  0
 10 11  1  0
 11 12  1  0
 12 13  1  0
 12 14  2  0
 14 15  1  0
 14 16  1  0
 16 17  1  0
 16 18  2  0
 18 19  1  0
 10 20  1  0
 20 21  1  0
 20 22  1  0
 22 23  2  0
  6 24  1  0
 24 25  1  0
 24 26  2  0
 26 27  1  0
 26  2  1  0
 22  7  1  0
 18 11  1  0
M  END
>  <cnnaffinity>  (1) 
-4.96842

>  <filename>  (1) 
S=c1[nH]c(-n2cccc2)cn1-c1cccnc1

$$$$
