
     RDKit          3D

 37 40  0  0  0  0  0  0  0  0999 V2000
    8.7035    1.0464   21.4546 H   0  0  0  0  0  0  0  0  0  0  0  0
    8.0496    0.2696   21.8091 C   0  0  0  0  0  0  0  0  0  0  0  0
    7.6904    0.1820   23.1145 C   0  0  0  0  0  0  0  0  0  0  0  0
    7.8490    1.2670   24.1028 C   0  0  0  0  0  0  0  0  0  0  0  0
    7.9190    2.5949   23.6874 C   0  0  0  0  0  0  0  0  0  0  0  0
    7.9340    2.8222   22.6239 H   0  0  0  0  0  0  0  0  0  0  0  0
    7.9715    3.6695   24.6057 C   0  0  0  0  0  0  0  0  0  0  0  0
    8.0350    4.6888   24.2334 H   0  0  0  0  0  0  0  0  0  0  0  0
    7.9488    3.4346   25.9613 C   0  0  0  0  0  0  0  0  0  0  0  0
    7.9836    4.2525   26.6789 H   0  0  0  0  0  0  0  0  0  0  0  0
    7.9165    2.0993   26.4452 C   0  0  0  0  0  0  0  0  0  0  0  0
    7.9625    1.8069   27.8365 C   0  0  0  0  0  0  0  0  0  0  0  0
    7.9581    2.6227   28.5581 H   0  0  0  0  0  0  0  0  0  0  0  0
    8.0678    0.5007   28.2431 C   0  0  0  0  0  0  0  0  0  0  0  0
    8.2392    0.2670   29.2838 H   0  0  0  0  0  0  0  0  0  0  0  0
    8.0274   -0.5313   27.2694 C   0  0  0  0  0  0  0  0  0  0  0  0
    8.0630   -1.5747   27.5823 H   0  0  0  0  0  0  0  0  0  0  0  0
    7.8909   -0.3029   25.9840 N   0  0  0  0  0  0  0  0  0  0  0  0
    7.8870    0.9960   25.5266 C   0  0  0  0  0  0  0  0  0  0  0  0
    7.0663   -0.9863   23.5313 N   0  0  0  0  0  0  0  0  0  0  0  0
    7.0572   -1.1796   24.5288 H   0  0  0  0  0  0  0  0  0  0  0  0
    6.6505   -1.9803   22.7218 C   0  0  0  0  0  0  0  0  0  0  0  0
    6.0070   -3.3915   23.3146 S   0  0  0  0  0  0  0  0  0  0  0  0
    6.8265   -1.7929   21.4049 N   0  0  0  0  0  0  0  0  0  0  0  0
    6.6298   -2.6285   20.8812 H   0  0  0  0  0  0  0  0  0  0  0  0
    7.5679   -0.6979   20.7858 C   0  0  1  0  0  0  0  0  0  0  0  0
    8.4375   -1.1386   20.2683 H   0  0  0  0  0  0  0  0  0  0  0  0
    6.7120   -0.0343   19.7039 C   0  0  0  0  0  0  0  0  0  0  0  0
    7.1553    0.0024   18.3786 C   0  0  0  0  0  0  0  0  0  0  0  0
    8.0691   -0.5207   18.0921 H   0  0  0  0  0  0  0  0  0  0  0  0
    6.5283    0.6488   17.3873 N   0  0  0  0  0  0  0  0  0  0  0  0
    5.3921    1.2874   17.7056 C   0  0  0  0  0  0  0  0  0  0  0  0
    4.9103    1.8406   16.9030 H   0  0  0  0  0  0  0  0  0  0  0  0
    4.8283    1.2650   18.9868 C   0  0  0  0  0  0  0  0  0  0  0  0
    3.8996    1.7904   19.1770 H   0  0  0  0  0  0  0  0  0  0  0  0
    5.4906    0.5816   20.0050 C   0  0  0  0  0  0  0  0  0  0  0  0
    5.0743    0.5144   21.0124 H   0  0  0  0  0  0  0  0  0  0  0  0
  1  2  1  0
  2  3  2  0
  3  4  1  0
  4  5  2  0
  5  6  1  0
  5  7  1  0
  7  8  1  0
  7  9  2  0
  9 10  1  0
  9 11  1  0
 11 12  2  0
 12 13  1  0
 12 14  1  0
 14 15  1  0
 14 16  2  0
 16 17  1  0
 16 18  1  0
 18 19  2  0
  3 20  1  0
 20 21  1  0
 20 22  1  0
 22 23  2  0
 22 24  1  0
 24 25  1  0
 24 26  1  0
 26 27  1  6
 26 28  1  0
 28 29  2  0
 29 30  1  0
 29 31  1  0
 31 32  2  0
 32 33  1  0
 32 34  1  0
 34 35  1  0
 34 36  2  0
 36 37  1  0
 26  2  1  0
 36 28  1  0
 19  4  1  0
 19 11  1  0
M  END
>  <cnnaffinity>  (1) 
-5.14753

>  <filename>  (1) 
S=C1NC(c2cccc3cccnc23)=C[C@H](c2cccnc2)N1

$$$$
