
     RDKit          3D

 28 30  0  0  0  0  0  0  0  0999 V2000
    4.9206    1.7797   16.9974 H   0  0  0  0  0  0  0  0  0  0  0  0
    5.4029    1.2937   17.8401 C   0  0  0  0  0  0  0  0  0  0  0  0
    6.5676    0.6816   17.5784 N   0  0  0  0  0  0  0  0  0  0  0  0
    7.1702    0.0578   18.5923 C   0  0  0  0  0  0  0  0  0  0  0  0
    8.1180   -0.4325   18.3748 H   0  0  0  0  0  0  0  0  0  0  0  0
    6.6508    0.0157   19.8937 C   0  0  0  0  0  0  0  0  0  0  0  0
    7.3917   -0.7149   20.9070 C   0  0  0  0  0  0  0  0  0  0  0  0
    8.0318   -1.8255   20.6857 N   0  0  0  0  0  0  0  0  0  0  0  0
    8.5337   -2.1607   21.9032 N   0  0  0  0  0  0  0  0  0  0  0  0
    9.0983   -2.9797   22.0475 H   0  0  0  0  0  0  0  0  0  0  0  0
    8.2737   -1.2747   22.8844 C   0  0  0  0  0  0  0  0  0  0  0  0
    8.7928   -1.3320   24.4551 S   0  0  0  0  0  0  0  0  0  0  0  0
    7.4944   -0.3304   22.2360 N   0  0  0  0  0  0  0  0  0  0  0  0
    7.0582    0.8982   22.8356 C   0  0  0  0  0  0  0  0  0  0  0  0
    6.1036    0.8427   23.8559 C   0  0  0  0  0  0  0  0  0  0  0  0
    5.7401   -0.1273   24.1734 H   0  0  0  0  0  0  0  0  0  0  0  0
    5.6250    2.0105   24.4524 C   0  0  0  0  0  0  0  0  0  0  0  0
    4.8787    1.9568   25.2390 H   0  0  0  0  0  0  0  0  0  0  0  0
    6.1062    3.2565   24.0507 C   0  0  0  0  0  0  0  0  0  0  0  0
    5.7460    4.1764   24.5074 H   0  0  0  0  0  0  0  0  0  0  0  0
    7.0777    3.3257   23.0485 C   0  0  0  0  0  0  0  0  0  0  0  0
    7.6515    4.9008   22.5912 Cl  0  0  0  0  0  0  0  0  0  0  0  0
    7.5704    2.1538   22.4384 C   0  0  0  0  0  0  0  0  0  0  0  0
    8.7925    2.2573   21.2193 Cl  0  0  0  0  0  0  0  0  0  0  0  0
    5.4342    0.6618   20.1570 C   0  0  0  0  0  0  0  0  0  0  0  0
    5.0050    0.6360   21.1618 H   0  0  0  0  0  0  0  0  0  0  0  0
    4.8024    1.3133   19.1040 C   0  0  0  0  0  0  0  0  0  0  0  0
    3.8728    1.8443   19.2569 H   0  0  0  0  0  0  0  0  0  0  0  0
  1  2  1  0
  2  3  2  0
  3  4  1  0
  4  5  1  0
  4  6  2  0
  6  7  1  0
  7  8  2  0
  8  9  1  0
  9 10  1  0
  9 11  1  0
 11 12  2  0
 11 13  1  0
 13 14  1  0
 14 15  2  0
 15 16  1  0
 15 17  1  0
 17 18  1  0
 17 19  2  0
 19 20  1  0
 19 21  1  0
 21 22  1  0
 21 23  2  0
 23 24  1  0
  6 25  1  0
 25 26  1  0
 25 27  2  0
 27 28  1  0
 27  2  1  0
 13  7  1  0
 23 14  1  0
M  END
>  <cnnaffinity>  (1) 
-5.39239

>  <filename>  (1) 
S=c1[nH]nc(-c2cccnc2)n1-c1cccc(Cl)c1Cl

$$$$
