
     RDKit          3D

 34 36  0  0  0  0  0  0  0  0999 V2000
    7.3993    1.0075   22.3614 H   0  0  0  0  0  0  0  0  0  0  0  0
    7.6283   -0.0296   22.1867 C   0  0  0  0  0  0  0  0  0  0  0  0
    7.3352   -0.6209   21.0109 C   0  0  0  0  0  0  0  0  0  0  0  0
    6.6649    0.0553   19.9008 C   0  0  0  0  0  0  0  0  0  0  0  0
    7.1927    0.0290   18.5999 C   0  0  0  0  0  0  0  0  0  0  0  0
    8.1273   -0.4991   18.4085 H   0  0  0  0  0  0  0  0  0  0  0  0
    6.6168    0.6253   17.5498 N   0  0  0  0  0  0  0  0  0  0  0  0
    5.4519    1.2605   17.7652 C   0  0  0  0  0  0  0  0  0  0  0  0
    5.0077    1.7427   16.8969 H   0  0  0  0  0  0  0  0  0  0  0  0
    4.8288    1.3316   19.0167 C   0  0  0  0  0  0  0  0  0  0  0  0
    3.8867    1.8614   19.1182 H   0  0  0  0  0  0  0  0  0  0  0  0
    5.4539    0.7364   20.1098 C   0  0  0  0  0  0  0  0  0  0  0  0
    5.0035    0.7654   21.1050 H   0  0  0  0  0  0  0  0  0  0  0  0
    7.6492   -1.9655   20.8185 N   0  0  0  0  0  0  0  0  0  0  0  0
    7.1790   -2.4810   20.0943 H   0  0  0  0  0  0  0  0  0  0  0  0
    8.0373   -2.7772   21.8370 C   0  0  0  0  0  0  0  0  0  0  0  0
    7.9042   -4.4290   21.7515 S   0  0  0  0  0  0  0  0  0  0  0  0
    8.5131   -2.1637   22.9370 N   0  0  0  0  0  0  0  0  0  0  0  0
    8.4803   -2.8150   23.7022 H   0  0  0  0  0  0  0  0  0  0  0  0
    8.4325   -0.7203   23.2205 C   0  0  1  0  0  0  0  0  0  0  0  0
    7.9400   -0.6024   24.1980 H   0  0  0  0  0  0  0  0  0  0  0  0
    9.8570   -0.0927   23.3643 C   0  0  0  0  0  0  0  0  0  0  0  0
   10.3721   -0.2318   22.4082 H   0  0  0  0  0  0  0  0  0  0  0  0
   10.4082   -0.6537   24.1243 H   0  0  0  0  0  0  0  0  0  0  0  0
    9.7757    1.3715   23.7247 C   0  0  0  0  0  0  0  0  0  0  0  0
    9.7651    2.3782   22.7500 C   0  0  0  0  0  0  0  0  0  0  0  0
    9.8710    2.1363   21.6985 H   0  0  0  0  0  0  0  0  0  0  0  0
    9.5705    3.7100   23.1302 C   0  0  0  0  0  0  0  0  0  0  0  0
    9.5740    4.5040   22.3872 H   0  0  0  0  0  0  0  0  0  0  0  0
    9.3702    4.1000   24.3971 N   0  0  0  0  0  0  0  0  0  0  0  0
    9.3637    3.1355   25.3249 C   0  0  0  0  0  0  0  0  0  0  0  0
    9.1984    3.4602   26.3511 H   0  0  0  0  0  0  0  0  0  0  0  0
    9.5736    1.7843   25.0474 C   0  0  0  0  0  0  0  0  0  0  0  0
    9.5656    1.0675   25.8600 H   0  0  0  0  0  0  0  0  0  0  0  0
  1  2  1  0
  2  3  2  0
  3  4  1  0
  4  5  2  0
  5  6  1  0
  5  7  1  0
  7  8  2  0
  8  9  1  0
  8 10  1  0
 10 11  1  0
 10 12  2  0
 12 13  1  0
  3 14  1  0
 14 15  1  0
 14 16  1  0
 16 17  2  0
 16 18  1  0
 18 19  1  0
 18 20  1  0
 20 21  1  1
 20 22  1  0
 22 23  1  0
 22 24  1  0
 22 25  1  0
 25 26  2  0
 26 27  1  0
 26 28  1  0
 28 29  1  0
 28 30  2  0
 30 31  1  0
 31 32  1  0
 31 33  2  0
 33 34  1  0
 20  2  1  0
 33 25  1  0
 12  4  1  0
M  END
>  <cnnaffinity>  (1) 
-5.23948

>  <filename>  (1) 
S=C1NC(c2cccnc2)=C[C@H](Cc2ccncc2)N1

$$$$
