
     RDKit          3D

 34 36  0  0  0  0  0  0  0  0999 V2000
    5.0654    1.7646   16.8916 H   0  0  0  0  0  0  0  0  0  0  0  0
    5.4779    1.2719   17.7665 C   0  0  0  0  0  0  0  0  0  0  0  0
    6.6450    0.6284   17.5874 N   0  0  0  0  0  0  0  0  0  0  0  0
    7.1762    0.0097   18.6502 C   0  0  0  0  0  0  0  0  0  0  0  0
    8.1252   -0.4875   18.4548 H   0  0  0  0  0  0  0  0  0  0  0  0
    6.5928    0.0002   19.9398 C   0  0  0  0  0  0  0  0  0  0  0  0
    7.2139   -0.6171   21.1217 C   0  0  0  0  0  0  0  0  0  0  0  0
    7.0607   -0.3547   22.4472 C   0  0  0  0  0  0  0  0  0  0  0  0
    6.4215    0.3615   22.9434 H   0  0  0  0  0  0  0  0  0  0  0  0
    7.9397   -1.1777   23.1546 N   0  0  0  0  0  0  0  0  0  0  0  0
    8.0995   -1.3690   24.5930 C   0  0  0  0  0  0  0  0  0  0  0  0
    7.5119   -0.6313   25.1486 H   0  0  0  0  0  0  0  0  0  0  0  0
    9.1531   -1.1891   24.8215 H   0  0  0  0  0  0  0  0  0  0  0  0
    7.7784   -2.7086   25.0031 N   0  0  0  0  0  0  0  0  0  0  0  0
    8.3961   -3.3272   24.4687 H   0  0  0  0  0  0  0  0  0  0  0  0
    6.4622   -3.1869   24.9736 C   0  0  0  0  0  0  0  0  0  0  0  0
    5.3309   -2.3577   24.9041 C   0  0  0  0  0  0  0  0  0  0  0  0
    5.4563   -1.2800   24.8803 H   0  0  0  0  0  0  0  0  0  0  0  0
    4.0512   -2.9204   24.8366 C   0  0  0  0  0  0  0  0  0  0  0  0
    3.1854   -2.2703   24.7296 H   0  0  0  0  0  0  0  0  0  0  0  0
    3.8814   -4.3055   24.8662 C   0  0  0  0  0  0  0  0  0  0  0  0
    2.8862   -4.7337   24.7918 H   0  0  0  0  0  0  0  0  0  0  0  0
    5.0050   -5.1339   24.9753 C   0  0  0  0  0  0  0  0  0  0  0  0
    4.8867   -6.2138   24.9833 H   0  0  0  0  0  0  0  0  0  0  0  0
    6.2825   -4.5801   25.0391 C   0  0  0  0  0  0  0  0  0  0  0  0
    7.1613   -5.2089   25.1599 H   0  0  0  0  0  0  0  0  0  0  0  0
    8.6520   -1.9370   22.2825 C   0  0  0  0  0  0  0  0  0  0  0  0
    9.8767   -3.0204   22.6099 S   0  0  0  0  0  0  0  0  0  0  0  0
    8.1869   -1.6027   21.0538 N   0  0  0  0  0  0  0  0  0  0  0  0
    8.5489   -2.0736   20.2469 H   0  0  0  0  0  0  0  0  0  0  0  0
    5.3659    0.6729   20.0867 C   0  0  0  0  0  0  0  0  0  0  0  0
    4.8701    0.6770   21.0586 H   0  0  0  0  0  0  0  0  0  0  0  0
    4.8010    1.3172   18.9903 C   0  0  0  0  0  0  0  0  0  0  0  0
    3.8619    1.8571   19.0720 H   0  0  0  0  0  0  0  0  0  0  0  0
  1  2  1  0
  2  3  2  0
  3  4  1  0
  4  5  1  0
  4  6  2  0
  6  7  1  0
  7  8  2  0
  8  9  1  0
  8 10  1  0
 10 11  1  0
 11 12  1  0
 11 13  1  0
 11 14  1  0
 14 15  1  0
 14 16  1  0
 16 17  2  0
 17 18  1  0
 17 19  1  0
 19 20  1  0
 19 21  2  0
 21 22  1  0
 21 23  1  0
 23 24  1  0
 23 25  2  0
 25 26  1  0
 10 27  1  0
 27 28  2  0
 27 29  1  0
 29 30  1  0
  6 31  1  0
 31 32  1  0
 31 33  2  0
 33 34  1  0
 33  2  1  0
 29  7  1  0
 25 16  1  0
M  END
>  <cnnaffinity>  (1) 
-5.22209

>  <filename>  (1) 
S=c1[nH]c(-c2cccnc2)cn1CNc1ccccc1

$$$$
