
     RDKit          3D

 35 37  0  0  0  0  0  0  0  0999 V2000
    6.1628   -2.5235   21.2932 H   0  0  0  0  0  0  0  0  0  0  0  0
    7.1512   -2.1014   21.2634 C   0  0  0  0  0  0  0  0  0  0  0  0
    8.2585   -2.8660   21.2891 C   0  0  0  0  0  0  0  0  0  0  0  0
    8.3932   -4.1843   21.1057 O   0  0  0  0  0  0  0  0  0  0  0  0
    7.2345   -5.0292   21.0294 C   0  0  0  0  0  0  0  0  0  0  0  0
    7.6253   -5.9471   20.5828 H   0  0  0  0  0  0  0  0  0  0  0  0
    6.4653   -4.6252   20.3580 H   0  0  0  0  0  0  0  0  0  0  0  0
    6.6499   -5.3077   22.3928 C   0  0  0  0  0  0  0  0  0  0  0  0
    7.4852   -5.7322   23.4384 C   0  0  0  0  0  0  0  0  0  0  0  0
    8.5328   -5.9646   23.2648 H   0  0  0  0  0  0  0  0  0  0  0  0
    6.9508   -5.8518   24.7221 C   0  0  0  0  0  0  0  0  0  0  0  0
    7.5855   -6.1440   25.5628 H   0  0  0  0  0  0  0  0  0  0  0  0
    5.6535   -5.6548   25.0000 N   0  0  0  0  0  0  0  0  0  0  0  0
    4.8468   -5.3047   23.9912 C   0  0  0  0  0  0  0  0  0  0  0  0
    3.7952   -5.1497   24.2373 H   0  0  0  0  0  0  0  0  0  0  0  0
    5.2920   -5.1298   22.6754 C   0  0  0  0  0  0  0  0  0  0  0  0
    4.5953   -4.8579   21.8881 H   0  0  0  0  0  0  0  0  0  0  0  0
    9.4989   -2.2936   21.4782 N   0  0  0  0  0  0  0  0  0  0  0  0
   10.3057   -2.8788   21.6047 H   0  0  0  0  0  0  0  0  0  0  0  0
    9.7478   -0.9599   21.4087 C   0  0  0  0  0  0  0  0  0  0  0  0
   11.2813   -0.3442   21.5016 S   0  0  0  0  0  0  0  0  0  0  0  0
    8.6612   -0.1810   21.2800 N   0  0  0  0  0  0  0  0  0  0  0  0
    8.8644    0.7968   21.2010 H   0  0  0  0  0  0  0  0  0  0  0  0
    7.2634   -0.6156   21.2481 C   0  0  1  0  0  0  0  0  0  0  0  0
    6.7747   -0.1979   22.1506 H   0  0  0  0  0  0  0  0  0  0  0  0
    6.5779    0.0555   20.0546 C   0  0  0  0  0  0  0  0  0  0  0  0
    7.1887    0.0166   18.7933 C   0  0  0  0  0  0  0  0  0  0  0  0
    8.1492   -0.4828   18.6703 H   0  0  0  0  0  0  0  0  0  0  0  0
    6.6762    0.5784   17.6913 N   0  0  0  0  0  0  0  0  0  0  0  0
    5.5077    1.2249   17.8160 C   0  0  0  0  0  0  0  0  0  0  0  0
    5.1219    1.6974   16.9135 H   0  0  0  0  0  0  0  0  0  0  0  0
    4.8066    1.3174   19.0214 C   0  0  0  0  0  0  0  0  0  0  0  0
    3.8792    1.8784   19.0599 H   0  0  0  0  0  0  0  0  0  0  0  0
    5.3536    0.7268   20.1643 C   0  0  0  0  0  0  0  0  0  0  0  0
    4.8502    0.8090   21.1308 H   0  0  0  0  0  0  0  0  0  0  0  0
  1  2  1  0
  2  3  2  0
  3  4  1  0
  4  5  1  0
  5  6  1  0
  5  7  1  0
  5  8  1  0
  8  9  2  0
  9 10  1  0
  9 11  1  0
 11 12  1  0
 11 13  2  0
 13 14  1  0
 14 15  1  0
 14 16  2  0
 16 17  1  0
  3 18  1  0
 18 19  1  0
 18 20  1  0
 20 21  2  0
 20 22  1  0
 22 23  1  0
 22 24  1  0
 24 25  1  1
 24 26  1  0
 26 27  2  0
 27 28  1  0
 27 29  1  0
 29 30  2  0
 30 31  1  0
 30 32  1  0
 32 33  1  0
 32 34  2  0
 34 35  1  0
 24  2  1  0
 34 26  1  0
 16  8  1  0
M  END
>  <cnnaffinity>  (1) 
-5.21904

>  <filename>  (1) 
S=C1NC(OCc2ccncc2)=C[C@H](c2cccnc2)N1

$$$$
