
     RDKit          3D

 30 32  0  0  0  0  0  0  0  0999 V2000
    5.0284    1.7694   16.9950 H   0  0  0  0  0  0  0  0  0  0  0  0
    5.4408    1.3229   17.8941 C   0  0  0  0  0  0  0  0  0  0  0  0
    6.6468    0.7607   17.7444 N   0  0  0  0  0  0  0  0  0  0  0  0
    7.1881    0.2069   18.8266 C   0  0  0  0  0  0  0  0  0  0  0  0
    8.1689   -0.2362   18.6505 H   0  0  0  0  0  0  0  0  0  0  0  0
    6.5785    0.1362   20.0972 C   0  0  0  0  0  0  0  0  0  0  0  0
    7.3754   -0.4778   21.2405 C   0  0  2  0  0  0  0  0  0  0  0  0
    8.0785    0.6275   21.8712 N   0  0  0  0  0  0  0  0  0  0  0  0
    8.1595    1.7491   22.2453 C   0  0  0  0  0  0  0  0  0  0  0  0
    8.3279    3.2258   22.8211 S   0  0  0  0  0  0  0  0  0  0  0  0
    8.3900   -1.5688   20.7501 C   0  0  0  0  0  0  0  0  0  0  0  0
    8.1162   -1.8125   19.7307 H   0  0  0  0  0  0  0  0  0  0  0  0
    9.4071   -1.1735   20.7475 H   0  0  0  0  0  0  0  0  0  0  0  0
    8.1976   -2.7849   21.6775 C   0  0  2  0  0  0  0  0  0  0  0  0
    9.0724   -3.4371   21.7400 H   0  0  0  0  0  0  0  0  0  0  0  0
    6.8772   -3.5128   21.3214 C   0  0  0  0  0  0  0  0  0  0  0  0
    6.7707   -4.4217   21.9324 H   0  0  0  0  0  0  0  0  0  0  0  0
    6.7798   -3.8224   20.2748 H   0  0  0  0  0  0  0  0  0  0  0  0
    5.8140   -2.4377   21.7019 C   0  0  0  0  0  0  0  0  0  0  0  0
    5.0722   -2.8404   22.3937 H   0  0  0  0  0  0  0  0  0  0  0  0
    5.2931   -2.0483   20.8257 H   0  0  0  0  0  0  0  0  0  0  0  0
    6.6422   -1.3041   22.3515 C   0  0  1  0  0  0  0  0  0  0  0  0
    6.1161   -0.6552   23.0528 H   0  0  0  0  0  0  0  0  0  0  0  0
    7.7974   -2.0995   22.9914 C   0  0  0  0  0  0  0  0  0  0  0  0
    7.4763   -2.8060   23.7669 H   0  0  0  0  0  0  0  0  0  0  0  0
    8.5670   -1.4545   23.4289 H   0  0  0  0  0  0  0  0  0  0  0  0
    5.3252    0.7505   20.2374 C   0  0  0  0  0  0  0  0  0  0  0  0
    4.8017    0.7787   21.1981 H   0  0  0  0  0  0  0  0  0  0  0  0
    4.7518    1.3503   19.1088 C   0  0  0  0  0  0  0  0  0  0  0  0
    3.7970    1.8598   19.1530 H   0  0  0  0  0  0  0  0  0  0  0  0
  1  2  1  0
  2  3  2  0
  3  4  1  0
  4  5  1  0
  4  6  2  0
  6  7  1  0
  7  8  1  1
  8  9  2  0
  9 10  2  0
  7 11  1  0
 11 12  1  0
 11 13  1  0
 11 14  1  0
 14 15  1  1
 14 16  1  0
 16 17  1  0
 16 18  1  0
 16 19  1  0
 19 20  1  0
 19 21  1  0
 19 22  1  0
 22 23  1  1
 22 24  1  0
 24 25  1  0
 24 26  1  0
  6 27  1  0
 27 28  1  0
 27 29  2  0
 29 30  1  0
 29  2  1  0
 22  7  1  0
 24 14  1  0
M  END
>  <cnnaffinity>  (1) 
-4.22159

>  <filename>  (1) 
S=C=N[C@@]1(c2cccnc2)C[C@@H]2CC[C@H]1C2

$$$$
