
     RDKit          3D

 20 21  0  0  0  0  0  0  0  0999 V2000
    4.9427    1.7982   16.9868 H   0  0  0  0  0  0  0  0  0  0  0  0
    5.4098    1.2754   17.8210 C   0  0  0  0  0  0  0  0  0  0  0  0
    6.5653    0.6455   17.5529 N   0  0  0  0  0  0  0  0  0  0  0  0
    7.1865    0.0269   18.5646 C   0  0  0  0  0  0  0  0  0  0  0  0
    8.1326   -0.4578   18.3291 H   0  0  0  0  0  0  0  0  0  0  0  0
    6.6879   -0.0031   19.8864 C   0  0  0  0  0  0  0  0  0  0  0  0
    7.3450   -0.7540   20.9243 N   0  0  0  0  0  0  0  0  0  0  0  0
    7.4590   -2.1171   20.9475 C   0  0  0  0  0  0  0  0  0  0  0  0
    7.0458   -2.7230   20.1579 H   0  0  0  0  0  0  0  0  0  0  0  0
    8.0319   -2.5666   22.0339 N   0  0  0  0  0  0  0  0  0  0  0  0
    8.2821   -1.4536   22.7898 C   0  0  0  0  0  0  0  0  0  0  0  0
    8.7183   -1.5084   23.7865 H   0  0  0  0  0  0  0  0  0  0  0  0
    7.8570   -0.3289   22.1422 C   0  0  0  0  0  0  0  0  0  0  0  0
    7.8735    0.9901   22.5373 N   0  0  0  0  0  0  0  0  0  0  0  0
    7.4266    2.0826   22.6900 C   0  0  0  0  0  0  0  0  0  0  0  0
    6.9305    3.5515   22.9846 S   0  0  0  0  0  0  0  0  0  0  0  0
    5.4874    0.6687   20.1559 C   0  0  0  0  0  0  0  0  0  0  0  0
    5.0779    0.6971   21.1665 H   0  0  0  0  0  0  0  0  0  0  0  0
    4.8305    1.3045   19.0957 C   0  0  0  0  0  0  0  0  0  0  0  0
    3.8950    1.8364   19.2521 H   0  0  0  0  0  0  0  0  0  0  0  0
  1  2  1  0
  2  3  2  0
  3  4  1  0
  4  5  1  0
  4  6  2  0
  6  7  1  0
  7  8  1  0
  8  9  1  0
  8 10  2  0
 10 11  1  0
 11 12  1  0
 11 13  2  0
 13 14  1  0
 14 15  2  0
 15 16  2  0
  6 17  1  0
 17 18  1  0
 17 19  2  0
 19 20  1  0
 19  2  1  0
 13  7  1  0
M  END
>  <cnnaffinity>  (1) 
-4.40023

>  <filename>  (1) 
S=C=Nc1cncn1-c1cccnc1

$$$$
