
     RDKit          3D

 40 41  0  0  0  0  0  0  0  0999 V2000
    2.4358    3.3342   27.1848 S   0  0  0  0  0  0  0  0  0  0  0  0
    3.1555    1.7331   26.7072 C   0  0  0  0  0  0  0  0  0  0  0  0
    4.3651    1.3212   27.5368 C   0  0  0  0  0  0  0  0  0  0  0  0
    4.7604    0.0506   27.0515 O   0  0  0  0  0  0  0  0  0  0  0  0
    5.9231   -0.5078   27.6468 C   0  0  0  0  0  0  0  0  0  0  0  0
    7.2148   -0.0255   26.9757 C   0  0  0  0  0  0  0  0  0  0  0  0
    7.2973   -0.5173   25.5695 N   0  0  0  0  0  4  0  0  0  0  0  0
    8.4393   -0.0568   24.7253 C   0  0  0  0  0  0  0  0  0  0  0  0
    8.1805   -0.6219   23.3571 C   0  0  0  0  0  0  0  0  0  0  0  0
    8.5512   -1.9493   23.0953 C   0  0  0  0  0  0  0  0  0  0  0  0
    8.2564   -2.5966   21.9642 N   0  0  0  0  0  0  0  0  0  0  0  0
    7.5967   -1.9145   21.0212 C   0  0  0  0  0  0  0  0  0  0  0  0
    7.2331   -0.5597   21.1132 C   0  0  0  0  0  0  0  0  0  0  0  0
    6.5698    0.1461   19.9654 C   0  0  0  0  0  0  0  0  0  0  0  0
    5.3402    0.8110   20.1294 C   0  0  0  0  0  0  0  0  0  0  0  0
    4.7397    1.4085   19.0180 C   0  0  0  0  0  0  0  0  0  0  0  0
    5.3942    1.3590   17.7857 C   0  0  0  0  0  0  0  0  0  0  0  0
    6.5818    0.7569   17.6019 N   0  0  0  0  0  0  0  0  0  0  0  0
    7.1348    0.1696   18.6690 C   0  0  0  0  0  0  0  0  0  0  0  0
    8.0918   -0.3220   18.4911 H   0  0  0  0  0  0  0  0  0  0  0  0
    4.9434    1.8070   16.9025 H   0  0  0  0  0  0  0  0  0  0  0  0
    3.7829    1.9159   19.0962 H   0  0  0  0  0  0  0  0  0  0  0  0
    4.8730    0.8504   21.1136 H   0  0  0  0  0  0  0  0  0  0  0  0
    7.5119    0.0710   22.3328 C   0  0  0  0  0  0  0  0  0  0  0  0
    7.1887    1.1044   22.4507 H   0  0  0  0  0  0  0  0  0  0  0  0
    7.2920   -2.4686   20.1400 H   0  0  0  0  0  0  0  0  0  0  0  0
    9.1286   -2.5241   23.8190 H   0  0  0  0  0  0  0  0  0  0  0  0
    9.3905   -0.4365   25.1255 H   0  0  0  0  0  0  0  0  0  0  0  0
    8.5031    1.0379   24.7173 H   0  0  0  0  0  0  0  0  0  0  0  0
    7.3119   -1.5669   25.5518 H   0  0  0  0  0  0  0  0  0  0  0  0
    6.4104   -0.2516   25.0609 H   0  0  0  0  0  0  0  0  0  0  0  0
    7.2408    1.0749   27.0031 H   0  0  0  0  0  0  0  0  0  0  0  0
    8.0724   -0.3627   27.5708 H   0  0  0  0  0  0  0  0  0  0  0  0
    5.8291   -1.5989   27.5384 H   0  0  0  0  0  0  0  0  0  0  0  0
    5.9602   -0.2970   28.7271 H   0  0  0  0  0  0  0  0  0  0  0  0
    4.0963    1.2774   28.6069 H   0  0  0  0  0  0  0  0  0  0  0  0
    5.1737    2.0667   27.4361 H   0  0  0  0  0  0  0  0  0  0  0  0
    2.3542    1.0020   26.8678 H   0  0  0  0  0  0  0  0  0  0  0  0
    3.4071    1.7178   25.6415 H   0  0  0  0  0  0  0  0  0  0  0  0
    3.5095    4.1088   26.9520 H   0  0  0  0  0  0  0  0  0  0  0  0
  1  2  1  0
  2  3  1  0
  3  4  1  0
  4  5  1  0
  5  6  1  0
  6  7  1  0
  7  8  1  0
  8  9  1  0
  9 10  2  0
 10 11  1  0
 11 12  2  0
 12 13  1  0
 13 14  1  0
 14 15  2  0
 15 16  1  0
 16 17  2  0
 17 18  1  0
 18 19  2  0
 19 20  1  0
 17 21  1  0
 16 22  1  0
 15 23  1  0
 13 24  2  0
 24 25  1  0
 12 26  1  0
 10 27  1  0
  8 28  1  0
  8 29  1  0
  7 30  1  0
  7 31  1  0
  6 32  1  0
  6 33  1  0
  5 34  1  0
  5 35  1  0
  3 36  1  0
  3 37  1  0
  2 38  1  0
  2 39  1  0
  1 40  1  0
 24  9  1  0
 19 14  1  0
M  CHG  1   7   1
M  END
>  <cnnaffinity>  (1) 
-4.79171

>  <filename>  (1) 
SCCOCC[NH2+]Cc1cncc(-c2cccnc2)c1

$$$$
