
     RDKit          3D

 23 25  0  0  0  0  0  0  0  0999 V2000
    7.5415   -1.8719   26.1240 H   0  0  0  0  0  0  0  0  0  0  0  0
    8.3913   -0.9102   25.7095 S   0  0  0  0  0  0  0  0  0  0  0  0
    8.7672   -1.5018   24.1521 N   0  0  0  0  0  0  0  0  0  0  0  0
   10.0005   -2.0887   23.8252 C   0  0  0  0  0  0  0  0  0  0  0  0
   10.7092   -2.3090   24.6077 H   0  0  0  0  0  0  0  0  0  0  0  0
   10.0822   -2.2203   22.4817 C   0  0  0  0  0  0  0  0  0  0  0  0
   10.8362   -2.5822   21.8098 H   0  0  0  0  0  0  0  0  0  0  0  0
    8.9204   -1.6714   21.9689 N   0  0  0  0  0  0  0  0  0  0  0  0
    8.5169   -1.3581   20.7225 N   0  0  0  0  0  0  0  0  0  0  0  0
    7.3839   -0.6715   20.9493 C   0  0  0  0  0  0  0  0  0  0  0  0
    6.6249   -0.0401   19.8464 C   0  0  0  0  0  0  0  0  0  0  0  0
    7.1508    0.0102   18.5395 C   0  0  0  0  0  0  0  0  0  0  0  0
    8.1009   -0.4687   18.3099 H   0  0  0  0  0  0  0  0  0  0  0  0
    6.5651    0.6595   17.5275 N   0  0  0  0  0  0  0  0  0  0  0  0
    5.4145    1.2977   17.7816 C   0  0  0  0  0  0  0  0  0  0  0  0
    4.9708    1.8309   16.9457 H   0  0  0  0  0  0  0  0  0  0  0  0
    4.7933    1.3007   19.0342 C   0  0  0  0  0  0  0  0  0  0  0  0
    3.8735    1.8530   19.1819 H   0  0  0  0  0  0  0  0  0  0  0  0
    5.4043    0.6194   20.0820 C   0  0  0  0  0  0  0  0  0  0  0  0
    4.9519    0.6399   21.0751 H   0  0  0  0  0  0  0  0  0  0  0  0
    7.0641   -0.5656   22.3269 C   0  0  0  0  0  0  0  0  0  0  0  0
    6.2336   -0.0444   22.7701 H   0  0  0  0  0  0  0  0  0  0  0  0
    8.1141   -1.2103   22.9573 C   0  0  0  0  0  0  0  0  0  0  0  0
  1  2  1  0
  2  3  1  0
  3  4  1  0
  4  5  1  0
  4  6  2  0
  6  7  1  0
  6  8  1  0
  8  9  1  0
  9 10  2  0
 10 11  1  0
 11 12  2  0
 12 13  1  0
 12 14  1  0
 14 15  2  0
 15 16  1  0
 15 17  1  0
 17 18  1  0
 17 19  2  0
 19 20  1  0
 10 21  1  0
 21 22  1  0
 21 23  2  0
 23  3  1  0
 23  8  1  0
 19 11  1  0
M  END
>  <cnnaffinity>  (1) 
-4.69765

>  <filename>  (1) 
Sn1ccn2nc(-c3cccnc3)cc12

$$$$
